@<TRIPOS>MOLECULE
10W
   52    56     1     0     0
SMALL
bcc


@<TRIPOS>ATOM
      1 C1         -0.0060   -0.0030   -0.1620 c         1 10W      0.720500
      2 N1          1.3800   -0.1440   -0.1550 n         1 10W     -0.429300
      3 C2          2.1310   -0.2170    1.0730 c2        1 10W      0.645800
      4 N2          1.4200    0.1930    2.2540 nu        1 10W     -0.760200
      5 N3          3.3860   -0.5580    1.1750 n2        1 10W     -0.852100
      6 C3          2.1200   -0.0550   -1.3880 c3        1 10W      0.064300
      7 O1         -0.6180    0.1790   -1.2310 o         1 10W     -0.621500
      8 C4         -0.7770   -0.1250    1.1360 c3        1 10W     -0.146700
      9 C5          0.0730   -0.3480    2.4170 c3        1 10W      0.278500
     10 C6         -0.7010    0.4980    3.5030 c3        1 10W      0.193800
     11 N4         -1.4730    1.5130    2.8040 nh        1 10W     -0.626000
     12 C7         -1.5880    1.1650    1.3930 c3        1 10W      0.199800
     13 C8          0.0670   -1.7820    2.8540 cc        1 10W     -0.171400
     14 C9          0.7100   -2.2400    3.9940 cd        1 10W     -0.138000
     15 C10         0.5420   -3.6420    4.1740 cd        1 10W     -0.139000
     16 C11        -0.2250   -4.2030    3.1640 cc        1 10W     -0.068100
     17 S1         -0.7000   -3.0350    2.0510 ss        1 10W      0.065200
     18 C12        -0.5860   -5.5950    3.0420 ca        1 10W     -0.023000
     19 C13         0.2510   -6.5900    3.5650 ca        1 10W     -0.055000
     20 C14        -0.0900   -7.9430    3.4550 ca        1 10W     -0.046000
     21 C15        -1.2930   -8.3070    2.8060 ca        1 10W      0.168900
     22 C16        -2.1320   -7.3060    2.2800 ca        1 10W     -0.165000
     23 C17        -1.7780   -5.9700    2.4000 ca        1 10W     -0.084000
     24 C18         0.7740   -8.9320    3.9940 cg        1 10W      0.230800
     25 N5          1.4840   -9.7400    4.4360 n1        1 10W     -0.341800
     26 F1         -1.6480   -9.6050    2.6850 f         1 10W     -0.120900
     27 C19        -2.6130    2.0360    3.4490 ca        1 10W      0.141600
     28 C20        -2.7810    1.9210    4.8490 ca        1 10W     -0.180000
     29 C21        -3.8610    2.5270    5.4820 ca        1 10W     -0.098000
     30 C22        -4.7990    3.2550    4.7530 ca        1 10W     -0.164000
     31 C23        -4.6410    3.3830    3.3740 ca        1 10W     -0.098000
     32 C24        -3.5670    2.7880    2.7220 ca        1 10W     -0.180000
     33 H1          3.8820   -0.7210    0.3270 hn        1 10W      0.407400
     34 H3          2.6290   -1.0340   -1.5990 h1        1 10W      0.058033
     35 H4          1.4210    0.1760   -2.2360 h1        1 10W      0.058033
     36 H5          2.8930    0.7570   -1.3250 h1        1 10W      0.058033
     37 H6         -1.4920   -0.9850    1.0020 hc        1 10W      0.090700
     38 H7          0.0050    1.0140    4.2090 h1        1 10W      0.062200
     39 H8         -1.3500   -0.2030    4.1000 h1        1 10W      0.062200
     40 H9         -2.6540    0.9990    1.0710 h1        1 10W      0.067700
     41 H10        -1.1700    2.0210    0.7930 h1        1 10W      0.067700
     42 H11         1.2800   -1.6150    4.6860 ha        1 10W      0.159000
     43 H12         0.9670   -4.1910    5.0170 ha        1 10W      0.162000
     44 H13         1.1920   -6.3070    4.0640 ha        1 10W      0.156000
     45 H14        -3.0670   -7.5980    1.7770 ha        1 10W      0.160000
     46 H15        -2.4440   -5.1930    1.9900 ha        1 10W      0.146000
     47 H16        -2.0530    1.3670    5.4600 ha        1 10W      0.133500
     48 H17        -3.9720    2.4270    6.5730 ha        1 10W      0.131500
     49 H18        -5.6520    3.7280    5.2610 ha        1 10W      0.133000
     50 H19        -5.3710    3.9640    2.7910 ha        1 10W      0.131500
     51 H20        -3.4610    2.9270    1.6360 ha        1 10W      0.133500
     52 H21         1.9690    0.0670    3.0870 hn        1 10W      0.420800
@<TRIPOS>BOND
     1    1    2 1   
     2    1    7 2   
     3    1    8 1   
     4    2    3 1   
     5    2    6 1   
     6    3    4 1   
     7    3    5 2   
     8    4    9 1   
     9    4   52 1   
    10    5   33 1   
    11    6   34 1   
    12    6   35 1   
    13    6   36 1   
    14    8    9 1   
    15    8   12 1   
    16    8   37 1   
    17    9   10 1   
    18    9   13 1   
    19   10   11 1   
    20   10   38 1   
    21   10   39 1   
    22   11   12 1   
    23   11   27 1   
    24   12   40 1   
    25   12   41 1   
    26   13   14 2   
    27   13   17 1   
    28   14   15 1   
    29   14   42 1   
    30   15   16 2   
    31   15   43 1   
    32   16   17 1   
    33   16   18 1   
    34   18   19 ar  
    35   18   23 ar  
    36   19   20 ar  
    37   19   44 1   
    38   20   21 ar  
    39   20   24 1   
    40   21   22 ar  
    41   21   26 1   
    42   22   23 ar  
    43   22   45 1   
    44   23   46 1   
    45   24   25 3   
    46   27   28 ar  
    47   27   32 ar  
    48   28   29 ar  
    49   28   47 1   
    50   29   30 ar  
    51   29   48 1   
    52   30   31 ar  
    53   30   49 1   
    54   31   32 ar  
    55   31   50 1   
    56   32   51 1   
@<TRIPOS>SUBSTRUCTURE
     1 10W         1 TEMP              0 ****  ****    0 ROOT
