@<TRIPOS>MOLECULE
10W
   52    44     1     0     0
SMALL
bcc


@<TRIPOS>ATOM
      1 C1          0.2260   -0.7000   -2.7650 c1        1 10W      0.323000
      2 N1          1.6840   -0.9890   -2.8370 n3        1 10W     -0.321000
      3 C2          2.3040   -1.1390   -1.8310 c1        1 10W      0.196000
      4 N2          1.7940   -0.9220   -0.8080 n2        1 10W     -0.259000
      5 N3          3.5620   -1.5480   -1.8770 n1        1 10W     -0.322000
      6 C3          2.3630   -0.9520   -4.1010 c3        1 10W     -0.091000
      7 O1         -0.4910   -1.0470   -3.6510 o         1 10W     -0.344000
      8 C4         -0.1610   -0.1250   -1.9780 c2        1 10W     -0.130000
      9 C5          0.4810   -0.3860   -0.7840 c3        1 10W      0.121000
     10 C6         -0.2690   -1.2090   -0.1500 c3        1 10W     -0.097000
     11 N4         -1.1160   -1.3040   -0.7000 n3        1 10W     -0.232000
     12 C7         -1.0100   -0.2870   -1.8590 c3        1 10W     -0.051000
     13 C8          0.5300    1.0540    0.1030 c2        1 10W     -0.410000
     14 C9          0.6800    2.4160   -0.4540 c1        1 10W     -0.126000
     15 C10         0.5130    3.4690    0.7420 c1        1 10W     -0.148000
     16 C11         0.2690    2.7260    1.9790 c1        1 10W     -0.353000
     17 S1          0.2690    1.1890    1.6290 ss        1 10W      0.636000
     18 C12         0.0060    3.3350    3.3610 c1        1 10W     -0.020000
     19 C13        -1.3050    3.4000    3.8590 c2        1 10W     -0.071000
     20 C14        -1.5390    3.8740    5.1570 c1        1 10W     -0.040000
     21 C15        -0.4720    4.2810    5.9530 c1        1 10W      0.132000
     22 C16         0.8420    4.2160    5.4540 c1        1 10W     -0.169000
     23 C17         1.0760    3.7420    4.1580 c1        1 10W     -0.070000
     24 C18        -2.9820    3.8880    5.7280 c1        1 10W     -0.098000
     25 N5         -4.0730    3.8980    6.1610 n1        1 10W     -0.017000
     26 F1         -0.6960    4.7250    7.2000 f         1 10W     -0.087000
     27 C19        -1.1960   -2.6670   -1.2420 c1        1 10W      0.056000
     28 C20        -2.1590   -2.9760   -2.2020 c1        1 10W     -0.132750
     29 C21        -2.3790   -4.3040   -2.5670 c1        1 10W     -0.132750
     30 C22        -1.6340   -5.3260   -1.9710 c1        1 10W     -0.132750
     31 C23        -0.6780   -5.0190   -1.0180 c1        1 10W     -0.132750
     32 C24        -0.4560   -3.6850   -0.6500 c1        1 10W     -0.180000
     33 H1          3.9670   -1.7210   -2.7010 DU        1 10W      0.163333
     34 H3          1.7160   -0.7800   -4.8150 h1        1 10W      0.097000
     35 H4          2.8100   -1.8260   -4.2620 h1        1 10W      0.097000
     36 H5          3.0360   -0.2390   -4.0900 h1        1 10W      0.097000
     37 H6         -0.0460    0.8410   -2.1990 ha        1 10W      0.153000
     38 H7         -0.4820   -0.8550    0.7400 h1        1 10W      0.101000
     39 H8          0.1690   -2.0580   -0.0720 h1        1 10W      0.101000
     40 H9         -1.4810    0.5420   -1.6240 h1        1 10W      0.108500
     41 H10        -1.3980   -0.6740   -2.6790 h1        1 10W      0.108500
     42 H11         0.8530    2.6380   -1.4000 DU        1 10W      0.163333
     43 H12         0.5660    4.4640    0.6590 DU        1 10W      0.163333
     44 H13        -2.0400    3.1200    3.3120 ha        1 10W      0.155000
     45 H14         1.5760    4.4960    6.0010 ha        1 10W      0.159000
     46 H15         1.9800    3.6970    3.8150 ha        1 10W      0.149000
     47 H16        -2.6780   -2.2630   -2.6190 ha        1 10W      0.133750
     48 H17        -3.0600   -4.5210   -3.2450 ha        1 10W      0.133750
     49 H18        -1.7910   -6.2760   -2.2330 ha        1 10W      0.133750
     50 H19        -0.1550   -5.7370   -0.6000 ha        1 10W      0.133750
     51 H20         0.2150   -3.4720    0.0210 ha        1 10W      0.132000
     52 H21         2.2600   -1.0010   -0.0470 hn        1 10W      0.221000
@<TRIPOS>BOND
     1    1    2 1   
     2    1    7 1   
     3    2    3 1   
     4    2    6 1   
     5    3    5 1   
     6    4    9 1   
     7    4   52 1   
     8    6   34 1   
     9    6   35 1   
    10    6   36 1   
    11    8    9 1   
    12    8   12 1   
    13    8   37 1   
    14    9   10 1   
    15    9   13 1   
    16   10   11 1   
    17   10   38 1   
    18   10   39 1   
    19   11   12 1   
    20   11   27 1   
    21   12   40 1   
    22   12   41 1   
    23   13   14 1   
    24   13   17 1   
    25   14   15 1   
    26   15   16 1   
    27   16   17 1   
    28   18   19 1   
    29   18   23 1   
    30   19   20 1   
    31   19   44 1   
    32   20   24 1   
    33   21   22 1   
    34   22   45 1   
    35   23   46 1   
    36   24   25 1   
    37   27   32 1   
    38   28   29 1   
    39   28   47 1   
    40   29   48 1   
    41   30   31 1   
    42   30   49 1   
    43   31   50 1   
    44   32   51 1   
@<TRIPOS>SUBSTRUCTURE
     1 10W         1 TEMP              0 ****  ****    0 ROOT
