@<TRIPOS>MOLECULE
10W
   52    56     1     0     0
SMALL
bcc


@<TRIPOS>ATOM
      1 C1         -0.0100   -0.0030   -0.1630 c         1 10W      0.720500
      2 N1          1.3760   -0.1450   -0.1600 n         1 10W     -0.429300
      3 C2          2.1290   -0.2200    1.0670 c2        1 10W      0.645800
      4 N2          1.4210    0.1900    2.2500 nh        1 10W     -0.760200
      5 N3          3.3840   -0.5620    1.1660 n2        1 10W     -0.852100
      6 C3          2.1130   -0.0560   -1.3940 c3        1 10W      0.064300
      7 O1         -0.6240    0.1800   -1.2310 o         1 10W     -0.621500
      8 C4         -0.7780   -0.1250    1.1360 c3        1 10W     -0.146700
      9 C5          0.0740   -0.3500    2.4160 c3        1 10W      0.278500
     10 C6         -0.6970    0.4970    3.5040 c3        1 10W      0.193800
     11 N4         -1.4690    1.5130    2.8060 nh        1 10W     -0.626000
     12 C7         -1.5870    1.1660    1.3950 c3        1 10W      0.199800
     13 C8          0.0670   -1.7830    2.8520 cc        1 10W     -0.171400
     14 C9          0.7110   -2.2420    3.9900 cd        1 10W     -0.138000
     15 C10         0.5430   -3.6440    4.1700 cd        1 10W     -0.139000
     16 C11        -0.2270   -4.2040    3.1610 cc        1 10W     -0.068100
     17 S1         -0.7020   -3.0350    2.0500 ss        1 10W      0.065200
     18 C12        -0.5890   -5.5960    3.0400 ca        1 10W     -0.023000
     19 C13         0.2470   -6.5910    3.5610 ca        1 10W     -0.055000
     20 C14        -0.0950   -7.9440    3.4510 ca        1 10W     -0.046000
     21 C15        -1.3000   -8.3070    2.8040 ca        1 10W      0.168900
     22 C16        -2.1380   -7.3050    2.2780 ca        1 10W     -0.165000
     23 C17        -1.7820   -5.9700    2.3990 ca        1 10W     -0.084000
     24 C18         0.7680   -8.9350    3.9890 cg        1 10W      0.230800
     25 N5          1.4780   -9.7440    4.4300 n1        1 10W     -0.341800
     26 F1         -1.6560   -9.6050    2.6830 f         1 10W     -0.120900
     27 C19        -2.6070    2.0370    3.4540 ca        1 10W      0.141600
     28 C20        -2.7720    1.9230    4.8550 ca        1 10W     -0.180000
     29 C21        -3.8500    2.5300    5.4900 ca        1 10W     -0.098000
     30 C22        -4.7880    3.2590    4.7640 ca        1 10W     -0.164000
     31 C23        -4.6330    3.3880    3.3850 ca        1 10W     -0.098000
     32 C24        -3.5620    2.7910    2.7300 ca        1 10W     -0.180000
     33 H1          3.8780   -0.7250    0.3170 hn        1 10W      0.407400
     34 H3          2.8870    0.7550   -1.3320 h1        1 10W      0.058033
     35 H4          2.6200   -1.0360   -1.6070 h1        1 10W      0.058033
     36 H5          1.4120    0.1770   -2.2400 h1        1 10W      0.058033
     37 H6         -1.4950   -0.9840    1.0030 hc        1 10W      0.090700
     38 H7         -1.3460   -0.2040    4.1010 h1        1 10W      0.062200
     39 H8          0.0120    1.0120    4.2080 h1        1 10W      0.062200
     40 H9         -2.6540    1.0020    1.0760 h1        1 10W      0.067700
     41 H10        -1.1700    2.0210    0.7950 h1        1 10W      0.067700
     42 H11         1.2830   -1.6180    4.6820 ha        1 10W      0.159000
     43 H12         0.9680   -4.1940    5.0130 ha        1 10W      0.162000
     44 H13         1.1890   -6.3100    4.0590 ha        1 10W      0.156000
     45 H14        -3.0740   -7.5960    1.7770 ha        1 10W      0.160000
     46 H15        -2.4480   -5.1920    1.9890 ha        1 10W      0.146000
     47 H16        -2.0440    1.3680    5.4640 ha        1 10W      0.133500
     48 H17        -3.9580    2.4300    6.5810 ha        1 10W      0.131500
     49 H18        -5.6390    3.7330    5.2730 ha        1 10W      0.133000
     50 H19        -5.3640    3.9700    2.8020 ha        1 10W      0.131500
     51 H20        -3.4570    2.9300    1.6430 ha        1 10W      0.133500
     52 H21         1.9710    0.0630    3.0820 hn        1 10W      0.420800
@<TRIPOS>BOND
     1    1    2 1   
     2    1    7 2   
     3    1    8 1   
     4    2    3 1   
     5    2    6 1   
     6    3    4 1   
     7    3    5 2   
     8    4    9 1   
     9    4   52 1   
    10    5   33 1   
    11    6   34 1   
    12    6   35 1   
    13    6   36 1   
    14    8    9 1   
    15    8   12 1   
    16    8   37 1   
    17    9   10 1   
    18    9   13 1   
    19   10   11 1   
    20   10   38 1   
    21   10   39 1   
    22   11   12 1   
    23   11   27 1   
    24   12   40 1   
    25   12   41 1   
    26   13   14 2   
    27   13   17 1   
    28   14   15 1   
    29   14   42 1   
    30   15   16 2   
    31   15   43 1   
    32   16   17 1   
    33   16   18 1   
    34   18   19 ar  
    35   18   23 ar  
    36   19   20 ar  
    37   19   44 1   
    38   20   21 ar  
    39   20   24 1   
    40   21   22 ar  
    41   21   26 1   
    42   22   23 ar  
    43   22   45 1   
    44   23   46 1   
    45   24   25 3   
    46   27   28 ar  
    47   27   32 ar  
    48   28   29 ar  
    49   28   47 1   
    50   29   30 ar  
    51   29   48 1   
    52   30   31 ar  
    53   30   49 1   
    54   31   32 ar  
    55   31   50 1   
    56   32   51 1   
@<TRIPOS>SUBSTRUCTURE
     1 10W         1 TEMP              0 ****  ****    0 ROOT
