@<TRIPOS>MOLECULE
10X
   50    50     1     0     0
SMALL
bcc


@<TRIPOS>ATOM
      1 CAA         0.0590   -0.3540    2.1070 c3        1 10X     -0.090100
      2 CAH         1.1300   -0.8620    1.1760 c3        1 10X     -0.051200
      3 CAD         2.4170   -0.1450    1.3450 c2        1 10X     -0.171200
      4 CAF         3.4870   -0.3440    0.5690 c2        1 10X     -0.172200
      5 CAO         3.5110   -1.3020   -0.5610 c3        1 10X     -0.044200
      6 CAT         4.8710   -1.4090   -1.1820 cx        1 10X      0.062100
      7 OAR         5.0110   -2.4270   -2.1890 os        1 10X     -0.412600
      8 CAU         5.7420   -2.5990   -0.9610 cx        1 10X      0.075100
      9 CAP         7.2350   -2.4780   -1.0460 c3        1 10X     -0.043200
     10 CAG         7.8960   -3.8020   -1.1280 c2        1 10X     -0.193200
     11 CAE         9.0990   -4.0800   -0.6170 c2        1 10X     -0.150200
     12 CAI         9.9400   -3.1150    0.1300 c3        1 10X     -0.055200
     13 CAJ        11.2700   -3.7100    0.5470 c3        1 10X     -0.078400
     14 CAK        12.1030   -2.7050    1.3130 c3        1 10X     -0.079400
     15 CAL        13.4270   -3.2980    1.7440 c3        1 10X     -0.078400
     16 CAM        14.2600   -2.2950    2.5130 c3        1 10X     -0.078400
     17 CAN        15.5760   -2.8940    2.9610 c3        1 10X     -0.065400
     18 CAQ        16.4210   -1.8960    3.7140 c3        1 10X     -0.194400
     19 CAS        17.6600   -2.5670    4.3340 c         1 10X      0.907600
     20 OAC        17.5090   -3.6610    4.9520 o         1 10X     -0.852800
     21 OAB        18.7720   -1.9760    4.2110 o         1 10X     -0.852800
     22 H1          0.3690   -0.4810    3.1720 hc        1 10X      0.033367
     23 H2         -0.8910   -0.9180    1.9460 hc        1 10X      0.033367
     24 H3         -0.1390    0.7300    1.9270 hc        1 10X      0.033367
     25 H4          1.2950   -1.9610    1.3550 hc        1 10X      0.047200
     26 H5          0.7840   -0.7590    0.1100 hc        1 10X      0.047200
     27 H6          2.4570    0.5830    2.1720 ha        1 10X      0.124000
     28 H7          4.4180    0.2180    0.7500 ha        1 10X      0.127000
     29 H8          2.7810   -0.9710   -1.3520 hc        1 10X      0.061200
     30 H9          3.1680   -2.3150   -0.2120 hc        1 10X      0.061200
     31 H10         5.3320   -0.4390   -1.4620 h1        1 10X      0.088700
     32 H11         5.3750   -3.4420   -0.3410 h1        1 10X      0.091700
     33 H12         7.5150   -1.8730   -1.9530 hc        1 10X      0.062200
     34 H13         7.5920   -1.9140   -0.1410 hc        1 10X      0.062200
     35 H14         7.3290   -4.5740   -1.6750 ha        1 10X      0.123000
     36 H15         9.5280   -5.0890   -0.7400 ha        1 10X      0.124000
     37 H16        10.1210   -2.2040   -0.5040 hc        1 10X      0.047200
     38 H17         9.3860   -2.7660    1.0460 hc        1 10X      0.047200
     39 H18        11.0940   -4.6160    1.1840 hc        1 10X      0.040700
     40 H19        11.8320   -4.0490   -0.3630 hc        1 10X      0.040700
     41 H20        11.5360   -2.3580    2.2170 hc        1 10X      0.034200
     42 H21        12.2860   -1.8020    0.6730 hc        1 10X      0.034200
     43 H22        13.9960   -3.6440    0.8410 hc        1 10X      0.037700
     44 H23        13.2450   -4.2010    2.3840 hc        1 10X      0.037700
     45 H24        14.4540   -1.3970    1.8690 hc        1 10X      0.025700
     46 H25        13.6850   -1.9390    3.4080 hc        1 10X      0.025700
     47 H26        15.3920   -3.7810    3.6240 hc        1 10X      0.044200
     48 H27        16.1430   -3.2630    2.0670 hc        1 10X      0.044200
     49 H28        16.7480   -1.0700    3.0350 hc        1 10X      0.018700
     50 H29        15.8260   -1.4420    4.5470 hc        1 10X      0.018700
@<TRIPOS>BOND
     1    1    2 1   
     2    1   22 1   
     3    1   23 1   
     4    1   24 1   
     5    2    3 1   
     6    2   25 1   
     7    2   26 1   
     8    3    4 2   
     9    3   27 1   
    10    4    5 1   
    11    4   28 1   
    12    5    6 1   
    13    5   29 1   
    14    5   30 1   
    15    6    7 1   
    16    6    8 1   
    17    6   31 1   
    18    7    8 1   
    19    8    9 1   
    20    8   32 1   
    21    9   10 1   
    22    9   33 1   
    23    9   34 1   
    24   10   11 2   
    25   10   35 1   
    26   11   12 1   
    27   11   36 1   
    28   12   13 1   
    29   12   37 1   
    30   12   38 1   
    31   13   14 1   
    32   13   39 1   
    33   13   40 1   
    34   14   15 1   
    35   14   41 1   
    36   14   42 1   
    37   15   16 1   
    38   15   43 1   
    39   15   44 1   
    40   16   17 1   
    41   16   45 1   
    42   16   46 1   
    43   17   18 1   
    44   17   47 1   
    45   17   48 1   
    46   18   19 1   
    47   18   49 1   
    48   18   50 1   
    49   19   20 1   
    50   19   21 1   
@<TRIPOS>SUBSTRUCTURE
     1 10X         1 TEMP              0 ****  ****    0 ROOT
