@<TRIPOS>MOLECULE
10X
   50    48     1     0     0
SMALL
bcc


@<TRIPOS>ATOM
      1 CAA        -1.1480   -5.6590   -7.6790 c3        1 10X     -0.208000
      2 CAH        -1.3950   -4.6780   -6.5330 c3        1 10X     -0.134000
      3 CAD        -0.5600   -3.4160   -6.7540 c2        1 10X     -0.170000
      4 CAF        -0.5140   -2.4490   -5.7890 c1        1 10X     -0.165000
      5 CAO        -1.2990   -2.6300   -4.4830 c2        1 10X     -0.128000
      6 CAT        -1.4880   -1.2450   -3.7950 cx        1 10X     -0.050000
      7 OAR        -0.3840   -0.3090   -3.9500 os        1 10X     -0.267000
      8 CAU        -0.6250   -0.9820   -2.6830 cx        1 10X     -0.039000
      9 CAP        -1.2310   -0.0960   -1.5540 c3        1 10X     -0.125000
     10 CAG        -0.7890    1.3540   -1.7520 c2        1 10X     -0.189000
     11 CAE        -0.3990    2.1050   -0.6740 c1        1 10X     -0.145000
     12 CAI        -0.4070    1.4910    0.7340 c2        1 10X     -0.138000
     13 CAJ         0.2710    2.4600    1.7190 c3        1 10X     -0.157000
     14 CAK         0.0900    1.9430    3.1530 c3        1 10X     -0.158000
     15 CAL         1.2000    2.5170    4.0480 c3        1 10X     -0.157000
     16 CAM         0.8310    2.3030    5.5210 c3        1 10X     -0.157000
     17 CAN         2.0770    2.5010    6.3940 c3        1 10X     -0.144000
     18 CAQ         1.6570    2.6430    7.8600 c3        1 10X     -0.223000
     19 CAS         2.8820    2.5030    8.7560 c2        1 10X      0.327000
     20 OAC         3.6520    3.4870    8.9280 o         1 10X     -0.587500
     21 OAB         3.1260    1.4030    9.3260 o         1 10X     -0.587500
     22 H1         -1.8620   -6.3350   -7.6910 hc        1 10X      0.072667
     23 H2         -1.1450   -5.1720   -8.5320 hc        1 10X      0.072667
     24 H3         -0.2800   -6.1010   -7.5510 hc        1 10X      0.072667
     25 H4         -1.1370   -5.0960   -5.6830 hc        1 10X      0.087000
     26 H5         -2.3470   -4.4400   -6.5050 hc        1 10X      0.087000
     27 H6         -0.0570   -3.3000   -7.5900 ha        1 10X      0.121000
     28 H7          0.0230   -1.6380   -5.9310 ha        1 10X      0.129000
     29 H8         -2.1780   -3.0190   -4.6810 ha        1 10X      0.101000
     30 H9         -0.8040   -3.2280   -3.8830 ha        1 10X      0.101000
     31 H10        -2.3820   -0.8430   -3.7450 h1        1 10X      0.130000
     32 H11         0.0060   -1.7000   -2.4540 h1        1 10X      0.131000
     33 H12        -2.2130   -0.1470   -1.5880 hc        1 10X      0.101500
     34 H13        -0.9170   -0.4180   -0.6820 hc        1 10X      0.101500
     35 H14        -0.7840    1.7470   -2.6500 ha        1 10X      0.123000
     36 H15        -0.1160    3.0350   -0.8010 ha        1 10X      0.124000
     37 H16         0.0840    0.6400    0.7220 ha        1 10X      0.086500
     38 H17        -1.3340    1.3310    1.0170 ha        1 10X      0.086500
     39 H18         1.2300    2.5210    1.5110 hc        1 10X      0.080000
     40 H19        -0.1390    3.3500    1.6370 hc        1 10X      0.080000
     41 H20         0.1400    0.9620    3.1560 hc        1 10X      0.074000
     42 H21        -0.7860    2.2270    3.4950 hc        1 10X      0.074000
     43 H22         1.3000    3.4790    3.8710 hc        1 10X      0.077000
     44 H23         2.0480    2.0580    3.8530 hc        1 10X      0.077000
     45 H24         0.4870    1.3900    5.6430 hc        1 10X      0.065000
     46 H25         0.1410    2.9510    5.7830 hc        1 10X      0.065000
     47 H26         2.5510    3.3130    6.1090 hc        1 10X      0.083500
     48 H27         2.6720    1.7230    6.2980 hc        1 10X      0.083500
     49 H28         1.2480    3.5250    7.9990 hc        1 10X      0.058000
     50 H29         1.0050    1.9410    8.0830 hc        1 10X      0.058000
@<TRIPOS>BOND
     1    1    2 1   
     2    1   22 1   
     3    1   23 1   
     4    1   24 1   
     5    2    3 1   
     6    2   25 1   
     7    2   26 1   
     8    3    4 1   
     9    3   27 1   
    10    4   28 1   
    11    5    6 1   
    12    5   29 1   
    13    5   30 1   
    14    6    7 1   
    15    6    8 1   
    16    6   31 1   
    17    7    8 1   
    18    8    9 1   
    19    8   32 1   
    20    9   10 1   
    21    9   33 1   
    22    9   34 1   
    23   10   11 1   
    24   10   35 1   
    25   11   36 1   
    26   12   13 1   
    27   12   37 1   
    28   12   38 1   
    29   13   14 1   
    30   13   39 1   
    31   13   40 1   
    32   14   15 1   
    33   14   41 1   
    34   14   42 1   
    35   15   16 1   
    36   15   43 1   
    37   15   44 1   
    38   16   17 1   
    39   16   45 1   
    40   16   46 1   
    41   17   18 1   
    42   17   47 1   
    43   17   48 1   
    44   18   19 1   
    45   18   49 1   
    46   18   50 1   
    47   19   20 1   
    48   19   21 1   
@<TRIPOS>SUBSTRUCTURE
     1 10X         1 TEMP              0 ****  ****    0 ROOT
