@<TRIPOS>MOLECULE
10X
   50    50     1     0     0
SMALL
bcc


@<TRIPOS>ATOM
      1 CAA         0.1080   -0.2100    2.0970 c3        1 10X     -0.090100
      2 CAH         1.1610   -0.7810    1.1810 c3        1 10X     -0.051200
      3 CAD         2.4540   -0.0640    1.2860 c2        1 10X     -0.171200
      4 CAF         3.5100   -0.3160    0.5050 c2        1 10X     -0.172200
      5 CAO         3.5090   -1.3400   -0.5670 c3        1 10X     -0.044200
      6 CAT         4.8580   -1.4940   -1.2010 cx        1 10X      0.062100
      7 OAR         4.9740   -2.5720   -2.1470 os        1 10X     -0.412600
      8 CAU         5.7240   -2.6770   -0.9220 cx        1 10X      0.075100
      9 CAP         7.2160   -2.5730   -1.0370 c3        1 10X     -0.043200
     10 CAG         7.8650   -3.9060   -1.0520 c2        1 10X     -0.193200
     11 CAE         9.0660   -4.1680   -0.5290 c2        1 10X     -0.150200
     12 CAI         9.9190   -3.1750    0.1660 c3        1 10X     -0.055200
     13 CAJ        11.2380   -3.7660    0.6220 c3        1 10X     -0.078400
     14 CAK        12.0810   -2.7320    1.3380 c3        1 10X     -0.079400
     15 CAL        13.3950   -3.3190    1.8060 c3        1 10X     -0.078400
     16 CAM        14.2360   -2.2890    2.5290 c3        1 10X     -0.078400
     17 CAN        15.5520   -2.8750    2.9970 c3        1 10X     -0.065400
     18 CAQ        16.3890   -1.8610    3.7370 c3        1 10X     -0.194400
     19 CAS        17.7930   -2.4100    4.0430 c         1 10X      0.907600
     20 OAC        18.4270   -2.9980    3.1190 o         1 10X     -0.852800
     21 OAB        18.2540   -2.2300    5.2070 o         1 10X     -0.852800
     22 H1         -0.8480   -0.7760    1.9850 hc        1 10X      0.033367
     23 H2         -0.0870    0.8630    1.8540 hc        1 10X      0.033367
     24 H3          0.4340   -0.2740    3.1630 hc        1 10X      0.033367
     25 H4          0.7970   -0.7410    0.1170 hc        1 10X      0.047200
     26 H5          1.3220   -1.8680    1.4250 hc        1 10X      0.047200
     27 H6          2.5130    0.7120    2.0660 ha        1 10X      0.124000
     28 H7          4.4470    0.2500    0.6360 ha        1 10X      0.127000
     29 H8          3.1640   -2.3270   -0.1520 hc        1 10X      0.061200
     30 H9          2.7680   -1.0500   -1.3650 hc        1 10X      0.061200
     31 H10         5.3210   -0.5470   -1.5450 h1        1 10X      0.088700
     32 H11         5.3600   -3.4780   -0.2470 h1        1 10X      0.091700
     33 H12         7.5910   -1.9600   -0.1720 hc        1 10X      0.062200
     34 H13         7.4860   -2.0250   -1.9820 hc        1 10X      0.062200
     35 H14         7.2890   -4.6990   -1.5570 ha        1 10X      0.123000
     36 H15         9.4850   -5.1870   -0.6020 ha        1 10X      0.124000
     37 H16        10.1170   -2.3050   -0.5180 hc        1 10X      0.047200
     38 H17         9.3670   -2.7670    1.0580 hc        1 10X      0.047200
     39 H18        11.8000   -4.1610   -0.2640 hc        1 10X      0.040700
     40 H19        11.0450   -4.6330    1.3060 hc        1 10X      0.040700
     41 H20        12.2800   -1.8680    0.6520 hc        1 10X      0.034200
     42 H21        11.5150   -2.3300    2.2200 hc        1 10X      0.034200
     43 H22        13.9660   -3.7160    0.9260 hc        1 10X      0.037700
     44 H23        13.1980   -4.1870    2.4890 hc        1 10X      0.037700
     45 H24        14.4340   -1.4210    1.8460 hc        1 10X      0.025700
     46 H25        13.6670   -1.8910    3.4100 hc        1 10X      0.025700
     47 H26        15.3530   -3.7540    3.6650 hc        1 10X      0.044200
     48 H27        16.1400   -3.2550    2.1190 hc        1 10X      0.044200
     49 H28        16.5110   -0.9380    3.1140 hc        1 10X      0.018700
     50 H29        15.8890   -1.5660    4.6930 hc        1 10X      0.018700
@<TRIPOS>BOND
     1    1    2 1   
     2    1   22 1   
     3    1   23 1   
     4    1   24 1   
     5    2    3 1   
     6    2   25 1   
     7    2   26 1   
     8    3    4 2   
     9    3   27 1   
    10    4    5 1   
    11    4   28 1   
    12    5    6 1   
    13    5   29 1   
    14    5   30 1   
    15    6    7 1   
    16    6    8 1   
    17    6   31 1   
    18    7    8 1   
    19    8    9 1   
    20    8   32 1   
    21    9   10 1   
    22    9   33 1   
    23    9   34 1   
    24   10   11 2   
    25   10   35 1   
    26   11   12 1   
    27   11   36 1   
    28   12   13 1   
    29   12   37 1   
    30   12   38 1   
    31   13   14 1   
    32   13   39 1   
    33   13   40 1   
    34   14   15 1   
    35   14   41 1   
    36   14   42 1   
    37   15   16 1   
    38   15   43 1   
    39   15   44 1   
    40   16   17 1   
    41   16   45 1   
    42   16   46 1   
    43   17   18 1   
    44   17   47 1   
    45   17   48 1   
    46   18   19 1   
    47   18   49 1   
    48   18   50 1   
    49   19   20 1   
    50   19   21 1   
@<TRIPOS>SUBSTRUCTURE
     1 10X         1 TEMP              0 ****  ****    0 ROOT
