@<TRIPOS>MOLECULE
10X
   50    50     1     0     0
SMALL
bcc


@<TRIPOS>ATOM
      1 CAA         9.2840   -2.4670    1.2340 c3        1 10X     -0.090100
      2 CAH         8.3650   -1.3740    0.7510 c3        1 10X     -0.051200
      3 CAD         7.1680   -1.9050    0.0570 c2        1 10X     -0.171200
      4 CAF         6.2570   -1.1360   -0.5500 c2        1 10X     -0.172200
      5 CAO         6.3440    0.3420   -0.6080 c3        1 10X     -0.044200
      6 CAT         5.1300    0.9540   -1.2410 cx        1 10X      0.062100
      7 OAR         5.0720    2.3910   -1.1990 os        1 10X     -0.412600
      8 CAU         4.0970    1.6620   -0.4290 cx        1 10X      0.075100
      9 CAP         2.6760    1.7370   -0.9030 c3        1 10X     -0.043200
     10 CAG         1.8930    2.7450   -0.1490 c2        1 10X     -0.193200
     11 CAE         0.5920    2.6330    0.1380 c2        1 10X     -0.150200
     12 CAI        -0.2560    1.4760   -0.2310 c3        1 10X     -0.055200
     13 CAJ        -1.6960    1.6530    0.2070 c3        1 10X     -0.078400
     14 CAK        -2.5350    0.4510   -0.1720 c3        1 10X     -0.079400
     15 CAL        -3.9720    0.6180    0.2740 c3        1 10X     -0.078400
     16 CAM        -4.8100   -0.5870   -0.0980 c3        1 10X     -0.078400
     17 CAN        -6.2480   -0.4210    0.3470 c3        1 10X     -0.065400
     18 CAQ        -7.0880   -1.6260   -0.0010 c3        1 10X     -0.194400
     19 CAS        -8.5780   -1.3710    0.2860 c         1 10X      0.907600
     20 OAC        -9.0900   -0.2810   -0.1000 o         1 10X     -0.852800
     21 OAB        -9.2250   -2.2800    0.8820 o         1 10X     -0.852800
     22 H1          9.6440   -3.0880    0.3790 hc        1 10X      0.033367
     23 H2         10.1720   -2.0250    1.7480 hc        1 10X      0.033367
     24 H3          8.7560   -3.1370    1.9550 hc        1 10X      0.033367
     25 H4          8.0360   -0.7450    1.6240 hc        1 10X      0.047200
     26 H5          8.9260   -0.6900    0.0560 hc        1 10X      0.047200
     27 H6          7.0510   -3.0010    0.0660 ha        1 10X      0.124000
     28 H7          5.3850   -1.5920   -1.0460 ha        1 10X      0.127000
     29 H8          6.4890    0.7590    0.4270 hc        1 10X      0.061200
     30 H9          7.2500    0.6440   -1.2050 hc        1 10X      0.061200
     31 H10         4.8520    0.5240   -2.2240 h1        1 10X      0.088700
     32 H11         4.2320    1.7630    0.6670 h1        1 10X      0.091700
     33 H12         2.6540    2.0010   -1.9970 hc        1 10X      0.062200
     34 H13         2.2170    0.7160   -0.7930 hc        1 10X      0.062200
     35 H14         2.4580    3.6400    0.1580 ha        1 10X      0.123000
     36 H15         0.0810    3.4430    0.6870 ha        1 10X      0.124000
     37 H16        -0.2220    1.3240   -1.3440 hc        1 10X      0.047200
     38 H17         0.1610    0.5410    0.2370 hc        1 10X      0.047200
     39 H18        -1.7360    1.8040    1.3180 hc        1 10X      0.040700
     40 H19        -2.1240    2.5750   -0.2680 hc        1 10X      0.040700
     41 H20        -2.5010    0.3050   -1.2830 hc        1 10X      0.034200
     42 H21        -2.1020   -0.4720    0.2960 hc        1 10X      0.034200
     43 H22        -4.0060    0.7690    1.3850 hc        1 10X      0.037700
     44 H23        -4.4090    1.5370   -0.1980 hc        1 10X      0.037700
     45 H24        -4.7760   -0.7380   -1.2090 hc        1 10X      0.025700
     46 H25        -4.3740   -1.5070    0.3730 hc        1 10X      0.025700
     47 H26        -6.2800   -0.2520    1.4550 hc        1 10X      0.044200
     48 H27        -6.7010    0.4850   -0.1390 hc        1 10X      0.044200
     49 H28        -6.9850   -1.8610   -1.0910 hc        1 10X      0.018700
     50 H29        -6.7450   -2.5200    0.5780 hc        1 10X      0.018700
@<TRIPOS>BOND
     1    1    2 1   
     2    1   22 1   
     3    1   23 1   
     4    1   24 1   
     5    2    3 1   
     6    2   25 1   
     7    2   26 1   
     8    3    4 2   
     9    3   27 1   
    10    4    5 1   
    11    4   28 1   
    12    5    6 1   
    13    5   29 1   
    14    5   30 1   
    15    6    7 1   
    16    6    8 1   
    17    6   31 1   
    18    7    8 1   
    19    8    9 1   
    20    8   32 1   
    21    9   10 1   
    22    9   33 1   
    23    9   34 1   
    24   10   11 2   
    25   10   35 1   
    26   11   12 1   
    27   11   36 1   
    28   12   13 1   
    29   12   37 1   
    30   12   38 1   
    31   13   14 1   
    32   13   39 1   
    33   13   40 1   
    34   14   15 1   
    35   14   41 1   
    36   14   42 1   
    37   15   16 1   
    38   15   43 1   
    39   15   44 1   
    40   16   17 1   
    41   16   45 1   
    42   16   46 1   
    43   17   18 1   
    44   17   47 1   
    45   17   48 1   
    46   18   19 1   
    47   18   49 1   
    48   18   50 1   
    49   19   20 1   
    50   19   21 1   
@<TRIPOS>SUBSTRUCTURE
     1 10X         1 TEMP              0 ****  ****    0 ROOT
