@<TRIPOS>MOLECULE
10Y
   50    50     1     0     0
SMALL
bcc


@<TRIPOS>ATOM
      1 O1          8.4090   -0.2850   -1.3030 o         1 10Y     -0.852800
      2 C1          8.1480    0.5480   -0.3880 c         1 10Y      0.907600
      3 O2          9.0300    1.1300    0.3070 o         1 10Y     -0.852800
      4 C2          6.6740    0.9000   -0.1140 c3        1 10Y     -0.194400
      5 C3          5.8170   -0.3400   -0.0540 c3        1 10Y     -0.065400
      6 C4          4.3420   -0.0040    0.0180 c3        1 10Y     -0.078400
      7 C5          3.4910   -1.2540    0.0930 c3        1 10Y     -0.079400
      8 C6          2.0160   -0.9180    0.1420 c3        1 10Y     -0.079400
      9 C7          1.1660   -2.1680    0.2140 c3        1 10Y     -0.078400
     10 C8         -0.3100   -1.8250    0.2470 c3        1 10Y     -0.055200
     11 C9         -1.1680   -3.0320    0.3070 c2        1 10Y     -0.148200
     12 C10        -2.5040   -3.0170    0.3500 c2        1 10Y     -0.194200
     13 C11        -3.3320   -1.7880    0.3710 c3        1 10Y     -0.043200
     14 C12        -4.6030   -1.9500   -0.4120 cx        1 10Y      0.073100
     15 O3         -5.8300   -1.7650    0.3190 os        1 10Y     -0.413600
     16 C13        -5.4980   -0.7860   -0.6820 cx        1 10Y      0.063100
     17 C14        -5.1580    0.5890   -0.1910 c3        1 10Y     -0.045200
     18 C15        -6.3180    1.5100   -0.2440 c2        1 10Y     -0.172200
     19 C16        -6.2130    2.8430   -0.2320 c2        1 10Y     -0.170200
     20 C17        -4.9250    3.5750   -0.1860 c3        1 10Y     -0.052200
     21 C18        -5.1120    5.0620   -0.0180 c3        1 10Y     -0.090100
     22 H2          6.6010    1.4710    0.8450 hc        1 10Y      0.018700
     23 H3          6.3230    1.5680   -0.9400 hc        1 10Y      0.018700
     24 H4          6.0270   -0.9660   -0.9620 hc        1 10Y      0.044200
     25 H5          6.1050   -0.9510    0.8420 hc        1 10Y      0.044200
     26 H6          4.1450    0.6390    0.9160 hc        1 10Y      0.025700
     27 H7          4.0500    0.5940   -0.8860 hc        1 10Y      0.025700
     28 H8          3.7000   -1.9020   -0.7980 hc        1 10Y      0.037700
     29 H9          3.7730   -1.8450    1.0040 hc        1 10Y      0.037700
     30 H10         1.8080   -0.2700    1.0340 hc        1 10Y      0.034200
     31 H11         1.7360   -0.3250   -0.7690 hc        1 10Y      0.034200
     32 H12         1.3820   -2.8200   -0.6730 hc        1 10Y      0.040700
     33 H13         1.4370   -2.7550    1.1310 hc        1 10Y      0.040700
     34 H14        -0.5200   -1.1710    1.1360 hc        1 10Y      0.047700
     35 H15        -0.5710   -1.2250   -0.6680 hc        1 10Y      0.047700
     36 H16        -0.6310   -3.9970    0.3170 ha        1 10Y      0.124000
     37 H17        -3.0690   -3.9630    0.3960 ha        1 10Y      0.120000
     38 H18        -3.5800   -1.5340    1.4400 hc        1 10Y      0.063700
     39 H19        -2.7600   -0.9180   -0.0540 hc        1 10Y      0.063700
     40 H20        -4.6250   -2.8190   -1.1000 h1        1 10Y      0.089700
     41 H21        -6.1700   -0.8090   -1.5640 h1        1 10Y      0.085700
     42 H22        -4.7820    0.5320    0.8690 hc        1 10Y      0.064700
     43 H23        -4.3150    0.9890   -0.8220 hc        1 10Y      0.064700
     44 H24        -7.3090    1.0270   -0.2760 ha        1 10Y      0.126000
     45 H25        -7.1200    3.4690   -0.2580 ha        1 10Y      0.121000
     46 H26        -4.2990    3.1770    0.6600 hc        1 10Y      0.049700
     47 H27        -4.3520    3.3730   -1.1330 hc        1 10Y      0.049700
     48 H28        -5.7000    5.4850   -0.8680 hc        1 10Y      0.034033
     49 H29        -5.6560    5.2870    0.9310 hc        1 10Y      0.034033
     50 H30        -4.1200    5.5730    0.0140 hc        1 10Y      0.034033
@<TRIPOS>BOND
     1    1    2 1   
     2    2    3 1   
     3    2    4 1   
     4    4    5 1   
     5    4   22 1   
     6    4   23 1   
     7    5    6 1   
     8    5   24 1   
     9    5   25 1   
    10    6    7 1   
    11    6   26 1   
    12    6   27 1   
    13    7    8 1   
    14    7   28 1   
    15    7   29 1   
    16    8    9 1   
    17    8   30 1   
    18    8   31 1   
    19    9   10 1   
    20    9   32 1   
    21    9   33 1   
    22   10   11 1   
    23   10   34 1   
    24   10   35 1   
    25   11   12 2   
    26   11   36 1   
    27   12   13 1   
    28   12   37 1   
    29   13   14 1   
    30   13   38 1   
    31   13   39 1   
    32   14   15 1   
    33   14   16 1   
    34   14   40 1   
    35   15   16 1   
    36   16   17 1   
    37   16   41 1   
    38   17   18 1   
    39   17   42 1   
    40   17   43 1   
    41   18   19 2   
    42   18   44 1   
    43   19   20 1   
    44   19   45 1   
    45   20   21 1   
    46   20   46 1   
    47   20   47 1   
    48   21   48 1   
    49   21   49 1   
    50   21   50 1   
@<TRIPOS>SUBSTRUCTURE
     1 10Y         1 TEMP              0 ****  ****    0 ROOT
