@<TRIPOS>MOLECULE
10Y
   50    50     1     0     0
SMALL
bcc


@<TRIPOS>ATOM
      1 O1          1.2350   -2.1200    0.1350 o         1 10Y     -0.852800
      2 C1          1.1000   -0.8680    0.2620 c         1 10Y      0.907600
      3 O2          0.7360   -0.3050    1.3340 o         1 10Y     -0.852800
      4 C2          1.4190    0.0310   -0.9460 c3        1 10Y     -0.194400
      5 C3          0.8000   -0.5110   -2.2120 c3        1 10Y     -0.065400
      6 C4          1.2650    0.2480   -3.4370 c3        1 10Y     -0.078400
      7 C5          0.6270   -0.2930   -4.6990 c3        1 10Y     -0.079400
      8 C6          1.1090    0.4520   -5.9260 c3        1 10Y     -0.079400
      9 C7          0.4730   -0.0920   -7.1880 c3        1 10Y     -0.078400
     10 C8          0.9720    0.6460   -8.4130 c3        1 10Y     -0.055200
     11 C9          0.3730    0.1280   -9.6660 c2        1 10Y     -0.148200
     12 C10         0.6350    0.6000  -10.8890 c2        1 10Y     -0.194200
     13 C11         1.5440    1.7340  -11.1770 c3        1 10Y     -0.043200
     14 C12         2.3140    1.5320  -12.4500 cx        1 10Y      0.073100
     15 O3          2.1310    2.5300  -13.4710 os        1 10Y     -0.413600
     16 C13         3.4210    2.4550  -12.8390 cx        1 10Y      0.063100
     17 C14         3.8130    3.6130  -11.9700 c3        1 10Y     -0.045200
     18 C15         4.6620    4.5930  -12.6870 c2        1 10Y     -0.172200
     19 C16         5.4430    5.4900  -12.0750 c2        1 10Y     -0.170200
     20 C17         5.5800    5.6070  -10.6040 c3        1 10Y     -0.052200
     21 C18         6.3990    6.8050  -10.1940 c3        1 10Y     -0.090100
     22 H2          2.5320    0.0760   -1.0540 hc        1 10Y      0.018700
     23 H3          1.0510    1.0670   -0.7450 hc        1 10Y      0.018700
     24 H4          1.0670   -1.5970   -2.3050 hc        1 10Y      0.044200
     25 H5         -0.3170   -0.4510   -2.1360 hc        1 10Y      0.044200
     26 H6          1.0130    1.3350   -3.3260 hc        1 10Y      0.025700
     27 H7          2.3810    0.1750   -3.5220 hc        1 10Y      0.025700
     28 H8          0.8680   -1.3830   -4.8010 hc        1 10Y      0.037700
     29 H9         -0.4890   -0.2070   -4.6210 hc        1 10Y      0.037700
     30 H10         2.2250    0.3670   -6.0010 hc        1 10Y      0.034200
     31 H11         0.8670    1.5420   -5.8230 hc        1 10Y      0.034200
     32 H12         0.7070   -1.1850   -7.2850 hc        1 10Y      0.040700
     33 H13        -0.6420    0.0030   -7.1180 hc        1 10Y      0.040700
     34 H14         0.7360    1.7410   -8.3100 hc        1 10Y      0.047700
     35 H15         2.0920    0.5590   -8.4680 hc        1 10Y      0.047700
     36 H16        -0.3360   -0.7090   -9.5430 ha        1 10Y      0.124000
     37 H17         0.1440    0.1580  -11.7720 ha        1 10Y      0.120000
     38 H18         0.9360    2.6790  -11.2540 hc        1 10Y      0.063700
     39 H19         2.2770    1.8780  -10.3360 hc        1 10Y      0.063700
     40 H20         2.3150    0.4940  -12.8400 h1        1 10Y      0.089700
     41 H21         4.2240    2.0900  -13.5120 h1        1 10Y      0.085700
     42 H22         4.3580    3.2090  -11.0720 hc        1 10Y      0.064700
     43 H23         2.8880    4.1330  -11.5920 hc        1 10Y      0.064700
     44 H24         4.6030    4.5610  -13.7870 ha        1 10Y      0.126000
     45 H25         6.0390    6.2020  -12.6700 ha        1 10Y      0.121000
     46 H26         6.0580    4.6710  -10.2020 hc        1 10Y      0.049700
     47 H27         4.5590    5.6730  -10.1370 hc        1 10Y      0.049700
     48 H28         5.9280    7.7490  -10.5600 hc        1 10Y      0.034033
     49 H29         7.4310    6.7410  -10.6150 hc        1 10Y      0.034033
     50 H30         6.4740    6.8560   -9.0810 hc        1 10Y      0.034033
@<TRIPOS>BOND
     1    1    2 1   
     2    2    3 1   
     3    2    4 1   
     4    4    5 1   
     5    4   22 1   
     6    4   23 1   
     7    5    6 1   
     8    5   24 1   
     9    5   25 1   
    10    6    7 1   
    11    6   26 1   
    12    6   27 1   
    13    7    8 1   
    14    7   28 1   
    15    7   29 1   
    16    8    9 1   
    17    8   30 1   
    18    8   31 1   
    19    9   10 1   
    20    9   32 1   
    21    9   33 1   
    22   10   11 1   
    23   10   34 1   
    24   10   35 1   
    25   11   12 2   
    26   11   36 1   
    27   12   13 1   
    28   12   37 1   
    29   13   14 1   
    30   13   38 1   
    31   13   39 1   
    32   14   15 1   
    33   14   16 1   
    34   14   40 1   
    35   15   16 1   
    36   16   17 1   
    37   16   41 1   
    38   17   18 1   
    39   17   42 1   
    40   17   43 1   
    41   18   19 2   
    42   18   44 1   
    43   19   20 1   
    44   19   45 1   
    45   20   21 1   
    46   20   46 1   
    47   20   47 1   
    48   21   48 1   
    49   21   49 1   
    50   21   50 1   
@<TRIPOS>SUBSTRUCTURE
     1 10Y         1 TEMP              0 ****  ****    0 ROOT
