@<TRIPOS>MOLECULE
10Y
   50    47     1     0     0
SMALL
bcc


@<TRIPOS>ATOM
      1 O1         -3.8430    0.7990    7.6610 o         1 10Y     -0.587500
      2 C1         -2.9260    1.6680    7.6710 c1        1 10Y      0.327000
      3 O2         -2.5010    2.1250    8.7680 o         1 10Y     -0.587500
      4 C2         -2.3790    2.2130    6.3540 c2        1 10Y     -0.223000
      5 C3         -1.1830    1.3600    5.9050 c3        1 10Y     -0.144000
      6 C4         -0.8360    1.6920    4.4420 c3        1 10Y     -0.157000
      7 C5          0.4080    0.8880    4.0140 c3        1 10Y     -0.157000
      8 C6          0.5500    0.9390    2.4810 c3        1 10Y     -0.158000
      9 C7          1.8330    0.1990    2.0580 c3        1 10Y     -0.157000
     10 C8          1.8460    0.0270    0.5270 c3        1 10Y     -0.138000
     11 C9          3.0980   -0.7540    0.1110 c2        1 10Y     -0.144000
     12 C10         3.2760   -1.1180   -1.2010 c1        1 10Y     -0.190000
     13 C11         2.2220   -0.7420   -2.2540 c2        1 10Y     -0.126000
     14 C12         2.9030   -0.5750   -3.6280 cx        1 10Y     -0.038000
     15 O3          3.0200   -1.7990   -4.4320 os        1 10Y     -0.270000
     16 C13         2.0470   -0.7550   -4.7790 cx        1 10Y     -0.048000
     17 C14         0.5730   -1.0870   -4.4720 c3        1 10Y     -0.128000
     18 C15        -0.1210   -1.5690   -5.7550 c2        1 10Y     -0.168000
     19 C16        -1.4890   -1.5280   -5.8530 c1        1 10Y     -0.166000
     20 C17        -2.3240   -1.0000   -4.6830 c2        1 10Y     -0.135000
     21 C18        -3.8110   -1.2240   -4.9760 c3        1 10Y     -0.208000
     22 H2         -3.0810    2.1790    5.6680 ha        1 10Y      0.058000
     23 H3         -2.0890    3.1430    6.4800 ha        1 10Y      0.058000
     24 H4         -0.4080    1.5550    6.4780 hc        1 10Y      0.083500
     25 H5         -1.4130    0.4080    5.9790 hc        1 10Y      0.083500
     26 H6         -0.6490    2.6540    4.3600 hc        1 10Y      0.065000
     27 H7         -1.5950    1.4540    3.8640 hc        1 10Y      0.065000
     28 H8          0.3090   -0.0470    4.3020 hc        1 10Y      0.077000
     29 H9          1.2090    1.2770    4.4310 hc        1 10Y      0.077000
     30 H10        -0.2290    0.5080    2.0650 hc        1 10Y      0.073500
     31 H11         0.6010    1.8770    2.1880 hc        1 10Y      0.073500
     32 H12         1.8570   -0.6860    2.4870 hc        1 10Y      0.080000
     33 H13         2.6190    0.7200    2.3370 hc        1 10Y      0.080000
     34 H14         1.0440   -0.4650    0.2460 hc        1 10Y      0.086500
     35 H15         1.8550    0.9120    0.0990 hc        1 10Y      0.086500
     36 H16         3.7720   -0.9950    0.7830 ha        1 10Y      0.124000
     37 H17         4.0780   -1.6190   -1.4670 ha        1 10Y      0.120000
     38 H18         1.7910    0.1020   -1.9980 ha        1 10Y      0.103000
     39 H19         1.5470   -1.4510   -2.3080 ha        1 10Y      0.103000
     40 H20         3.6320    0.0760   -3.7350 h1        1 10Y      0.129000
     41 H21         2.2710   -0.2090   -5.5660 h1        1 10Y      0.125000
     42 H22         0.5310   -1.7930   -3.7930 hc        1 10Y      0.104000
     43 H23         0.1190   -0.2830   -4.1380 hc        1 10Y      0.104000
     44 H24         0.4150   -1.9080   -6.5050 ha        1 10Y      0.126000
     45 H25        -1.9320   -1.8370   -6.6730 ha        1 10Y      0.121000
     46 H26        -2.0770   -1.4780   -3.8620 ha        1 10Y      0.089000
     47 H27        -2.1550   -0.0390   -4.5670 ha        1 10Y      0.089000
     48 H28        -4.3290   -1.1070   -4.1480 hc        1 10Y      0.073333
     49 H29        -3.9430   -2.1340   -5.3200 hc        1 10Y      0.073333
     50 H30        -4.1140   -0.5730   -5.6470 hc        1 10Y      0.073333
@<TRIPOS>BOND
     1    1    2 1   
     2    2    3 1   
     3    4    5 1   
     4    4   22 1   
     5    4   23 1   
     6    5    6 1   
     7    5   24 1   
     8    5   25 1   
     9    6    7 1   
    10    6   26 1   
    11    6   27 1   
    12    7    8 1   
    13    7   28 1   
    14    7   29 1   
    15    8    9 1   
    16    8   30 1   
    17    8   31 1   
    18    9   10 1   
    19    9   32 1   
    20    9   33 1   
    21   10   11 1   
    22   10   34 1   
    23   10   35 1   
    24   11   12 1   
    25   11   36 1   
    26   12   37 1   
    27   13   14 1   
    28   13   38 1   
    29   13   39 1   
    30   14   15 1   
    31   14   16 1   
    32   14   40 1   
    33   15   16 1   
    34   16   17 1   
    35   16   41 1   
    36   17   18 1   
    37   17   42 1   
    38   17   43 1   
    39   18   19 1   
    40   18   44 1   
    41   19   45 1   
    42   20   21 1   
    43   20   46 1   
    44   20   47 1   
    45   21   48 1   
    46   21   49 1   
    47   21   50 1   
@<TRIPOS>SUBSTRUCTURE
     1 10Y         1 TEMP              0 ****  ****    0 ROOT
