@<TRIPOS>MOLECULE
10Y
   50    50     1     0     0
SMALL
bcc


@<TRIPOS>ATOM
      1 O1          1.1750   -2.1380    0.1230 o         1 10Y     -0.852800
      2 C1          1.0510   -0.8850    0.2520 c         1 10Y      0.907600
      3 O2          0.6870   -0.3210    1.3240 o         1 10Y     -0.852800
      4 C2          1.3820    0.0140   -0.9520 c3        1 10Y     -0.194400
      5 C3          0.7640   -0.5180   -2.2210 c3        1 10Y     -0.065400
      6 C4          1.2400    0.2390   -3.4430 c3        1 10Y     -0.078400
      7 C5          0.6030   -0.2930   -4.7090 c3        1 10Y     -0.079400
      8 C6          1.0960    0.4510   -5.9320 c3        1 10Y     -0.079400
      9 C7          0.4620   -0.0850   -7.1980 c3        1 10Y     -0.078400
     10 C8          0.9710    0.6530   -8.4190 c3        1 10Y     -0.055200
     11 C9          0.3730    0.1420   -9.6760 c2        1 10Y     -0.148200
     12 C10         0.6430    0.6160  -10.8960 c2        1 10Y     -0.194200
     13 C11         1.5620    1.7450  -11.1780 c3        1 10Y     -0.043200
     14 C12         2.3370    1.5390  -12.4470 cx        1 10Y      0.073100
     15 O3          2.1610    2.5380  -13.4700 os        1 10Y     -0.413600
     16 C13         3.4490    2.4580  -12.8320 cx        1 10Y      0.063100
     17 C14         3.8400    3.6150  -11.9620 c3        1 10Y     -0.045200
     18 C15         4.6960    4.5920  -12.6750 c2        1 10Y     -0.172200
     19 C16         5.4760    5.4880  -12.0600 c2        1 10Y     -0.170200
     20 C17         5.6050    5.6060  -10.5880 c3        1 10Y     -0.052200
     21 C18         6.4240    6.8030  -10.1750 c3        1 10Y     -0.090100
     22 H2          1.0220    1.0540   -0.7490 hc        1 10Y      0.018700
     23 H3          2.4960    0.0500   -1.0550 hc        1 10Y      0.018700
     24 H4          1.0220   -1.6070   -2.3170 hc        1 10Y      0.044200
     25 H5         -0.3530   -0.4500   -2.1510 hc        1 10Y      0.044200
     26 H6          0.9970    1.3290   -3.3300 hc        1 10Y      0.025700
     27 H7          2.3560    0.1580   -3.5230 hc        1 10Y      0.025700
     28 H8         -0.5120   -0.1980   -4.6360 hc        1 10Y      0.037700
     29 H9          0.8350   -1.3850   -4.8130 hc        1 10Y      0.037700
     30 H10         0.8630    1.5430   -5.8270 hc        1 10Y      0.034200
     31 H11         2.2120    0.3570   -6.0020 hc        1 10Y      0.034200
     32 H12         0.6870   -1.1790   -7.2970 hc        1 10Y      0.040700
     33 H13        -0.6530    0.0180   -7.1320 hc        1 10Y      0.040700
     34 H14         2.0910    0.5570   -8.4700 hc        1 10Y      0.047700
     35 H15         0.7430    1.7490   -8.3140 hc        1 10Y      0.047700
     36 H16        -0.3420   -0.6900   -9.5580 ha        1 10Y      0.124000
     37 H17         0.1530    0.1800  -11.7830 ha        1 10Y      0.120000
     38 H18         0.9610    2.6940  -11.2550 hc        1 10Y      0.063700
     39 H19         2.2920    1.8810  -10.3330 hc        1 10Y      0.063700
     40 H20         2.3350    0.5010  -12.8380 h1        1 10Y      0.089700
     41 H21         4.2530    2.0900  -13.5020 h1        1 10Y      0.085700
     42 H22         2.9160    4.1380  -11.5880 hc        1 10Y      0.064700
     43 H23         4.3800    3.2090  -11.0610 hc        1 10Y      0.064700
     44 H24         4.6430    4.5590  -13.7750 ha        1 10Y      0.126000
     45 H25         6.0770    6.1970  -12.6530 ha        1 10Y      0.121000
     46 H26         4.5810    5.6750  -10.1280 hc        1 10Y      0.049700
     47 H27         6.0790    4.6700  -10.1820 hc        1 10Y      0.049700
     48 H28         7.4580    6.7370  -10.5910 hc        1 10Y      0.034033
     49 H29         6.4930    6.8560   -9.0620 hc        1 10Y      0.034033
     50 H30         5.9570    7.7480  -10.5460 hc        1 10Y      0.034033
@<TRIPOS>BOND
     1    1    2 1   
     2    2    3 1   
     3    2    4 1   
     4    4    5 1   
     5    4   22 1   
     6    4   23 1   
     7    5    6 1   
     8    5   24 1   
     9    5   25 1   
    10    6    7 1   
    11    6   26 1   
    12    6   27 1   
    13    7    8 1   
    14    7   28 1   
    15    7   29 1   
    16    8    9 1   
    17    8   30 1   
    18    8   31 1   
    19    9   10 1   
    20    9   32 1   
    21    9   33 1   
    22   10   11 1   
    23   10   34 1   
    24   10   35 1   
    25   11   12 2   
    26   11   36 1   
    27   12   13 1   
    28   12   37 1   
    29   13   14 1   
    30   13   38 1   
    31   13   39 1   
    32   14   15 1   
    33   14   16 1   
    34   14   40 1   
    35   15   16 1   
    36   16   17 1   
    37   16   41 1   
    38   17   18 1   
    39   17   42 1   
    40   17   43 1   
    41   18   19 2   
    42   18   44 1   
    43   19   20 1   
    44   19   45 1   
    45   20   21 1   
    46   20   46 1   
    47   20   47 1   
    48   21   48 1   
    49   21   49 1   
    50   21   50 1   
@<TRIPOS>SUBSTRUCTURE
     1 10Y         1 TEMP              0 ****  ****    0 ROOT
