@<TRIPOS>MOLECULE
10Z
   53    56     1     0     0
SMALL
bcc


@<TRIPOS>ATOM
      1 C29        -0.1700   -0.1410   -0.1040 c3        1 10Z      0.118700
      2 O28         1.2270    0.1240   -0.0270 os        1 10Z     -0.460600
      3 C27         1.8100   -0.3000    1.1980 c3        1 10Z      0.102400
      4 C26         3.3290   -0.2580    0.9990 c3        1 10Z      0.098800
      5 N25         3.8000    1.0630    0.5000 n4        1 10Z     -0.765000
      6 C24         5.2820    1.0810    0.2340 c3        1 10Z      0.191100
      7 C18         5.7140    2.4250   -0.2170 ca        1 10Z     -0.252300
      8 C20         6.1450    3.3800    0.7130 ca        1 10Z     -0.061500
      9 C22         6.5890    4.6270    0.3030 ca        1 10Z     -0.174000
     10 C23         6.6340    4.9570   -1.0760 ca        1 10Z      0.248600
     11 C21         6.1820    3.9800   -2.0100 ca        1 10Z     -0.174000
     12 C19         5.7350    2.7430   -1.5810 ca        1 10Z     -0.061500
     13 N17         7.0180    6.1980   -1.5580 nh        1 10Z     -0.731300
     14 C8          7.9810    7.0650   -0.9850 ca        1 10Z      0.862900
     15 N10         8.0810    8.2940   -1.5560 nb        1 10Z     -0.719000
     16 C12         9.0230    9.1500   -1.0290 ca        1 10Z      0.449600
     17 C14         9.1910   10.4650   -1.5700 ca        1 10Z     -0.182300
     18 C13        10.1360   11.3090   -1.0440 ca        1 10Z     -0.078000
     19 C15        10.9660   10.9150    0.0420 cp        1 10Z     -0.038000
     20 C16        10.8200    9.6520    0.5860 ca        1 10Z     -0.072000
     21 C11         9.8590    8.7610    0.0640 ca        1 10Z     -0.292600
     22 C9          9.6570    7.4360    0.5750 ca        1 10Z      0.490200
     23 N7          8.7610    6.5950    0.0940 nb        1 10Z     -0.729000
     24 C2         11.9600   11.8480    0.5670 cp        1 10Z     -0.013000
     25 C4         12.7170   12.6540   -0.2960 ca        1 10Z     -0.235800
     26 C6         13.6640   13.5330    0.2600 ca        1 10Z      0.399700
     27 N5         13.8860   13.6500    1.5840 nb        1 10Z     -0.650000
     28 C3         13.1510   12.8730    2.4020 ca        1 10Z      0.399700
     29 C1         12.1820   11.9610    1.9470 ca        1 10Z     -0.235800
     30 H1         -0.3600   -1.2400   -0.0440 h1        1 10Z      0.057367
     31 H2         -0.7110    0.3960    0.7130 h1        1 10Z      0.057367
     32 H3         -0.4640    0.2600   -1.1070 h1        1 10Z      0.057367
     33 H4          1.5130   -1.3540    1.4450 h1        1 10Z      0.071700
     34 H5          1.4830    0.3850    2.0260 h1        1 10Z      0.071700
     35 H6          3.6290   -1.0370    0.2410 hx        1 10Z      0.109200
     36 H7          3.8390   -0.4790    1.9790 hx        1 10Z      0.109200
     37 H8          3.2930    1.2860   -0.3690 hn        1 10Z      0.455800
     38 H10         5.4910    0.2990   -0.5520 hx        1 10Z      0.101200
     39 H11         5.8000    0.7850    1.1910 hx        1 10Z      0.101200
     40 H12         6.1410    3.1420    1.7890 ha        1 10Z      0.135000
     41 H13         6.9010    5.3550    1.0700 ha        1 10Z      0.165000
     42 H14         6.1940    4.1990   -3.0910 ha        1 10Z      0.165000
     43 H15         5.4120    1.9980   -2.3260 ha        1 10Z      0.135000
     44 H16         6.7530    6.4150   -2.4990 hn        1 10Z      0.466800
     45 H17         8.5530   10.7860   -2.4090 ha        1 10Z      0.162000
     46 H18        10.2610   12.3220   -1.4610 ha        1 10Z      0.153000
     47 H19        11.4540    9.3250    1.4250 ha        1 10Z      0.147000
     48 H20        10.2760    7.0690    1.4170 h4        1 10Z      0.038100
     49 H21        12.5860   12.5980   -1.3850 ha        1 10Z      0.145000
     50 H22        14.2810   14.1810   -0.3890 h4        1 10Z      0.030100
     51 H23        13.3500   12.9910    3.4830 h4        1 10Z      0.030100
     52 H24        11.6080   11.3580    2.6630 ha        1 10Z      0.145000
     53 H252        3.5700    1.7940    1.1820 hn        1 10Z      0.455800
@<TRIPOS>BOND
     1    1    2 1   
     2    1   30 1   
     3    1   31 1   
     4    1   32 1   
     5    2    3 1   
     6    3    4 1   
     7    3   33 1   
     8    3   34 1   
     9    4    5 1   
    10    4   35 1   
    11    4   36 1   
    12    5    6 1   
    13    5   37 1   
    14    5   53 1   
    15    6    7 1   
    16    6   38 1   
    17    6   39 1   
    18    7    8 ar  
    19    7   12 ar  
    20    8    9 ar  
    21    8   40 1   
    22    9   10 ar  
    23    9   41 1   
    24   10   11 ar  
    25   10   13 1   
    26   11   12 ar  
    27   11   42 1   
    28   12   43 1   
    29   13   14 1   
    30   13   44 1   
    31   14   15 ar  
    32   14   23 ar  
    33   15   16 ar  
    34   16   17 ar  
    35   16   21 ar  
    36   17   18 ar  
    37   17   45 1   
    38   18   19 ar  
    39   18   46 1   
    40   19   20 ar  
    41   19   24 1   
    42   20   21 ar  
    43   20   47 1   
    44   21   22 ar  
    45   22   23 ar  
    46   22   48 1   
    47   24   25 ar  
    48   24   29 ar  
    49   25   26 ar  
    50   25   49 1   
    51   26   27 ar  
    52   26   50 1   
    53   27   28 ar  
    54   28   29 ar  
    55   28   51 1   
    56   29   52 1   
@<TRIPOS>SUBSTRUCTURE
     1 10Z         1 TEMP              0 ****  ****    0 ROOT
