@<TRIPOS>MOLECULE
10Z
   53    56     1     0     0
SMALL
bcc


@<TRIPOS>ATOM
      1 C29        -0.1660   -0.1500   -0.1040 c3        1 10Z      0.118700
      2 O28         1.2320    0.1170   -0.0330 os        1 10Z     -0.460600
      3 C27         1.8220   -0.3150    1.1860 c3        1 10Z      0.102400
      4 C26         3.3400   -0.2680    0.9790 c3        1 10Z      0.098800
      5 N25         3.8050    1.0580    0.4880 ny        1 10Z     -0.765000
      6 C24         5.2850    1.0810    0.2120 c3        1 10Z      0.191100
      7 C18         5.7120    2.4300   -0.2300 ca        1 10Z     -0.252300
      8 C20         6.1510    3.3760    0.7050 ca        1 10Z     -0.062000
      9 C22         6.5900    4.6270    0.3030 ca        1 10Z     -0.174000
     10 C23         6.6230    4.9690   -1.0740 ca        1 10Z      0.248600
     11 C21         6.1630    4.0020   -2.0130 ca        1 10Z     -0.174000
     12 C19         5.7200    2.7600   -1.5910 ca        1 10Z     -0.062000
     13 N17         7.0010    6.2160   -1.5480 nu        1 10Z     -0.731300
     14 C8          7.9700    7.0770   -0.9770 ca        1 10Z      0.862900
     15 N10         8.0670    8.3110   -1.5380 nb        1 10Z     -0.719000
     16 C12         9.0150    9.1620   -1.0130 ca        1 10Z      0.449600
     17 C14         9.1800   10.4800   -1.5460 ca        1 10Z     -0.182300
     18 C13        10.1300   11.3190   -1.0220 ca        1 10Z     -0.078000
     19 C15        10.9690   10.9160    0.0550 cp        1 10Z     -0.038000
     20 C16        10.8260    9.6490    0.5900 ca        1 10Z     -0.072000
     21 C11         9.8590    8.7630    0.0690 ca        1 10Z     -0.292600
     22 C9          9.6600    7.4350    0.5720 ca        1 10Z      0.490200
     23 N7          8.7590    6.5980    0.0920 nb        1 10Z     -0.729000
     24 C2         11.9680   11.8440    0.5780 cp        1 10Z     -0.013000
     25 C4         12.7200   12.6550   -0.2850 ca        1 10Z     -0.235800
     26 C6         13.6710   13.5290    0.2700 ca        1 10Z      0.399700
     27 N5         13.9040   13.6360    1.5920 nb        1 10Z     -0.650000
     28 C3         13.1750   12.8540    2.4110 ca        1 10Z      0.399700
     29 C1         12.2020   11.9460    1.9580 ca        1 10Z     -0.235800
     30 H1         -0.4660    0.2570   -1.1030 h1        1 10Z      0.057367
     31 H2         -0.3520   -1.2510   -0.0520 h1        1 10Z      0.057367
     32 H3         -0.7040    0.3790    0.7200 h1        1 10Z      0.057367
     33 H4          1.4980    0.3620    2.0210 h1        1 10Z      0.071700
     34 H5          1.5280   -1.3720    1.4260 h1        1 10Z      0.071700
     35 H6          3.8560   -0.4970    1.9540 hx        1 10Z      0.109200
     36 H7          3.6370   -1.0400    0.2120 hx        1 10Z      0.109200
     37 H8          3.5790    1.7820    1.1770 hn        1 10Z      0.455800
     38 H10         5.4910    0.3060   -0.5820 hx        1 10Z      0.101200
     39 H11         5.8100    0.7780    1.1630 hx        1 10Z      0.101200
     40 H12         6.1570    3.1280    1.7780 ha        1 10Z      0.135000
     41 H13         6.9090    5.3480    1.0730 ha        1 10Z      0.165000
     42 H14         6.1660    4.2300   -3.0910 ha        1 10Z      0.165000
     43 H15         5.3920    2.0220   -2.3410 ha        1 10Z      0.135000
     44 H16         6.7280    6.4410   -2.4840 hn        1 10Z      0.466800
     45 H17         8.5350   10.8080   -2.3770 ha        1 10Z      0.162000
     46 H18        10.2530   12.3350   -1.4310 ha        1 10Z      0.153000
     47 H19        11.4670    9.3140    1.4210 ha        1 10Z      0.147000
     48 H20        10.2860    7.0600    1.4060 h4        1 10Z      0.038100
     49 H21        12.5790   12.6070   -1.3730 ha        1 10Z      0.145000
     50 H22        14.2840   14.1810   -0.3800 h4        1 10Z      0.030100
     51 H23        13.3840   12.9630    3.4910 h4        1 10Z      0.030100
     52 H24        11.6330   11.3390    2.6740 ha        1 10Z      0.145000
     53 H252        3.2920    1.2870   -0.3760 hn        1 10Z      0.455800
@<TRIPOS>BOND
     1    1    2 1   
     2    1   30 1   
     3    1   31 1   
     4    1   32 1   
     5    2    3 1   
     6    3    4 1   
     7    3   33 1   
     8    3   34 1   
     9    4    5 1   
    10    4   35 1   
    11    4   36 1   
    12    5    6 1   
    13    5   37 1   
    14    5   53 1   
    15    6    7 1   
    16    6   38 1   
    17    6   39 1   
    18    7    8 ar  
    19    7   12 ar  
    20    8    9 ar  
    21    8   40 1   
    22    9   10 ar  
    23    9   41 1   
    24   10   11 ar  
    25   10   13 1   
    26   11   12 ar  
    27   11   42 1   
    28   12   43 1   
    29   13   14 1   
    30   13   44 1   
    31   14   15 ar  
    32   14   23 ar  
    33   15   16 ar  
    34   16   17 ar  
    35   16   21 ar  
    36   17   18 ar  
    37   17   45 1   
    38   18   19 ar  
    39   18   46 1   
    40   19   20 ar  
    41   19   24 1   
    42   20   21 ar  
    43   20   47 1   
    44   21   22 ar  
    45   22   23 ar  
    46   22   48 1   
    47   24   25 ar  
    48   24   29 ar  
    49   25   26 ar  
    50   25   49 1   
    51   26   27 ar  
    52   26   50 1   
    53   27   28 ar  
    54   28   29 ar  
    55   28   51 1   
    56   29   52 1   
@<TRIPOS>SUBSTRUCTURE
     1 10Z         1 TEMP              0 ****  ****    0 ROOT
