@<TRIPOS>MOLECULE
10Z
   54    57     1     0     0
SMALL
bcc


@<TRIPOS>ATOM
      1 C29         2.5100   -2.1380   -0.3550 c3        1 10Z      0.118700
      2 O28         2.8650   -0.8150    0.0460 os        1 10Z     -0.475600
      3 C27         2.0030   -0.2780    1.0400 c3        1 10Z      0.102400
      4 C26         2.7570    0.8870    1.6950 c3        1 10Z      0.099800
      5 N25         3.2910    1.8450    0.6760 n4        1 10Z     -0.760000
      6 C24         4.1210    2.9200    1.2980 c3        1 10Z      0.155100
      7 C18         4.7200    3.8460    0.2860 ca        1 10Z     -0.128300
      8 C20         4.2140    5.1420    0.1410 ca        1 10Z     -0.086500
      9 C22         4.8170    6.0410   -0.7390 ca        1 10Z     -0.082000
     10 C23         5.9330    5.6280   -1.4860 ca        1 10Z      0.004600
     11 C21         6.4500    4.3270   -1.3440 ca        1 10Z     -0.082000
     12 C19         5.8350    3.4450   -0.4580 ca        1 10Z     -0.086500
     13 N17         6.5660    6.5630   -2.4230 n4        1 10Z     -0.614100
     14 C8          7.7710    7.2250   -1.8140 ca        1 10Z      0.672900
     15 N10         7.6170    8.4940   -1.4100 nb        1 10Z     -0.628000
     16 C12         8.7460    9.1010   -0.8920 ca        1 10Z      0.400600
     17 C14         8.7050   10.4570   -0.4530 ca        1 10Z     -0.153300
     18 C13         9.8440   11.0480    0.0450 ca        1 10Z     -0.073000
     19 C15        11.0720   10.3400    0.1400 cp        1 10Z      0.037000
     20 C16        11.1310    9.0160   -0.2770 ca        1 10Z     -0.097000
     21 C11         9.9870    8.3830   -0.7940 ca        1 10Z     -0.231600
     22 C9          9.9880    7.0210   -1.2520 ca        1 10Z      0.503200
     23 N7          8.9170    6.4230   -1.7530 nb        1 10Z     -0.701000
     24 C2         12.2550   11.0100    0.6720 cp        1 10Z     -0.053000
     25 C4         12.5270   12.3480    0.3510 ca        1 10Z     -0.226800
     26 C6         13.6830   12.9450    0.8860 ca        1 10Z      0.410200
     27 N5         14.5450   12.3030    1.6970 nb        1 10Z     -0.625000
     28 C3         14.2720   11.0200    2.0010 ca        1 10Z      0.410200
     29 C1         13.1470   10.3290    1.5140 ca        1 10Z     -0.226800
     30 H1          3.2670   -2.3910   -1.1400 h1        1 10Z      0.064033
     31 H2          1.4760   -2.1470   -0.7790 h1        1 10Z      0.064033
     32 H3          2.5880   -2.8380    0.5130 h1        1 10Z      0.064033
     33 H4          1.7700   -1.0360    1.8370 h1        1 10Z      0.083200
     34 H5          1.0490    0.0660    0.5590 h1        1 10Z      0.083200
     35 H6          2.0640    1.4420    2.3880 hx        1 10Z      0.116200
     36 H7          3.6330    0.4850    2.2800 hx        1 10Z      0.116200
     37 H8          2.5080    2.2600    0.1590 hn        1 10Z      0.462300
     38 H10         3.4630    3.4900    2.0200 hx        1 10Z      0.122200
     39 H11         4.9450    2.4210    1.8920 hx        1 10Z      0.122200
     40 H12         3.3450    5.4780    0.7330 ha        1 10Z      0.171500
     41 H13         4.4110    7.0660   -0.8240 ha        1 10Z      0.187500
     42 H14         7.3440    3.9990   -1.9070 ha        1 10Z      0.187500
     43 H15         6.2570    2.4320   -0.3360 ha        1 10Z      0.171500
     44 H16         5.8870    7.2900   -2.6990 hn        1 10Z      0.483800
     45 H17         7.7610   11.0250   -0.5180 ha        1 10Z      0.175000
     46 H18         9.8110   12.0990    0.3870 ha        1 10Z      0.177000
     47 H19        12.0790    8.4560   -0.2150 ha        1 10Z      0.170000
     48 H20        10.9150    6.4120   -1.2020 h4        1 10Z      0.069100
     49 H21        11.8670   12.9230   -0.3130 ha        1 10Z      0.146500
     50 H22        13.9350   13.9980    0.6520 h4        1 10Z      0.043600
     51 H23        14.9960   10.5200    2.6710 h4        1 10Z      0.043600
     52 H24        12.9730    9.2850    1.8040 ha        1 10Z      0.146500
     53 H252        3.8580    1.3080    0.0010 hn        1 10Z      0.462300
     54 H172        6.8750    6.0500   -3.2630 hn        1 10Z      0.483800
@<TRIPOS>BOND
     1    1    2 1   
     2    1   30 1   
     3    1   31 1   
     4    1   32 1   
     5    2    3 1   
     6    3    4 1   
     7    3   33 1   
     8    3   34 1   
     9    4    5 1   
    10    4   35 1   
    11    4   36 1   
    12    5    6 1   
    13    5   37 1   
    14    5   53 1   
    15    6    7 1   
    16    6   38 1   
    17    6   39 1   
    18    7    8 ar  
    19    7   12 ar  
    20    8    9 ar  
    21    8   40 1   
    22    9   10 ar  
    23    9   41 1   
    24   10   11 ar  
    25   10   13 1   
    26   11   12 ar  
    27   11   42 1   
    28   12   43 1   
    29   13   14 1   
    30   13   44 1   
    31   13   54 1   
    32   14   15 ar  
    33   14   23 ar  
    34   15   16 ar  
    35   16   17 ar  
    36   16   21 ar  
    37   17   18 ar  
    38   17   45 1   
    39   18   19 ar  
    40   18   46 1   
    41   19   20 ar  
    42   19   24 1   
    43   20   21 ar  
    44   20   47 1   
    45   21   22 ar  
    46   22   23 ar  
    47   22   48 1   
    48   24   25 ar  
    49   24   29 ar  
    50   25   26 ar  
    51   25   49 1   
    52   26   27 ar  
    53   26   50 1   
    54   27   28 ar  
    55   28   29 ar  
    56   28   51 1   
    57   29   52 1   
@<TRIPOS>SUBSTRUCTURE
     1 10Z         1 TEMP              0 ****  ****    0 ROOT
