@<TRIPOS>MOLECULE
10Z
   52    47     1     0     0
SMALL
bcc


@<TRIPOS>ATOM
      1 C29        -6.1800    2.0720   -6.7970 c3        1 10Z     -0.072000
      2 O28        -6.1290    2.3530   -5.4060 os        1 10Z     -0.281000
      3 C27        -6.2580    1.2080   -4.5860 c3        1 10Z     -0.025000
      4 C26        -5.9820    1.5920   -3.1220 c3        1 10Z     -0.080000
      5 N25        -5.5850    0.4110   -2.3800 n3        1 10Z     -0.303000
      6 C24        -5.4970    0.7330   -0.9680 c3        1 10Z     -0.034000
      7 C18        -4.0680    0.4140   -0.4520 c2        1 10Z     -0.095000
      8 C20        -2.9620    0.7130   -1.2390 c1        1 10Z     -0.097000
      9 C22        -1.6830    0.3440   -0.8160 c1        1 10Z     -0.167000
     10 C23        -1.5140   -0.3240    0.3940 c1        1 10Z      0.045000
     11 C21        -2.6190   -0.6240    1.1820 c1        1 10Z     -0.107000
     12 C19        -3.8990   -0.2550    0.7600 c2        1 10Z     -0.117000
     13 N17        -0.1880   -0.7910    0.7910 n3        1 10Z     -0.225000
     14 C8          0.6670    0.0560    1.6000 c2        1 10Z      0.155000
     15 N10         1.7640   -0.1010    0.7960 n2        1 10Z     -0.229000
     16 C12         3.0200   -0.1080    1.3430 c1        1 10Z      0.072000
     17 C14         4.1540   -0.2720    0.5140 c1        1 10Z     -0.104500
     18 C13         5.4280   -0.2810    1.0710 c1        1 10Z     -0.104500
     19 C15         5.5870   -0.1300    2.4410 c1        1 10Z     -0.070000
     20 C16         4.4760    0.0310    3.2550 c1        1 10Z     -0.058000
     21 C11         3.1760    0.0410    2.6870 c1        1 10Z     -0.185000
     22 C9          2.0620    0.1990    3.5000 c1        1 10Z      0.019000
     23 N7          0.8230    0.2060    2.9560 n1        1 10Z     -0.186000
     24 C2          6.6530   -1.0800    2.9890 c2        1 10Z      0.005000
     25 C4          7.5950   -0.6160    3.8640 c2        1 10Z     -0.175000
     26 C6          8.6420   -1.4390    4.2560 c1        1 10Z     -0.070000
     27 N5          8.7310   -2.7090    3.7680 n1        1 10Z     -0.136000
     28 C3          7.7920   -3.1730    2.8950 c1        1 10Z     -0.070000
     29 C1          6.7440   -2.3530    2.5010 c1        1 10Z     -0.173000
     30 H1         -5.5490    1.3470   -7.0090 h1        1 10Z      0.072667
     31 H2         -7.0930    1.7960   -7.0430 h1        1 10Z      0.072667
     32 H3         -5.9340    2.8780   -7.3030 h1        1 10Z      0.072667
     33 H4         -7.1660    0.8510   -4.6640 h1        1 10Z      0.072000
     34 H5         -5.6140    0.5270   -4.8720 h1        1 10Z      0.072000
     35 H6         -6.7960    1.9700   -2.7240 h1        1 10Z      0.083500
     36 H7         -5.2650    2.2530   -3.0890 h1        1 10Z      0.083500
     37 H8         -6.2080   -0.2520   -2.5030 hn        1 10Z      0.155000
     38 H10        -6.1530    0.1980   -0.4690 h1        1 10Z      0.080000
     39 H11        -5.6860    1.6840   -0.8390 h1        1 10Z      0.080000
     40 H12        -3.0790    1.1810   -2.0860 ha        1 10Z      0.149000
     41 H13        -0.9080    0.5540   -1.3680 ha        1 10Z      0.134000
     42 H14        -2.5010   -1.0920    2.0300 ha        1 10Z      0.153000
     43 H15        -4.6730   -0.4660    1.3130 ha        1 10Z      0.135000
     44 H16         0.0820   -1.6380    0.5750 hn        1 10Z      0.235000
     45 H17         4.0430   -0.3780   -0.4480 ha        1 10Z      0.148500
     46 H18         6.2090   -0.3940    0.4990 ha        1 10Z      0.148500
     47 H19         4.5870    0.1380    4.2180 ha        1 10Z      0.139000
     48 H20         2.1730    0.3060    4.4670 ha        1 10Z      0.167000
     49 H21         7.5310    0.2940    4.2140 ha        1 10Z      0.145000
     50 H22         9.3160   -1.1080    4.8820 ha        1 10Z      0.160000
     51 H23         7.8580   -4.0840    2.5460 ha        1 10Z      0.161000
     52 H24         6.0730   -2.6860    1.8770 ha        1 10Z      0.146000
@<TRIPOS>BOND
     1    1    2 1   
     2    1   30 1   
     3    1   31 1   
     4    1   32 1   
     5    2    3 1   
     6    3    4 1   
     7    3   33 1   
     8    3   34 1   
     9    4    5 1   
    10    4   35 1   
    11    4   36 1   
    12    5    6 1   
    13    5   37 1   
    14    6    7 1   
    15    6   38 1   
    16    6   39 1   
    17    7    8 1   
    18    7   12 1   
    19    8   40 1   
    20    9   10 1   
    21    9   41 1   
    22   10   13 1   
    23   11   12 1   
    24   11   42 1   
    25   12   43 1   
    26   13   14 1   
    27   13   44 1   
    28   14   15 1   
    29   14   23 1   
    30   15   16 1   
    31   16   21 1   
    32   17   18 1   
    33   17   45 1   
    34   18   46 1   
    35   19   20 1   
    36   19   24 1   
    37   20   47 1   
    38   21   22 1   
    39   22   48 1   
    40   24   25 1   
    41   24   29 1   
    42   25   26 1   
    43   25   49 1   
    44   26   50 1   
    45   27   28 1   
    46   28   51 1   
    47   29   52 1   
@<TRIPOS>SUBSTRUCTURE
     1 10Z         1 TEMP              0 ****  ****    0 ROOT
