@<TRIPOS>MOLECULE
10Z
   52    55     1     0     0
SMALL
bcc


@<TRIPOS>ATOM
      1 C29         9.4600    1.1230    2.2650 c3        1 10Z      0.116700
      2 O28         8.9420    0.4740    1.1170 os        1 10Z     -0.425600
      3 C27         8.7690    1.3610    0.0150 c3        1 10Z      0.084400
      4 C26         8.2300    0.5220   -1.1510 c3        1 10Z      0.165800
      5 N25         6.9520   -0.1200   -0.9670 n3        1 10Z     -0.817200
      6 C24         5.8160    0.7840   -1.0020 c3        1 10Z      0.206100
      7 C18         4.5260    0.1350   -0.5970 ca        1 10Z     -0.097300
      8 C20         3.6960    0.7520    0.3430 ca        1 10Z     -0.107000
      9 C22         2.4790    0.1830    0.7060 ca        1 10Z     -0.135500
     10 C23         2.0640   -1.0290    0.1200 ca        1 10Z      0.124600
     11 C21         2.9080   -1.6520   -0.8280 ca        1 10Z     -0.135500
     12 C19         4.1230   -1.0730   -1.1740 ca        1 10Z     -0.107000
     13 N17         0.8700   -1.6730    0.5270 nh        1 10Z     -0.703300
     14 C8         -0.3960   -1.0800    0.3400 ca        1 10Z      0.874900
     15 N10        -1.4760   -1.9150    0.3760 nb        1 10Z     -0.756000
     16 C12        -2.7180   -1.3340    0.3000 ca        1 10Z      0.466600
     17 C14        -3.9020   -2.1410    0.3490 ca        1 10Z     -0.190300
     18 C13        -5.1390   -1.5560    0.2630 ca        1 10Z     -0.084000
     19 C15        -5.2920   -0.1480    0.1290 cp        1 10Z     -0.071000
     20 C16        -4.1670    0.6530    0.0830 ca        1 10Z     -0.058000
     21 C11        -2.8810    0.0800    0.1630 ca        1 10Z     -0.316600
     22 C9         -1.6710    0.8500    0.1100 ca        1 10Z      0.484200
     23 N7         -0.4650    0.3280    0.1900 nb        1 10Z     -0.712000
     24 C2         -6.6300    0.4290    0.0430 cp        1 10Z      0.005000
     25 C4         -7.6430   -0.2030   -0.6950 ca        1 10Z     -0.239800
     26 C6         -8.9130    0.3960   -0.7490 ca        1 10Z      0.394200
     27 N5         -9.2220    1.5510   -0.1280 nb        1 10Z     -0.663000
     28 C3         -8.2420    2.1480    0.5780 ca        1 10Z      0.394200
     29 C1         -6.9390    1.6330    0.6930 ca        1 10Z     -0.239800
     30 H1          9.5400    0.3130    3.0320 h1        1 10Z      0.033033
     31 H2         10.4660    1.5610    2.0510 h1        1 10Z      0.033033
     32 H3          8.7630    1.9260    2.6140 h1        1 10Z      0.033033
     33 H4          8.0600    2.1830    0.3010 h1        1 10Z      0.029700
     34 H5          9.7570    1.8130   -0.2660 h1        1 10Z      0.029700
     35 H6          8.1780    1.1950   -2.0520 h1        1 10Z      0.060700
     36 H7          8.9730   -0.3000   -1.3590 h1        1 10Z      0.060700
     37 H8          6.9520   -0.6580   -0.1190 hn        1 10Z      0.377800
     38 H10         5.9810    1.7000   -0.3580 h1        1 10Z      0.035700
     39 H11         5.7110    1.1450   -2.0670 h1        1 10Z      0.035700
     40 H12         4.0050    1.7000    0.8100 ha        1 10Z      0.141500
     41 H13         1.8490    0.6890    1.4540 ha        1 10Z      0.143000
     42 H14         2.6130   -2.6030   -1.2980 ha        1 10Z      0.143000
     43 H15         4.7720   -1.5690   -1.9130 ha        1 10Z      0.141500
     44 H16         0.8820   -2.6670    0.4070 hn        1 10Z      0.439800
     45 H17        -3.8000   -3.2320    0.4580 ha        1 10Z      0.156000
     46 H18        -6.0460   -2.1810    0.3060 ha        1 10Z      0.141000
     47 H19        -4.2580    1.7450   -0.0250 ha        1 10Z      0.139000
     48 H20        -1.7250    1.9490   -0.0100 h4        1 10Z      0.029100
     49 H21        -7.4490   -1.1430   -1.2280 ha        1 10Z      0.145500
     50 H22        -9.7320   -0.0740   -1.3220 h4        1 10Z      0.023100
     51 H23        -8.5190    3.0930    1.0790 h4        1 10Z      0.023100
     52 H24        -6.1840    2.1610    1.2890 ha        1 10Z      0.145500
@<TRIPOS>BOND
     1    1    2 1   
     2    1   30 1   
     3    1   31 1   
     4    1   32 1   
     5    2    3 1   
     6    3    4 1   
     7    3   33 1   
     8    3   34 1   
     9    4    5 1   
    10    4   35 1   
    11    4   36 1   
    12    5    6 1   
    13    5   37 1   
    14    6    7 1   
    15    6   38 1   
    16    6   39 1   
    17    7    8 ar  
    18    7   12 ar  
    19    8    9 ar  
    20    8   40 1   
    21    9   10 ar  
    22    9   41 1   
    23   10   11 ar  
    24   10   13 1   
    25   11   12 ar  
    26   11   42 1   
    27   12   43 1   
    28   13   14 1   
    29   13   44 1   
    30   14   15 ar  
    31   14   23 ar  
    32   15   16 ar  
    33   16   17 ar  
    34   16   21 ar  
    35   17   18 ar  
    36   17   45 1   
    37   18   19 ar  
    38   18   46 1   
    39   19   20 ar  
    40   19   24 1   
    41   20   21 ar  
    42   20   47 1   
    43   21   22 ar  
    44   22   23 ar  
    45   22   48 1   
    46   24   25 ar  
    47   24   29 ar  
    48   25   26 ar  
    49   25   49 1   
    50   26   27 ar  
    51   26   50 1   
    52   27   28 ar  
    53   28   29 ar  
    54   28   51 1   
    55   29   52 1   
@<TRIPOS>SUBSTRUCTURE
     1 10Z         1 TEMP              0 ****  ****    0 ROOT
