@<TRIPOS>MOLECULE
110
   78    72     1     0     0
SMALL
bcc


@<TRIPOS>ATOM
      1 N1          0.8230   -1.5110   -0.5260 n         1 110     -0.349000
      2 C1          2.2600   -1.4990   -0.6310 c3        1 110      0.040000
      3 O3          4.9250   -3.6060   -2.4110 os        1 110     -0.295000
      4 C10         6.1130   -3.9390   -1.6830 c3        1 110     -0.007000
      5 C11         6.1160   -5.4810   -1.3590 c3        1 110     -0.163000
      6 C9          4.1920   -2.4940   -1.8570 c2        1 110      0.269000
      7 O2          4.6980   -1.3920   -1.8280 o         1 110     -0.337000
      8 C14         0.0350   -0.4710   -1.1730 c2        1 110      0.371000
      9 O4          0.6020    0.4370   -1.7890 o         1 110     -0.354000
     10 C17        -3.6700   -1.0630   -0.6410 c1        1 110     -0.161000
     11 C18        -3.6260    0.3280   -0.6470 c1        1 110     -0.075000
     12 N3         -2.2820    0.7220   -0.8500 n2        1 110     -0.159000
     13 C15        -1.5120   -0.4230   -0.9670 c2        1 110     -0.087000
     14 C16        -2.3660   -1.5370   -0.8390 c1        1 110     -0.114000
     15 C21        -3.0130    3.0840   -0.3050 c3        1 110     -0.034000
     16 C20        -1.9580    2.1640   -0.7670 c1        1 110      0.320000
     17 S1         -5.3780    3.8350   -1.2250 ss        1 110      2.796000
     18 O6         -6.4780    3.2490   -1.9130 o         1 110     -0.911500
     19 O7         -4.8370    4.7010   -2.2470 o         1 110     -0.911500
     20 C24        -8.4680    4.9380    0.2530 c1        1 110     -0.118500
     21 C23        -7.2500    5.4940   -0.1440 c1        1 110     -0.077000
     22 C22        -5.9240    4.7700    0.1920 c2        1 110     -0.793000
     23 C26        -7.2270    6.7350   -0.7900 c1        1 110     -0.119000
     24 C27        -8.4170    7.4140   -1.0360 c1        1 110     -0.118500
     25 C28        -9.6360    6.8560   -0.6370 c1        1 110     -0.118500
     26 C29        -9.6600    5.6200    0.0060 c1        1 110     -0.118500
     27 O5         -0.8090    2.5260   -0.7880 o         1 110     -0.314000
     28 C19        -4.6830    1.4230   -0.5300 c2        1 110      0.035000
     29 N4         -4.2800    2.6910   -0.7660 n2        1 110     -0.834000
     30 C12         6.8950   -5.7290   -0.0600 c3        1 110     -0.156000
     31 C13         6.0270   -6.5330    0.9110 c3        1 110     -0.214000
     32 C2          2.8850   -1.6150    0.7840 c3        1 110     -0.109000
     33 C4          4.2930   -1.0590    0.7470 c3        1 110     -0.161500
     34 C5          4.9260   -0.9650    2.1510 c3        1 110     -0.171000
     35 C6          4.0330   -0.2260    3.1480 c3        1 110     -0.032000
     36 N2          3.9760    1.1690    2.7800 n3        1 110     -0.339000
     37 C7          2.6220   -0.7830    3.1850 c3        1 110     -0.171000
     38 C8          1.9890   -0.8760    1.7850 c3        1 110     -0.161500
     39 C3          2.7130   -2.6660   -1.4880 c3        1 110      0.035000
     40 O1          2.5480   -3.8500   -0.7840 oh        1 110     -0.312000
     41 HN1         0.4110   -2.1640   -0.0560 hn        1 110      0.241000
     42 H1          2.5500   -0.6580   -1.0480 h1        1 110      0.147000
     43 H101        6.9140   -3.7140   -2.2320 h1        1 110      0.093500
     44 H102        6.1380   -3.4250   -0.8390 h1        1 110      0.093500
     45 H111        6.5500   -5.9770   -2.1050 hc        1 110      0.094000
     46 H112        5.1830   -5.7980   -1.2490 hc        1 110      0.094000
     47 H17        -4.4740   -1.6150   -0.5200 DU        1 110      0.173000
     48 H16        -2.1070   -2.4590   -0.9140 DU        1 110      0.173000
     49 H211       -2.8180    4.0410   -0.4320 h1        1 110      0.136000
     50 H212       -3.0410    2.9660    0.6720 h1        1 110      0.136000
     51 H24        -8.4860    4.0890    0.6960 ha        1 110      0.136000
     52 H221       -6.0660    4.1630    0.9470 ha        1 110      0.153500
     53 H222       -5.2380    5.4350    0.4310 ha        1 110      0.153500
     54 H26        -6.3910    7.1170   -1.0620 ha        1 110      0.152000
     55 H27        -8.4010    8.2780   -1.4860 ha        1 110      0.136000
     56 H28       -10.4510    7.3210   -0.8060 ha        1 110      0.136000
     57 H29       -10.5140    5.2300    0.2850 ha        1 110      0.136000
     58 H191       -5.4080    1.2130   -1.1650 h4        1 110      0.119000
     59 H192       -5.0540    1.3880    0.3760 h4        1 110      0.119000
     60 H121        7.1310   -4.8640    0.3500 hc        1 110      0.080000
     61 H122        7.7120   -6.2300   -0.2590 hc        1 110      0.080000
     62 H131        5.1080   -6.1900    0.8900 hc        1 110      0.076000
     63 H132        6.3870   -6.4480    1.8190 hc        1 110      0.076000
     64 H133        6.0280   -7.4850    0.6430 hc        1 110      0.076000
     65 H2          2.9260   -2.5610    1.0340 hc        1 110      0.101000
     66 H41         4.8480   -1.6400    0.1880 hc        1 110      0.092000
     67 H42         4.2700   -0.1720    0.3540 hc        1 110      0.092000
     68 H51         5.0900   -1.8650    2.4840 hc        1 110      0.083500
     69 H52         5.7880   -0.4890    2.0820 hc        1 110      0.083500
     70 H6          4.4330   -0.3030    4.0560 h1        1 110      0.090000
     71 HD21        3.1580    1.3560    2.4280 hn        1 110      0.145000
     72 HD22        4.6120    1.3440    2.1690 hn        1 110      0.145000
     73 H71         2.0670   -0.2020    3.7450 hc        1 110      0.083500
     74 H72         2.6440   -1.6670    3.5790 hc        1 110      0.083500
     75 H81         1.1430   -1.3440    1.8550 hc        1 110      0.092000
     76 H82         1.8210    0.0410    1.4480 hc        1 110      0.092000
     77 H3          2.1700   -2.6970   -2.3140 h1        1 110      0.113000
     78 HO1         2.1690   -4.4540   -1.3060 ho        1 110      0.221000
@<TRIPOS>BOND
     1    1    2 1   
     2    1    8 1   
     3    1   41 1   
     4    2   32 1   
     5    2   39 1   
     6    2   42 1   
     7    3    4 1   
     8    3    6 1   
     9    4    5 1   
    10    4   43 1   
    11    4   44 1   
    12    5   30 1   
    13    5   45 1   
    14    5   46 1   
    15    6    7 1   
    16    6   39 1   
    17    8    9 1   
    18    8   13 1   
    19   10   11 1   
    20   10   14 1   
    21   11   12 1   
    22   12   13 1   
    23   13   14 1   
    24   15   16 1   
    25   15   29 1   
    26   15   49 1   
    27   15   50 1   
    28   16   27 1   
    29   17   18 1   
    30   17   19 1   
    31   20   26 1   
    32   20   51 1   
    33   21   22 1   
    34   21   23 1   
    35   22   52 1   
    36   22   53 1   
    37   23   54 1   
    38   24   25 1   
    39   24   55 1   
    40   25   56 1   
    41   26   57 1   
    42   28   29 1   
    43   28   58 1   
    44   28   59 1   
    45   30   31 1   
    46   30   60 1   
    47   30   61 1   
    48   31   62 1   
    49   31   63 1   
    50   31   64 1   
    51   32   33 1   
    52   32   38 1   
    53   32   65 1   
    54   33   34 1   
    55   33   66 1   
    56   33   67 1   
    57   34   35 1   
    58   34   68 1   
    59   34   69 1   
    60   35   36 1   
    61   35   37 1   
    62   35   70 1   
    63   36   71 1   
    64   36   72 1   
    65   37   38 1   
    66   37   73 1   
    67   37   74 1   
    68   38   75 1   
    69   38   76 1   
    70   39   40 1   
    71   39   77 1   
    72   40   78 1   
@<TRIPOS>SUBSTRUCTURE
     1 110         1 TEMP              0 ****  ****    0 ROOT
