@<TRIPOS>MOLECULE
110
   80    83     1     0     0
SMALL
bcc


@<TRIPOS>ATOM
      1 N1         -0.3030   -0.3080   -0.5940 n4        1 110     -0.672800
      2 C1          1.1240   -0.3210   -0.1300 c3        1 110      0.101500
      3 O3          0.5520   -2.3210   -2.3920 os        1 110     -0.495900
      4 C10         0.5190   -2.8030   -3.7650 c3        1 110      0.140400
      5 C11        -0.9460   -3.0090   -4.0910 c3        1 110     -0.084400
      6 C9          1.7810   -2.0700   -1.8670 c         1 110      0.574100
      7 O2          2.7860   -2.1310   -2.5670 o         1 110     -0.455000
      8 C14        -0.9740    1.0530   -0.5950 c         1 110      0.619700
      9 O4         -0.2900    2.0280   -0.3080 o         1 110     -0.460100
     10 C17        -4.3690    0.7770   -2.0490 cc        1 110     -0.169000
     11 C18        -4.5320    1.7480   -1.0460 cd        1 110      0.009400
     12 N3         -3.3200    1.8910   -0.3440 n         1 110     -0.055200
     13 C15        -2.3780    1.0080   -0.9320 cd        1 110     -0.278900
     14 C16        -3.0220    0.3070   -1.9750 cc        1 110     -0.037000
     15 C21        -4.4990    3.4680    1.2050 c3        1 110      0.164800
     16 C20        -3.2370    2.6690    0.8280 c         1 110      0.634300
     17 O6         -5.8210    5.2370   -1.7950 o         1 110     -0.622300
     18 O7         -4.7370    6.1000    0.1910 o         1 110     -0.622300
     19 C24        -8.7930    7.0570   -0.9740 ca        1 110     -0.104000
     20 C23        -7.7660    6.9220   -0.0330 ca        1 110     -0.127300
     21 C22        -7.2510    5.5750    0.3270 c3        1 110     -0.242300
     22 C26        -7.2540    8.0600    0.6050 ca        1 110     -0.104000
     23 C27        -7.7570    9.3210    0.2920 ca        1 110     -0.119000
     24 C28        -8.7770    9.4530   -0.6520 ca        1 110     -0.093000
     25 C29        -9.2930    8.3220   -1.2840 ca        1 110     -0.119000
     26 O5         -2.2130    2.6430    1.5330 o         1 110     -0.681500
     27 C19        -5.7320    2.5710   -0.6720 c3        1 110      0.255100
     28 N4         -5.3900    3.7220    0.1210 n3        1 110     -0.790500
     29 C12        -1.0940   -3.4490   -5.5340 c3        1 110     -0.081400
     30 C13        -2.5420   -3.6710   -5.8880 c3        1 110     -0.097100
     31 C2          1.3480    0.0740    1.3530 c3        1 110     -0.080700
     32 C4          2.1410    1.3790    1.3860 c3        1 110     -0.103400
     33 C5          2.3640    1.8980    2.7880 c3        1 110     -0.102400
     34 C6          1.0610    2.0070    3.5810 c3        1 110      0.123500
     35 N2          0.1620    3.0750    3.0190 n4        1 110     -0.839600
     36 C7          0.3780    0.6390    3.6040 c3        1 110     -0.102400
     37 C8          0.0920    0.1220    2.2090 c3        1 110     -0.103400
     38 C3          1.7590   -1.7290   -0.3880 c3        1 110      0.088100
     39 O1          3.0590   -1.7210    0.1450 oh        1 110     -0.562800
     40 HN1        -0.8580   -0.9310    0.0060 hn        1 110      0.474300
     41 H1          1.6690    0.4280   -0.7860 hx        1 110      0.123700
     42 H101        1.0020   -2.0310   -4.4190 h1        1 110      0.081700
     43 H102        1.1030   -3.7580   -3.8120 h1        1 110      0.081700
     44 H111       -1.3820   -3.7830   -3.4080 hc        1 110      0.042200
     45 H112       -1.5090   -2.0540   -3.9220 hc        1 110      0.042200
     46 H17        -5.1260    0.4550   -2.7660 ha        1 110      0.207000
     47 H16        -2.5730   -0.4330   -2.6390 ha        1 110      0.178000
     48 H211       -5.0040    2.8510    2.0100 h1        1 110      0.115200
     49 H212       -4.1470    4.4450    1.6580 h1        1 110      0.115200
     50 H221       -7.2020    5.5110    1.4500 h1        1 110      0.127700
     51 H222       -8.0160    4.8080    0.0250 h1        1 110      0.127700
     52 H26        -6.4460    7.9600    1.3470 ha        1 110      0.137000
     53 H27        -7.3500   10.2130    0.7930 ha        1 110      0.151000
     54 H28        -9.1760   10.4510   -0.8960 ha        1 110      0.153000
     55 H29       -10.0990    8.4240   -2.0260 ha        1 110      0.151000
     56 H191       -6.2380    2.9060   -1.6300 h1        1 110      0.111200
     57 H192       -6.4460    1.8980   -0.1060 h1        1 110      0.111200
     58 H121       -0.5170   -4.3990   -5.6960 hc        1 110      0.058700
     59 H122       -0.6530   -2.6720   -6.2130 hc        1 110      0.058700
     60 H131       -3.1310   -2.7310   -5.7610 hc        1 110      0.045367
     61 H132       -2.6280   -3.9990   -6.9530 hc        1 110      0.045367
     62 H133       -2.9930   -4.4620   -5.2400 hc        1 110      0.045367
     63 H2          2.0160   -0.7220    1.8100 hc        1 110      0.124700
     64 H41         3.1480    1.1910    0.9190 hc        1 110      0.065700
     65 H42         1.6370    2.1620    0.7600 hc        1 110      0.065700
     66 H51         3.0360    1.1960    3.3560 hc        1 110      0.097450
     67 H52         2.8920    2.8880    2.7440 hc        1 110      0.097450
     68 H6          1.2950    2.3210    4.6460 hx        1 110      0.122700
     69 HD21       -0.7520    3.0510    3.4830 hn        1 110      0.466467
     70 HD22        0.5900    3.9950    3.1480 hn        1 110      0.466467
     71 H71         1.0690   -0.0660    4.1450 hc        1 110      0.097450
     72 H72        -0.5780    0.6780    4.1930 hc        1 110      0.097450
     73 H81        -0.3340   -0.9140    2.3010 hc        1 110      0.065700
     74 H82        -0.7020    0.7770    1.7580 hc        1 110      0.065700
     75 H3          1.1960   -2.5240    0.1820 h1        1 110      0.118700
     76 HO1         3.7090   -1.5950   -0.5700 ho        1 110      0.461000
     77 S1         -5.7300    5.2980   -0.4000 s6        1 110      1.419900
     78 H12        -0.3450   -0.6850   -1.5580 hn        1 110      0.474300
     79 H23         0.0040    2.9160    2.0130 hn        1 110      0.466467
     80 H24        -9.2090    6.1690   -1.4730 ha        1 110      0.137000
@<TRIPOS>BOND
     1    1    2 1   
     2    1    8 1   
     3    1   40 1   
     4    1   78 1   
     5    2   31 1   
     6    2   38 1   
     7    2   41 1   
     8    3    4 1   
     9    3    6 1   
    10    4    5 1   
    11    4   42 1   
    12    4   43 1   
    13    5   29 1   
    14    5   44 1   
    15    5   45 1   
    16    6    7 2   
    17    6   38 1   
    18    8    9 2   
    19    8   13 1   
    20   10   11 2   
    21   10   14 1   
    22   10   46 1   
    23   11   12 1   
    24   11   27 1   
    25   12   13 1   
    26   12   16 1   
    27   13   14 2   
    28   14   47 1   
    29   15   16 1   
    30   15   28 1   
    31   15   48 1   
    32   15   49 1   
    33   16   26 2   
    34   17   77 2   
    35   18   77 2   
    36   19   20 ar  
    37   19   25 ar  
    38   19   80 1   
    39   20   21 1   
    40   20   22 ar  
    41   21   50 1   
    42   21   51 1   
    43   21   77 1   
    44   22   23 ar  
    45   22   52 1   
    46   23   24 ar  
    47   23   53 1   
    48   24   25 ar  
    49   24   54 1   
    50   25   55 1   
    51   27   28 1   
    52   27   56 1   
    53   27   57 1   
    54   28   77 1   
    55   29   30 1   
    56   29   58 1   
    57   29   59 1   
    58   30   60 1   
    59   30   61 1   
    60   30   62 1   
    61   31   32 1   
    62   31   37 1   
    63   31   63 1   
    64   32   33 1   
    65   32   64 1   
    66   32   65 1   
    67   33   34 1   
    68   33   66 1   
    69   33   67 1   
    70   34   35 1   
    71   34   36 1   
    72   34   68 1   
    73   35   69 1   
    74   35   70 1   
    75   35   79 1   
    76   36   37 1   
    77   36   71 1   
    78   36   72 1   
    79   37   73 1   
    80   37   74 1   
    81   38   39 1   
    82   38   75 1   
    83   39   76 1   
@<TRIPOS>SUBSTRUCTURE
     1 110         1 TEMP              0 ****  ****    0 ROOT
