@<TRIPOS>MOLECULE
110
   78    81     1     0     0
SMALL
bcc


@<TRIPOS>ATOM
      1 N1          2.8820    0.4850    0.7310 n         1 110     -0.540900
      2 C1          4.2000   -0.0860    0.8690 c3        1 110      0.073700
      3 O3          4.2740    2.5910   -1.0520 os        1 110     -0.432900
      4 C10         4.0820    4.0180   -1.1010 c3        1 110      0.138400
      5 C11         3.2100    4.2820   -2.3130 c3        1 110     -0.085400
      6 C9          5.0600    2.1220   -0.0440 c         1 110      0.611100
      7 O2          5.5720    2.9170    0.7460 o         1 110     -0.539000
      8 C14         2.1730    0.9290    1.8330 c         1 110      0.697700
      9 O4          2.6870    1.0160    2.9650 o         1 110     -0.581100
     10 C17        -1.0510    2.8000    1.6920 cc        1 110     -0.160000
     11 C18        -1.3750    1.6700    0.9500 cd        1 110     -0.106600
     12 N3         -0.2390    0.8220    0.8730 n         1 110     -0.068200
     13 C15         0.7970    1.4410    1.6080 cd        1 110     -0.130900
     14 C16         0.3220    2.6550    2.1110 cc        1 110     -0.113000
     15 C21        -1.6800   -0.8460   -0.3220 c3        1 110      0.153800
     16 C20        -0.3400   -0.4640    0.3270 c         1 110      0.603300
     17 O6         -4.9440   -0.0550    1.4550 o         1 110     -0.632300
     18 O7         -3.8890   -2.1910    1.0460 o         1 110     -0.632300
     19 C24        -7.5370   -1.0060   -0.9970 ca        1 110     -0.112000
     20 C23        -6.3480   -1.7150   -0.7940 ca        1 110     -0.085300
     21 C22        -5.0370   -1.0320   -0.9180 c3        1 110     -0.246300
     22 C26        -6.4020   -3.0860   -0.5050 ca        1 110     -0.112000
     23 C27        -7.6320   -3.7330   -0.4170 ca        1 110     -0.125500
     24 C28        -8.8150   -3.0220   -0.6200 ca        1 110     -0.116000
     25 C29        -8.7660   -1.6590   -0.9080 ca        1 110     -0.125500
     26 O5          0.6150   -1.2520    0.3040 o         1 110     -0.595500
     27 C19        -2.6600    1.2970    0.2870 c3        1 110      0.279100
     28 N4         -2.8300   -0.1280    0.1400 n3        1 110     -0.814500
     29 C12         2.9580    5.7680   -2.4610 c3        1 110     -0.079400
     30 C13         2.0920    6.0590   -3.6590 c3        1 110     -0.092100
     31 C2          4.2830   -1.6080    0.6190 c3        1 110     -0.080700
     32 C4          3.5880   -2.3640    1.7430 c3        1 110     -0.080400
     33 C5          3.7400   -3.8580    1.5640 c3        1 110     -0.092900
     34 C6          3.1770   -4.3380    0.2140 c3        1 110      0.166500
     35 N2          1.7300   -4.3130    0.1010 n3        1 110     -0.907800
     36 C7          3.8680   -3.5450   -0.9050 c3        1 110     -0.092900
     37 C8          3.7210   -2.0480   -0.7240 c3        1 110     -0.080400
     38 C3          5.2340    0.6170   -0.0620 c3        1 110      0.091100
     39 O1          6.5450    0.2910    0.3480 oh        1 110     -0.578800
     40 HN1         2.3760    0.2330   -0.0870 hn        1 110      0.320500
     41 H1          4.5460    0.0940    1.9360 h1        1 110      0.097700
     42 H101        5.0840    4.5140   -1.1900 h1        1 110      0.054700
     43 H102        3.5910    4.3480   -0.1500 h1        1 110      0.054700
     44 H111        2.2390    3.7340   -2.2030 hc        1 110      0.052700
     45 H112        3.7140    3.8830   -3.2320 hc        1 110      0.052700
     46 H17        -1.7040    3.6370    1.9250 ha        1 110      0.168000
     47 H16         0.8890    3.3560    2.7200 ha        1 110      0.180000
     48 H211       -1.8210   -1.9540   -0.1360 h1        1 110      0.096700
     49 H212       -1.5340   -0.6800   -1.4310 h1        1 110      0.096700
     50 H221       -5.1960   -0.0220   -1.3830 h1        1 110      0.113700
     51 H222       -4.4180   -1.6080   -1.6600 h1        1 110      0.113700
     52 H26        -5.4680   -3.6450   -0.3290 ha        1 110      0.142500
     53 H27        -7.6670   -4.8080   -0.1850 ha        1 110      0.137500
     54 H28        -9.7850   -3.5360   -0.5500 ha        1 110      0.136000
     55 H29        -9.6970   -1.0940   -1.0640 ha        1 110      0.137500
     56 H191       -3.5130    1.7150    0.9020 h1        1 110      0.080200
     57 H192       -2.6840    1.7850   -0.7340 h1        1 110      0.080200
     58 H121        3.9370    6.3060   -2.5630 hc        1 110      0.042700
     59 H122        2.4610    6.1570   -1.5330 hc        1 110      0.042700
     60 H131        2.5820    5.6990   -4.5960 hc        1 110      0.034700
     61 H132        1.1020    5.5510   -3.5640 hc        1 110      0.034700
     62 H133        1.9180    7.1580   -3.7520 hc        1 110      0.034700
     63 H2          5.3830   -1.8610    0.6410 hc        1 110      0.073700
     64 H41         4.0240   -2.0570    2.7290 hc        1 110      0.047450
     65 H42         2.4980   -2.0930    1.7580 hc        1 110      0.047450
     66 H51         4.8260   -4.1330    1.6090 hc        1 110      0.046200
     67 H52         3.2250   -4.3890    2.4060 hc        1 110      0.046200
     68 H6          3.4750   -5.4240    0.0950 h1        1 110      0.053700
     69 HD21        1.3200   -4.7420    0.9080 hn        1 110      0.350800
     70 HD22        1.3950   -3.3700    0.0340 hn        1 110      0.350800
     71 H71         4.9550   -3.8190   -0.8980 hc        1 110      0.046200
     72 H72         3.4480   -3.8430   -1.9010 hc        1 110      0.046200
     73 H81         2.6370   -1.7710   -0.8050 hc        1 110      0.047450
     74 H82         4.2640   -1.5270   -1.5560 hc        1 110      0.047450
     75 H3          5.1540    0.2380   -1.1190 h1        1 110      0.108700
     76 HO1         6.7090    0.7300    1.1960 ho        1 110      0.424000
     77 S1         -4.2140   -0.8970    0.6000 s6        1 110      1.440900
     78 H24        -7.5060    0.0710   -1.2240 ha        1 110      0.142500
@<TRIPOS>BOND
     1    1    2 1   
     2    1    8 1   
     3    1   40 1   
     4    2   31 1   
     5    2   38 1   
     6    2   41 1   
     7    3    4 1   
     8    3    6 1   
     9    4    5 1   
    10    4   42 1   
    11    4   43 1   
    12    5   29 1   
    13    5   44 1   
    14    5   45 1   
    15    6    7 2   
    16    6   38 1   
    17    8    9 2   
    18    8   13 1   
    19   10   11 2   
    20   10   14 1   
    21   10   46 1   
    22   11   12 1   
    23   11   27 1   
    24   12   13 1   
    25   12   16 1   
    26   13   14 2   
    27   14   47 1   
    28   15   16 1   
    29   15   28 1   
    30   15   48 1   
    31   15   49 1   
    32   16   26 2   
    33   17   77 2   
    34   18   77 2   
    35   19   20 ar  
    36   19   25 ar  
    37   19   78 1   
    38   20   21 1   
    39   20   22 ar  
    40   21   50 1   
    41   21   51 1   
    42   21   77 1   
    43   22   23 ar  
    44   22   52 1   
    45   23   24 ar  
    46   23   53 1   
    47   24   25 ar  
    48   24   54 1   
    49   25   55 1   
    50   27   28 1   
    51   27   56 1   
    52   27   57 1   
    53   28   77 1   
    54   29   30 1   
    55   29   58 1   
    56   29   59 1   
    57   30   60 1   
    58   30   61 1   
    59   30   62 1   
    60   31   32 1   
    61   31   37 1   
    62   31   63 1   
    63   32   33 1   
    64   32   64 1   
    65   32   65 1   
    66   33   34 1   
    67   33   66 1   
    68   33   67 1   
    69   34   35 1   
    70   34   36 1   
    71   34   68 1   
    72   35   69 1   
    73   35   70 1   
    74   36   37 1   
    75   36   71 1   
    76   36   72 1   
    77   37   73 1   
    78   37   74 1   
    79   38   39 1   
    80   38   75 1   
    81   39   76 1   
@<TRIPOS>SUBSTRUCTURE
     1 110         1 TEMP              0 ****  ****    0 ROOT
