@<TRIPOS>MOLECULE
111
   53    54     1     0     0
SMALL
bcc


@<TRIPOS>ATOM
      1 O5         -3.9310    2.8020   -1.5990 o         1 111     -0.650800
      2 S2         -2.6120    3.0100   -1.1520 s6        1 111      1.467900
      3 O4         -1.7560    3.7700   -1.9750 o         1 111     -0.650800
      4 C13        -2.6890    3.7790    0.3650 c3        1 111     -0.367300
      5 N2         -1.8900    1.6010   -0.8170 n3        1 111     -0.921100
      6 C17        -2.5760    0.3710   -0.5410 c3        1 111      0.229500
      7 C11        -2.2640   -0.2140    0.8770 c3        1 111      0.205800
      8 C9         -2.2170   -0.7870   -1.5070 c3        1 111     -0.100400
      9 C8         -1.5660   -1.8920   -0.6450 c3        1 111      0.179500
     10 C20        -2.4300   -3.1740   -0.6840 c         1 111      0.578100
     11 OB         -3.6280   -3.1470   -1.0070 o         1 111     -0.560100
     12 NA         -1.7500   -4.4090   -0.5140 n         1 111     -0.360400
     13 OA         -2.5430   -5.4560   -0.2750 oh        1 111     -0.426100
     14 N1         -1.4190   -1.3740    0.7010 n3        1 111     -0.810500
     15 S1         -0.2660   -1.8160    1.7710 sy        1 111      1.528200
     16 O1         -0.6390   -1.3870    3.0600 o         1 111     -0.653300
     17 O2         -0.0100   -3.1960    1.5860 o         1 111     -0.653300
     18 C1          1.0820   -0.9540    1.2800 ca        1 111     -0.450500
     19 C2          1.3810    0.2930    1.8570 ca        1 111      0.018500
     20 C3          2.5050    1.0100    1.4880 ca        1 111     -0.214500
     21 C4          3.3750    0.4720    0.5130 ca        1 111      0.204100
     22 C5          3.1030   -0.7770   -0.0680 ca        1 111     -0.214500
     23 C6          1.9650   -1.4710    0.3240 ca        1 111      0.018500
     24 O3          4.4550    1.2570    0.2110 os        1 111     -0.319900
     25 C7          5.3760    0.7330   -0.7620 c3        1 111      0.126400
     26 C10         6.4650    1.7820   -0.8980 c3        1 111     -0.087400
     27 C12         7.5000    1.3330   -1.9080 c3        1 111     -0.078400
     28 C14         8.5930    2.3580   -2.0600 c3        1 111     -0.093100
     29 H131       -1.6860    4.0260    0.7880 h1        1 111      0.115033
     30 H132       -3.2360    4.7530    0.2760 h1        1 111      0.115033
     31 H133       -3.2330    3.1910    1.1420 h1        1 111      0.115033
     32 HN2        -0.9030    1.5060   -0.8610 hn        1 111      0.448800
     33 H17        -3.6870    0.5720   -0.6070 h1        1 111      0.097700
     34 H111       -3.2350   -0.5220    1.3570 h1        1 111      0.064200
     35 H112       -1.7560    0.5290    1.5520 h1        1 111      0.064200
     36 H91        -3.1520   -1.1620   -1.9960 hc        1 111      0.083200
     37 H92        -1.5080   -0.4690   -2.3090 hc        1 111      0.083200
     38 H8         -0.5430   -2.1430   -1.0580 h1        1 111      0.066700
     39 HNA        -1.0270   -4.3970    0.2040 hn        1 111      0.343500
     40 HOA        -3.0220   -5.6300   -1.1100 ho        1 111      0.428000
     41 H2          0.7080    0.6960    2.6360 ha        1 111      0.153500
     42 H3          2.7410    1.9830    1.9430 ha        1 111      0.155500
     43 H5          3.7770   -1.2130   -0.8180 ha        1 111      0.155500
     44 H6          1.7600   -2.4650   -0.1150 ha        1 111      0.153500
     45 H71         4.8380    0.5770   -1.7340 h1        1 111      0.046200
     46 H72         5.7910   -0.2410   -0.3940 h1        1 111      0.046200
     47 H101        6.9460    1.9520    0.1010 hc        1 111      0.061200
     48 H102        6.0090    2.7550   -1.2170 hc        1 111      0.061200
     49 H121        7.0050    1.1590   -2.9000 hc        1 111      0.041700
     50 H122        7.9430    0.3550   -1.5820 hc        1 111      0.041700
     51 H141        9.1140    2.5280   -1.0860 hc        1 111      0.038033
     52 H142        9.3460    2.0110   -2.8080 hc        1 111      0.038033
     53 H143        8.1740    3.3340   -2.4070 hc        1 111      0.038033
@<TRIPOS>BOND
     1    1    2 2   
     2    2    3 2   
     3    2    4 1   
     4    2    5 1   
     5    4   29 1   
     6    4   30 1   
     7    4   31 1   
     8    5    6 1   
     9    5   32 1   
    10    6    7 1   
    11    6    8 1   
    12    6   33 1   
    13    7   14 1   
    14    7   34 1   
    15    7   35 1   
    16    8    9 1   
    17    8   36 1   
    18    8   37 1   
    19    9   10 1   
    20    9   14 1   
    21    9   38 1   
    22   10   11 2   
    23   10   12 1   
    24   12   13 1   
    25   12   39 1   
    26   13   40 1   
    27   14   15 1   
    28   15   16 2   
    29   15   17 2   
    30   15   18 1   
    31   18   19 ar  
    32   18   23 ar  
    33   19   20 ar  
    34   19   41 1   
    35   20   21 ar  
    36   20   42 1   
    37   21   22 ar  
    38   21   24 1   
    39   22   23 ar  
    40   22   43 1   
    41   23   44 1   
    42   24   25 1   
    43   25   26 1   
    44   25   45 1   
    45   25   46 1   
    46   26   27 1   
    47   26   47 1   
    48   26   48 1   
    49   27   28 1   
    50   27   49 1   
    51   27   50 1   
    52   28   51 1   
    53   28   52 1   
    54   28   53 1   
@<TRIPOS>SUBSTRUCTURE
     1 111         1 TEMP              0 ****  ****    0 ROOT
