@<TRIPOS>MOLECULE
111
   55    55     1     0     0
SMALL
bcc


@<TRIPOS>ATOM
      1 O5          0.6500    0.3510    0.2370 o         1 111     -0.410900
      2 S2          1.9700    0.4200    0.5250 s4        1 111      1.632500
      3 O4          2.5650    1.4930    1.0960 o         1 111     -0.410900
      4 C13         2.7930   -0.9530    0.5150 c3        1 111     -0.564800
      5 N2          2.6030    1.0470   -1.6020 n8        1 111     -1.009800
      6 C17         1.4840    1.4980   -2.4340 c3        1 111      0.120500
      7 C11         1.7520    1.4490   -3.9730 c3        1 111      0.196800
      8 C9          1.0340    2.9530   -2.1680 c3        1 111     -0.104400
      9 C8          0.6780    3.5260   -3.5640 c3        1 111      0.230500
     10 C20        -0.8700    3.5690   -3.6780 c         1 111      0.499100
     11 OB         -1.6780    2.8590   -3.1060 o         1 111     -0.401100
     12 NA         -1.4670    4.6200   -4.6050 ny        1 111     -0.449300
     13 OA         -2.7200    4.9870   -4.2610 oh        1 111     -0.349300
     14 N1          1.2780    2.6840   -4.5540 n3        1 111     -0.793500
     15 S1          1.4270    3.0430   -6.2050 sy        1 111      1.568200
     16 O1          1.1210    1.8640   -6.8860 o         1 111     -0.665800
     17 O2          0.4960    4.1170   -6.3230 o         1 111     -0.665800
     18 C1          2.9520    3.5230   -6.4070 ca        1 111     -0.554500
     19 C2          3.9460    2.5940   -6.8020 ca        1 111      0.038000
     20 C3          5.2360    2.9820   -7.0790 ca        1 111     -0.216000
     21 C4          5.5880    4.3550   -6.9830 ca        1 111      0.263100
     22 C5          4.6160    5.3020   -6.5930 ca        1 111     -0.216000
     23 C6          3.3310    4.8790   -6.3160 ca        1 111      0.038000
     24 O3          6.8750    4.6400   -7.2820 os        1 111     -0.293900
     25 C7          7.2690    6.0340   -7.2930 c3        1 111      0.123400
     26 C10         8.7220    6.0340   -7.7310 c3        1 111     -0.090400
     27 C12         9.2440    7.4550   -7.7850 c3        1 111     -0.077400
     28 C14        10.6880    7.4820   -8.2180 c3        1 111     -0.096100
     29 H131        2.4850   -1.7180   -0.2610 h1        1 111      0.206700
     30 H132        2.7130   -1.5580    1.4790 h1        1 111      0.206700
     31 H133        3.9160   -0.8650    0.3940 h1        1 111      0.206700
     32 HN2         3.2800    1.7900   -1.4890 hn        1 111      0.413800
     33 H17         0.6180    0.8040   -2.2050 h1        1 111      0.116700
     34 H111        2.8510    1.3320   -4.1990 h1        1 111      0.081200
     35 H112        1.2030    0.5740   -4.4240 h1        1 111      0.081200
     36 H91         1.8480    3.5820   -1.7240 hc        1 111      0.099200
     37 H92         0.1570    2.9720   -1.4730 hc        1 111      0.099200
     38 H8          1.0520    4.5890   -3.6630 h1        1 111      0.100700
     39 HNA        -0.8980    5.4920   -4.5750 hn        1 111      0.509300
     40 HOA        -3.2730    4.1770   -4.1450 ho        1 111      0.483000
     41 H2          3.6630    1.5310   -6.9210 ha        1 111      0.151000
     42 H3          6.0020    2.2570   -7.4010 ha        1 111      0.177000
     43 H5          4.8720    6.3710   -6.5290 ha        1 111      0.177000
     44 H6          2.5660    5.6280   -6.0400 ha        1 111      0.151000
     45 H71         7.1480    6.4500   -6.2600 h1        1 111      0.055700
     46 H72         6.6190    6.5900   -8.0180 h1        1 111      0.055700
     47 H101        8.8090    5.5510   -8.7400 hc        1 111      0.068200
     48 H102        9.3310    5.4240   -7.0150 hc        1 111      0.068200
     49 H121        8.6250    8.0570   -8.5020 hc        1 111      0.044200
     50 H122        9.1440    7.9320   -6.7750 hc        1 111      0.044200
     51 H141       11.0570    8.5360   -8.2530 hc        1 111      0.046033
     52 H142       10.8050    7.0330   -9.2340 hc        1 111      0.046033
     53 H143       11.3260    6.9080   -7.5040 hc        1 111      0.046033
     54 H22         3.0620    0.2710   -2.0580 hn        1 111      0.413800
     55 HA2        -1.4340    4.2770   -5.5980 hn        1 111      0.509300
@<TRIPOS>BOND
     1    1    2 1   
     2    2    3 1   
     3    2    4 1   
     4    4   29 1   
     5    4   30 1   
     6    4   31 1   
     7    5    6 1   
     8    5   32 1   
     9    5   54 1   
    10    6    7 1   
    11    6    8 1   
    12    6   33 1   
    13    7   14 1   
    14    7   34 1   
    15    7   35 1   
    16    8    9 1   
    17    8   36 1   
    18    8   37 1   
    19    9   10 1   
    20    9   14 1   
    21    9   38 1   
    22   10   11 2   
    23   10   12 1   
    24   12   13 1   
    25   12   39 1   
    26   12   55 1   
    27   13   40 1   
    28   14   15 1   
    29   15   16 2   
    30   15   17 2   
    31   15   18 1   
    32   18   19 ar  
    33   18   23 ar  
    34   19   20 ar  
    35   19   41 1   
    36   20   21 ar  
    37   20   42 1   
    38   21   22 ar  
    39   21   24 1   
    40   22   23 ar  
    41   22   43 1   
    42   23   44 1   
    43   24   25 1   
    44   25   26 1   
    45   25   45 1   
    46   25   46 1   
    47   26   27 1   
    48   26   47 1   
    49   26   48 1   
    50   27   28 1   
    51   27   49 1   
    52   27   50 1   
    53   28   51 1   
    54   28   52 1   
    55   28   53 1   
@<TRIPOS>SUBSTRUCTURE
     1 111         1 TEMP              0 ****  ****    0 ROOT
