@<TRIPOS>MOLECULE
111
   55    55     1     0     0
SMALL
bcc


@<TRIPOS>ATOM
      1 O5          0.6530    0.2580    0.1750 o         1 111     -0.410900
      2 S2          1.9770    0.3060    0.4530 s4        1 111      1.632500
      3 O4          2.5870    1.3580    1.0460 o         1 111     -0.410900
      4 C13         2.7850   -1.0750    0.4020 c3        1 111     -0.564800
      5 N2          2.5980    0.9790   -1.6620 n3        1 111     -1.009800
      6 C17         1.4770    1.4640   -2.4730 c3        1 111      0.120500
      7 C11         1.7310    1.4510   -4.0150 c3        1 111      0.196800
      8 C9          1.0460    2.9170   -2.1660 c3        1 111     -0.104400
      9 C8          0.6840    3.5290   -3.5440 c3        1 111      0.230500
     10 C20        -0.8640    3.5920   -3.6440 c         1 111      0.499100
     11 OB         -1.6750    2.8770   -3.0820 o         1 111     -0.401100
     12 NA         -1.4560    4.6710   -4.5400 n4        1 111     -0.449300
     13 OA         -2.7020    5.0440   -4.1760 oh        1 111     -0.349300
     14 N1          1.2670    2.7060   -4.5600 n3        1 111     -0.793500
     15 S1          1.4070    3.1040   -6.2040 sy        1 111      1.568200
     16 O1          1.0830    1.9460   -6.9110 o         1 111     -0.665800
     17 O2          0.4870    4.1910   -6.2870 o         1 111     -0.665800
     18 C1          2.9350    3.5730   -6.4060 ca        1 111     -0.554500
     19 C2          3.9160    2.6430   -6.8310 ca        1 111      0.038000
     20 C3          5.2080    3.0250   -7.1090 ca        1 111     -0.216000
     21 C4          5.5750    4.3910   -6.9820 ca        1 111      0.263100
     22 C5          4.6160    5.3380   -6.5610 ca        1 111     -0.216000
     23 C6          3.3290    4.9220   -6.2840 ca        1 111      0.038000
     24 O3          6.8630    4.6700   -7.2830 os        1 111     -0.293900
     25 C7          7.2720    6.0590   -7.2630 c3        1 111      0.123400
     26 C10         8.7210    6.0550   -7.7120 c3        1 111     -0.090400
     27 C12         9.2590    7.4700   -7.7350 c3        1 111     -0.077400
     28 C14        10.7000    7.4930   -8.1770 c3        1 111     -0.096100
     29 H131        2.4630   -1.8170   -0.3900 h1        1 111      0.206700
     30 H132        2.7080   -1.7030    1.3510 h1        1 111      0.206700
     31 H133        3.9080   -0.9950    0.2730 h1        1 111      0.206700
     32 HN2         3.0440    0.2110   -2.1420 hn        1 111      0.413800
     33 H17         0.6050    0.7740   -2.2530 h1        1 111      0.116700
     34 H111        2.8260    1.3270   -4.2540 h1        1 111      0.081200
     35 H112        1.1680    0.5930   -4.4830 h1        1 111      0.081200
     36 H91         1.8710    3.5250   -1.7140 hc        1 111      0.099200
     37 H92         0.1750    2.9280   -1.4640 hc        1 111      0.099200
     38 H8          1.0700    4.5890   -3.6200 h1        1 111      0.100700
     39 HNA        -0.8780    5.5360   -4.4950 hn        1 111      0.509300
     40 HOA        -3.2640    4.2380   -4.0740 ho        1 111      0.483000
     41 H2          3.6210    1.5870   -6.9740 ha        1 111      0.151000
     42 H3          5.9630    2.3000   -7.4550 ha        1 111      0.177000
     43 H5          4.8840    6.4030   -6.4720 ha        1 111      0.177000
     44 H6          2.5750    5.6720   -5.9840 ha        1 111      0.151000
     45 H71         7.1630    6.4510   -6.2190 h1        1 111      0.055700
     46 H72         6.6230    6.6400   -7.9690 h1        1 111      0.055700
     47 H101        9.3290    5.4200   -7.0160 hc        1 111      0.068200
     48 H102        8.7960    5.5960   -8.7330 hc        1 111      0.068200
     49 H121        9.1710    7.9230   -6.7120 hc        1 111      0.044200
     50 H122        8.6410    8.0970   -8.4320 hc        1 111      0.044200
     51 H141       10.8050    7.0690   -9.2050 hc        1 111      0.046033
     52 H142       11.0800    8.5430   -8.1890 hc        1 111      0.046033
     53 H143       11.3370    6.8940   -7.4830 hc        1 111      0.046033
     54 H22         3.2840    1.7120   -1.5370 hn        1 111      0.413800
     55 HA2        -1.4370    4.3520   -5.5410 hn        1 111      0.509300
@<TRIPOS>BOND
     1    1    2 1   
     2    2    3 1   
     3    2    4 1   
     4    4   29 1   
     5    4   30 1   
     6    4   31 1   
     7    5    6 1   
     8    5   32 1   
     9    5   54 1   
    10    6    7 1   
    11    6    8 1   
    12    6   33 1   
    13    7   14 1   
    14    7   34 1   
    15    7   35 1   
    16    8    9 1   
    17    8   36 1   
    18    8   37 1   
    19    9   10 1   
    20    9   14 1   
    21    9   38 1   
    22   10   11 2   
    23   10   12 1   
    24   12   13 1   
    25   12   39 1   
    26   12   55 1   
    27   13   40 1   
    28   14   15 1   
    29   15   16 2   
    30   15   17 2   
    31   15   18 1   
    32   18   19 ar  
    33   18   23 ar  
    34   19   20 ar  
    35   19   41 1   
    36   20   21 ar  
    37   20   42 1   
    38   21   22 ar  
    39   21   24 1   
    40   22   23 ar  
    41   22   43 1   
    42   23   44 1   
    43   24   25 1   
    44   25   26 1   
    45   25   45 1   
    46   25   46 1   
    47   26   27 1   
    48   26   47 1   
    49   26   48 1   
    50   27   28 1   
    51   27   49 1   
    52   27   50 1   
    53   28   51 1   
    54   28   52 1   
    55   28   53 1   
@<TRIPOS>SUBSTRUCTURE
     1 111         1 TEMP              0 ****  ****    0 ROOT
