@<TRIPOS>MOLECULE
111
   55    55     1     0     0
SMALL
bcc


@<TRIPOS>ATOM
      1 O5          0.6700    0.3060    0.2160 o         1 111     -0.410900
      2 S2          1.9940    0.3680    0.4920 s4        1 111      1.632500
      3 O4          2.5970    1.4310    1.0700 o         1 111     -0.410900
      4 C13         2.8120   -1.0080    0.4570 c3        1 111     -0.564800
      5 N2          2.6070    1.0180   -1.6330 n3        1 111     -1.009800
      6 C17         1.4830    1.4890   -2.4470 c3        1 111      0.120500
      7 C11         1.7330    1.4570   -3.9890 c3        1 111      0.196800
      8 C9          1.0470    2.9440   -2.1570 c3        1 111     -0.104400
      9 C8          0.6840    3.5380   -3.5420 c3        1 111      0.230500
     10 C20        -0.8650    3.5980   -3.6410 c         1 111      0.499100
     11 OB         -1.6740    2.8900   -3.0690 o         1 111     -0.401100
     12 NA         -1.4590    4.6650   -4.5510 n4        1 111     -0.449300
     13 OA         -2.7050    5.0410   -4.1900 oh        1 111     -0.349300
     14 N1          1.2660    2.7040   -4.5490 n3        1 111     -0.793500
     15 S1          1.4050    3.0840   -6.1970 sy        1 111      1.568200
     16 O1          1.0820    1.9170   -6.8900 o         1 111     -0.665800
     17 O2          0.4840    4.1690   -6.2920 o         1 111     -0.665800
     18 C1          2.9330    3.5520   -6.4050 ca        1 111     -0.554500
     19 C2          3.9150    2.6180   -6.8190 ca        1 111      0.038000
     20 C3          5.2070    2.9970   -7.1020 ca        1 111     -0.216000
     21 C4          5.5730    4.3660   -6.9900 ca        1 111      0.263100
     22 C5          4.6130    5.3170   -6.5800 ca        1 111     -0.216000
     23 C6          3.3260    4.9020   -6.2990 ca        1 111      0.038000
     24 O3          6.8610    4.6420   -7.2940 os        1 111     -0.293900
     25 C7          7.2680    6.0310   -7.2890 c3        1 111      0.123400
     26 C10         8.7180    6.0230   -7.7370 c3        1 111     -0.090400
     27 C12         9.2550    7.4380   -7.7730 c3        1 111     -0.077400
     28 C14        10.6970    7.4570   -8.2140 c3        1 111     -0.096100
     29 H131        2.4940   -1.7620   -0.3260 h1        1 111      0.206700
     30 H132        3.9330   -0.9220    0.3260 h1        1 111      0.206700
     31 H133        2.7400   -1.6250    1.4130 h1        1 111      0.206700
     32 HN2         3.2910    1.7550   -1.5180 hn        1 111      0.413800
     33 H17         0.6140    0.7980   -2.2160 h1        1 111      0.116700
     34 H111        2.8280    1.3310   -4.2290 h1        1 111      0.081200
     35 H112        1.1690    0.5930   -4.4450 h1        1 111      0.081200
     36 H91         0.1770    2.9600   -1.4550 hc        1 111      0.099200
     37 H92         1.8710    3.5600   -1.7130 hc        1 111      0.099200
     38 H8          1.0680    4.5990   -3.6310 h1        1 111      0.100700
     39 HNA        -0.8820    5.5310   -4.5170 hn        1 111      0.509300
     40 HOA        -3.2660    4.2350   -4.0780 ho        1 111      0.483000
     41 H2          3.6210    1.5600   -6.9500 ha        1 111      0.151000
     42 H3          5.9630    2.2690   -7.4390 ha        1 111      0.177000
     43 H5          4.8800    6.3820   -6.5030 ha        1 111      0.177000
     44 H6          2.5710    5.6550   -6.0070 ha        1 111      0.151000
     45 H71         7.1580    6.4340   -6.2490 h1        1 111      0.055700
     46 H72         6.6200    6.6040   -8.0020 h1        1 111      0.055700
     47 H101        8.7940    5.5540   -8.7530 hc        1 111      0.068200
     48 H102        9.3250    5.3960   -7.0330 hc        1 111      0.068200
     49 H121        9.1670    7.9020   -6.7550 hc        1 111      0.044200
     50 H122        8.6380    8.0580   -8.4760 hc        1 111      0.044200
     51 H141       11.0770    8.5070   -8.2360 hc        1 111      0.046033
     52 H142       10.8030    7.0220   -9.2380 hc        1 111      0.046033
     53 H143       11.3330    6.8650   -7.5130 hc        1 111      0.046033
     54 H22         3.0560    0.2460   -2.1040 hn        1 111      0.413800
     55 HA2        -1.4400    4.3330   -5.5480 hn        1 111      0.509300
@<TRIPOS>BOND
     1    1    2 1   
     2    2    3 1   
     3    2    4 1   
     4    4   29 1   
     5    4   30 1   
     6    4   31 1   
     7    5    6 1   
     8    5   32 1   
     9    5   54 1   
    10    6    7 1   
    11    6    8 1   
    12    6   33 1   
    13    7   14 1   
    14    7   34 1   
    15    7   35 1   
    16    8    9 1   
    17    8   36 1   
    18    8   37 1   
    19    9   10 1   
    20    9   14 1   
    21    9   38 1   
    22   10   11 2   
    23   10   12 1   
    24   12   13 1   
    25   12   39 1   
    26   12   55 1   
    27   13   40 1   
    28   14   15 1   
    29   15   16 2   
    30   15   17 2   
    31   15   18 1   
    32   18   19 ar  
    33   18   23 ar  
    34   19   20 ar  
    35   19   41 1   
    36   20   21 ar  
    37   20   42 1   
    38   21   22 ar  
    39   21   24 1   
    40   22   23 ar  
    41   22   43 1   
    42   23   44 1   
    43   24   25 1   
    44   25   26 1   
    45   25   45 1   
    46   25   46 1   
    47   26   27 1   
    48   26   47 1   
    49   26   48 1   
    50   27   28 1   
    51   27   49 1   
    52   27   50 1   
    53   28   51 1   
    54   28   52 1   
    55   28   53 1   
@<TRIPOS>SUBSTRUCTURE
     1 111         1 TEMP              0 ****  ****    0 ROOT
