@<TRIPOS>MOLECULE
111
   53    49     1     0     0
SMALL
bcc


@<TRIPOS>ATOM
      1 O5         -1.3690   -5.2910    0.7190 o         1 111     -0.930000
      2 S2          0.0190   -5.6340    0.7910 ss        1 111      2.823000
      3 O4          0.1140   -6.1040    2.1330 o         1 111     -0.930000
      4 C13         0.4340   -6.9220   -0.3770 c2        1 111     -0.946000
      5 N2          0.9850   -4.3020    0.5440 n2        1 111     -0.894000
      6 C17         1.2660   -3.4260    1.6190 c3        1 111      0.034000
      7 C11         0.4400   -2.1710    1.4970 c3        1 111     -0.028000
      8 C9          2.7580   -2.9870    1.5700 c3        1 111     -0.183000
      9 C8          2.7670   -1.7150    1.1520 c3        1 111      0.035000
     10 C20         3.8920   -1.0050    1.7450 c2        1 111      0.224000
     11 OB          3.7220   -0.2940    2.6710 o         1 111     -0.326000
     12 NA          5.2360   -1.2640    1.2680 n         1 111     -0.202000
     13 OA          6.3190   -0.8810    2.0190 oh        1 111     -0.230000
     14 N1          1.2520   -1.1940    1.6630 n3        1 111     -0.830000
     15 S1          0.9160    0.2580    2.4250 s4        1 111      2.083800
     16 O1          2.1080    1.0010    2.6600 o         1 111     -0.540400
     17 O2          0.4370    0.0440    3.7990 o         1 111     -0.540400
     18 C1         -0.2500    1.1970    1.4720 c1        1 111     -0.896000
     19 C2          0.1710    2.3430    0.7790 c2        1 111      0.025000
     20 C3         -0.7480    3.0840    0.0410 c1        1 111     -0.241000
     21 C4         -2.0750    2.6900   -0.0080 c1        1 111      0.158000
     22 C5         -2.4910    1.5420    0.6880 c1        1 111     -0.187000
     23 C6         -1.5760    0.8050    1.4220 c1        1 111      0.013000
     24 O3         -3.0570    3.5340   -0.6570 os        1 111     -0.203000
     25 C7         -3.0540    3.4480   -2.0670 c3        1 111     -0.024000
     26 C10        -3.8400    4.6020   -2.6340 c3        1 111     -0.165000
     27 C12        -3.3600    4.8980   -4.0570 c3        1 111     -0.158000
     28 C14        -2.8200    6.2770   -4.1170 c3        1 111     -0.215000
     29 H131       -0.0710   -7.7390   -0.1540 ha        1 111      0.154000
     30 H132        1.4000   -7.1080   -0.3320 ha        1 111      0.154000
     31 H133        0.1960   -6.6260   -1.2980 ha        1 111      0.154000
     32 HN2         1.3620   -4.1540   -0.2840 hn        1 111      0.244000
     33 H17         1.0720   -3.8820    2.4970 h1        1 111      0.134000
     34 H111       -0.2380   -2.1550    2.1700 h1        1 111      0.108500
     35 H112        0.0480   -2.1240    0.6470 h1        1 111      0.108500
     36 H91         3.2350   -3.5290    0.9630 hc        1 111      0.116500
     37 H92         3.1410   -3.0470    2.4280 hc        1 111      0.116500
     38 H8          2.9100   -1.5450    0.1910 h1        1 111      0.107000
     39 HNA         5.3600   -1.7060    0.4930 hn        1 111      0.259000
     40 HOA         7.0100   -1.4310    1.8510 ho        1 111      0.227000
     41 H2          1.1240    2.6250    0.8160 ha        1 111      0.152000
     42 H3         -0.4460    3.9120   -0.4600 ha        1 111      0.149000
     43 H5         -3.4320    1.2620    0.6530 ha        1 111      0.164000
     44 H6         -1.8640    0.0120    1.8980 ha        1 111      0.157000
     45 H71        -3.4460    2.6400   -2.3330 h1        1 111      0.085000
     46 H72        -2.1390    3.4860   -2.3930 h1        1 111      0.085000
     47 H101       -3.7050    5.3770   -2.0860 hc        1 111      0.100500
     48 H102       -4.8300    4.3670   -2.6490 hc        1 111      0.100500
     49 H121       -2.6760    4.2780   -4.2940 hc        1 111      0.084500
     50 H122       -4.1120    4.8140   -4.6820 hc        1 111      0.084500
     51 H141       -1.9830    6.3230   -3.6130 hc        1 111      0.076000
     52 H142       -2.6530    6.5260   -5.0560 hc        1 111      0.076000
     53 H143       -3.4590    6.8860   -3.7340 hc        1 111      0.076000
@<TRIPOS>BOND
     1    1    2 1   
     2    2    3 1   
     3    4   29 1   
     4    4   30 1   
     5    4   31 1   
     6    5    6 1   
     7    5   32 1   
     8    6    7 1   
     9    6    8 1   
    10    6   33 1   
    11    7   14 1   
    12    7   34 1   
    13    7   35 1   
    14    8    9 1   
    15    8   36 1   
    16    8   37 1   
    17    9   10 1   
    18    9   14 1   
    19    9   38 1   
    20   10   11 1   
    21   10   12 1   
    22   12   13 1   
    23   12   39 1   
    24   13   40 1   
    25   14   15 1   
    26   15   16 1   
    27   15   17 1   
    28   18   19 1   
    29   18   23 1   
    30   19   20 1   
    31   19   41 1   
    32   20   42 1   
    33   21   22 1   
    34   21   24 1   
    35   22   43 1   
    36   23   44 1   
    37   24   25 1   
    38   25   26 1   
    39   25   45 1   
    40   25   46 1   
    41   26   27 1   
    42   26   47 1   
    43   26   48 1   
    44   27   28 1   
    45   27   49 1   
    46   27   50 1   
    47   28   51 1   
    48   28   52 1   
    49   28   53 1   
@<TRIPOS>SUBSTRUCTURE
     1 111         1 TEMP              0 ****  ****    0 ROOT
