@<TRIPOS>MOLECULE
112
   51    53     1     0     0
SMALL
bcc


@<TRIPOS>ATOM
      1 NS          1.0230   -0.6300    7.7040 n         1 112     -0.643000
      2 C2S        -0.0590   -0.1550    8.3870 c         1 112      0.650100
      3 O2S         0.0240    0.0780    9.6290 o         1 112     -0.768100
      4 C1S        -1.3610    0.0080    7.6330 c3        1 112     -0.010100
      5 PG         -0.4490   -0.9760    4.3110 p5        1 112      1.591800
      6 S1G        -1.1330    0.7570    6.0590 s         1 112     -0.928300
      7 O2G         0.9540   -0.9560    4.7850 o         1 112     -0.838500
      8 O3G        -1.4760   -1.9140    4.8100 o         1 112     -0.838500
      9 PB         -0.7490   -0.4540    1.7850 p5        1 112      1.838500
     10 O1B        -0.2310   -1.6420    2.6430 os        1 112     -0.720300
     11 O2B        -1.9000   -0.5580    0.8710 o         1 112     -0.935300
     12 O3B        -0.9100    0.2270    3.2110 os        1 112     -0.720300
     13 PA          1.3880    0.8000   -0.2790 p5        1 112      1.626800
     14 O1A         2.5610    1.5320    0.2070 o         1 112     -0.880500
     15 O2A         1.4580   -0.2100   -1.3660 o         1 112     -0.880500
     16 O3A         0.4130    0.2000    0.8790 os        1 112     -0.812800
     17 O5'         0.3140    1.9340   -0.8780 os        1 112     -0.583200
     18 C5'         0.1100    1.9740   -2.2440 c3        1 112      0.202400
     19 C4'        -1.2680    1.4200   -2.6510 c3        1 112      0.090100
     20 O4'        -1.2660    1.1970   -4.0780 os        1 112     -0.438600
     21 C3'        -1.6250    0.0850   -1.9760 c3        1 112      0.114100
     22 O3'        -3.0000    0.0620   -1.6610 oh        1 112     -0.657800
     23 C2'        -1.3190   -0.9940   -3.0400 c3        1 112      0.106100
     24 O2'        -2.3450   -1.9350   -3.2550 oh        1 112     -0.617800
     25 C1'        -1.1140   -0.1930   -4.3710 c3        1 112      0.219800
     26 N9          0.1600   -0.4490   -5.0230 na        1 112     -0.257000
     27 C8          1.4330   -0.6340   -4.4270 cc        1 112      0.463700
     28 N7          2.4280   -0.7680   -5.3240 nd        1 112     -0.606100
     29 C5          1.8160   -0.6470   -6.5790 ca        1 112     -0.194200
     30 C6          2.3220   -0.6810   -7.9120 ca        1 112      0.678200
     31 N6          3.6720   -0.9780   -8.1360 nh        1 112     -0.923500
     32 N1          1.4640   -0.4840   -8.9620 nb        1 112     -0.804000
     33 C2          0.1470   -0.3060   -8.6590 ca        1 112      0.630900
     34 N3         -0.4790   -0.2670   -7.4640 nb        1 112     -0.705000
     35 C4          0.3750   -0.4300   -6.4080 ca        1 112      0.434800
     36 HNS1        1.9110   -0.5820    8.1320 hn        1 112      0.325500
     37 HNS2        0.9810   -0.6500    6.6890 hn        1 112      0.325500
     38 H1S1       -1.8290   -1.0000    7.5120 h1        1 112      0.043200
     39 H1S2       -2.0380    0.6460    8.2490 h1        1 112      0.043200
     40 H5'1        0.1490    3.0520   -2.5730 h1        1 112      0.015200
     41 H5'2        0.9100    1.3990   -2.7900 h1        1 112      0.015200
     42 H4'        -2.0730    2.1810   -2.4780 h1        1 112      0.072700
     43 H3'        -0.9910   -0.0780   -1.0490 h1        1 112      0.146700
     44 HO3'       -3.0640   -0.1400   -0.7080 ho        1 112      0.485000
     45 H2'        -0.4020   -1.5720   -2.7380 h1        1 112      0.116700
     46 HO2'       -3.1440   -1.6150   -2.8110 ho        1 112      0.426000
     47 H1'        -1.9250   -0.4410   -5.1190 h2        1 112      0.089700
     48 H8          1.5580   -0.6610   -3.3090 h5        1 112      0.187800
     49 HN61        4.0520   -0.6310   -8.9880 hn        1 112      0.400300
     50 HN62        4.2490   -0.8230   -7.3380 hn        1 112      0.400300
     51 H2         -0.5110   -0.1640   -9.5410 h5        1 112      0.023100
@<TRIPOS>BOND
     1    1    2 1   
     2    1   36 1   
     3    1   37 1   
     4    2    3 2   
     5    2    4 1   
     6    4    6 1   
     7    4   38 1   
     8    4   39 1   
     9    5    7 1   
    10    5    8 1   
    11    5   10 1   
    12    5   12 1   
    13    9   10 1   
    14    9   11 2   
    15    9   12 1   
    16    9   16 1   
    17   13   14 1   
    18   13   15 1   
    19   13   16 1   
    20   13   17 1   
    21   17   18 1   
    22   18   19 1   
    23   18   40 1   
    24   18   41 1   
    25   19   20 1   
    26   19   21 1   
    27   19   42 1   
    28   20   25 1   
    29   21   22 1   
    30   21   23 1   
    31   21   43 1   
    32   22   44 1   
    33   23   24 1   
    34   23   25 1   
    35   23   45 1   
    36   24   46 1   
    37   25   26 1   
    38   25   47 1   
    39   26   27 1   
    40   26   35 1   
    41   27   28 2   
    42   27   48 1   
    43   28   29 1   
    44   29   30 ar  
    45   29   35 ar  
    46   30   31 1   
    47   30   32 ar  
    48   31   49 1   
    49   31   50 1   
    50   32   33 ar  
    51   33   34 ar  
    52   33   51 1   
    53   34   35 ar  
@<TRIPOS>SUBSTRUCTURE
     1 112         1 TEMP              0 ****  ****    0 ROOT
