@<TRIPOS>MOLECULE
112
   51    53     1     0     0
SMALL
bcc


@<TRIPOS>ATOM
      1 NS          1.9170   -0.2360   -3.2750 n         1 112     -0.643000
      2 C2S         1.7140   -0.7710   -2.0360 c         1 112      0.650100
      3 O2S         0.5660   -1.1890   -1.7040 o         1 112     -0.770100
      4 C1S         2.8750   -0.7760   -1.0640 c3        1 112     -0.010100
      5 PG          5.5060    0.6730   -3.0210 p5        1 112      1.590800
      6 S1G         4.3770   -1.2860   -1.8200 s         1 112     -0.928300
      7 O2G         4.6050    0.5170   -4.1860 o         1 112     -0.840500
      8 O3G         5.2210    1.5600   -1.8720 o         1 112     -0.840500
      9 PB          8.0400    0.5680   -3.5750 p5        1 112      1.815500
     10 O1B         6.8770    1.5850   -3.7600 os        1 112     -0.718800
     11 O2B         9.2590    0.8510   -2.8160 o         1 112     -0.896300
     12 O3B         6.8710   -0.3260   -2.9700 os        1 112     -0.718800
     13 PA          9.2570   -0.5140   -6.3570 p5        1 112      1.638800
     14 O1A        10.0370   -1.7670   -6.1910 o         1 112     -0.894500
     15 O2A         8.5260   -0.3400   -7.6300 o         1 112     -0.894500
     16 O3A         8.5380   -0.0170   -5.0130 os        1 112     -0.805800
     17 O5'        10.4430    0.6610   -6.5550 os        1 112     -0.583200
     18 C5'        11.7450    0.2570   -6.7560 c3        1 112      0.202400
     19 C4'        12.1070    0.2000   -8.2580 c3        1 112      0.062100
     20 O4'        13.4540   -0.3030   -8.3870 os        1 112     -0.427600
     21 C3'        11.1850   -0.7170   -9.0910 c3        1 112      0.085100
     22 O3'        10.4280    0.0290  -10.0170 oh        1 112     -0.644800
     23 C2'        12.1170   -1.6920   -9.8280 c3        1 112      0.111100
     24 O2'        12.3660   -1.3740  -11.1810 oh        1 112     -0.610800
     25 C1'        13.4630   -1.5730   -9.0370 c3        1 112      0.219800
     26 N9         13.6720   -2.6590   -8.0970 na        1 112     -0.277000
     27 C8         12.8100   -3.1470   -7.0740 cc        1 112      0.464700
     28 N7         13.3550   -4.1430   -6.3570 nd        1 112     -0.577100
     29 C5         14.6400   -4.3290   -6.8850 ca        1 112     -0.197200
     30 C6         15.7070   -5.2140   -6.5440 ca        1 112      0.695200
     31 N6         15.5120   -6.1920   -5.5690 nh        1 112     -0.928500
     32 N1         16.8920   -5.1290   -7.2310 nb        1 112     -0.805000
     33 C2         16.9600   -4.2130   -8.2380 ca        1 112      0.638900
     34 N3         16.0400   -3.3300   -8.6820 nb        1 112     -0.719000
     35 C4         14.8650   -3.3880   -7.9820 ca        1 112      0.433800
     36 HNS1        1.2300   -0.3760   -3.9700 hn        1 112      0.325500
     37 HNS2        2.8720   -0.0610   -3.5750 hn        1 112      0.325500
     38 H1S1        2.9900    0.2550   -0.6450 h1        1 112      0.043200
     39 H1S2        2.6230   -1.4750   -0.2330 h1        1 112      0.043200
     40 H5'1       12.4270    1.0180   -6.2810 h1        1 112      0.032700
     41 H5'2       11.9360   -0.7480   -6.2870 h1        1 112      0.032700
     42 H4'        12.1280    1.2340   -8.6920 h1        1 112      0.066700
     43 H3'        10.4990   -1.2920   -8.3940 h1        1 112      0.130700
     44 HO3'        9.5650    0.1880   -9.5850 ho        1 112      0.483000
     45 H2'        11.7100   -2.7370   -9.8320 h1        1 112      0.086700
     46 HO2'       12.1020   -0.4540  -11.3190 ho        1 112      0.424000
     47 H1'        14.3450   -1.5440   -9.7430 h2        1 112      0.100700
     48 H8         11.7840   -2.7240   -6.8850 h5        1 112      0.183800
     49 HN61       16.3300   -6.5390   -5.1230 hn        1 112      0.410800
     50 HN62       14.7440   -6.0130   -4.9600 hn        1 112      0.410800
     51 H2         17.9320   -4.1900   -8.7710 h5        1 112      0.023100
@<TRIPOS>BOND
     1    1    2 1   
     2    1   36 1   
     3    1   37 1   
     4    2    3 2   
     5    2    4 1   
     6    4    6 1   
     7    4   38 1   
     8    4   39 1   
     9    5    7 1   
    10    5    8 1   
    11    5   10 1   
    12    5   12 1   
    13    9   10 1   
    14    9   11 2   
    15    9   12 1   
    16    9   16 1   
    17   13   14 1   
    18   13   15 1   
    19   13   16 1   
    20   13   17 1   
    21   17   18 1   
    22   18   19 1   
    23   18   40 1   
    24   18   41 1   
    25   19   20 1   
    26   19   21 1   
    27   19   42 1   
    28   20   25 1   
    29   21   22 1   
    30   21   23 1   
    31   21   43 1   
    32   22   44 1   
    33   23   24 1   
    34   23   25 1   
    35   23   45 1   
    36   24   46 1   
    37   25   26 1   
    38   25   47 1   
    39   26   27 1   
    40   26   35 1   
    41   27   28 2   
    42   27   48 1   
    43   28   29 1   
    44   29   30 ar  
    45   29   35 ar  
    46   30   31 1   
    47   30   32 ar  
    48   31   49 1   
    49   31   50 1   
    50   32   33 ar  
    51   33   34 ar  
    52   33   51 1   
    53   34   35 ar  
@<TRIPOS>SUBSTRUCTURE
     1 112         1 TEMP              0 ****  ****    0 ROOT
