@<TRIPOS>MOLECULE
112
   51    46     1     0     0
SMALL
bcc


@<TRIPOS>ATOM
      1 NS         -5.4230   10.0270    3.3850 n         1 112     -0.410000
      2 C2S        -4.7350    8.8090    3.1290 c2        1 112      0.306000
      3 O2S        -3.8690    8.4320    3.8850 o         1 112     -0.477000
      4 C1S        -5.0400    8.0260    1.8960 c3        1 112     -0.130000
      5 PG         -4.5180    5.4110    0.1550 p3        1 112      2.724000
      6 S1G        -4.0910    6.5070    1.9000 s         1 112     -0.843000
      7 O2G        -6.0240    5.2670    0.0040 o         1 112     -1.144000
      8 O3G        -3.9640    6.1290   -1.0340 o         1 112     -1.144000
      9 PB         -3.6460    2.9970   -1.0220 p3        1 112      2.865000
     10 O1B        -5.0250    2.6180   -1.6270 o         1 112     -1.210000
     11 O2B        -2.8040    3.7060   -2.0780 os        1 112     -1.242500
     12 O3B        -3.8650    3.9890    0.2570 os        1 112     -1.274000
     13 PA         -2.2390    0.6040   -1.5480 p3        1 112      2.732000
     14 O1A        -3.3170   -0.2860   -2.1030 o         1 112     -1.183000
     15 O2A        -1.5510    1.3410   -2.6900 os        1 112     -1.242500
     16 O3A        -2.8920    1.6690   -0.5410 os        1 112     -1.290000
     17 O5'        -1.1660   -0.2840   -0.7680 os        1 112     -0.740000
     18 C5'        -0.0330   -0.7530   -1.4810 c3        1 112      0.055000
     19 C4'         1.0630   -1.1930   -0.4800 c3        1 112     -0.022000
     20 O4'         1.0890   -2.5220   -0.3710 os        1 112     -0.296000
     21 C3'         2.4370   -0.8100   -1.0040 c3        1 112      0.002000
     22 O3'         2.9490    0.1700   -0.2810 oh        1 112     -0.386000
     23 C2'         3.3190   -2.1100   -0.8690 c3        1 112     -0.006000
     24 O2'         4.5980   -1.7920   -0.1960 oh        1 112     -0.353000
     25 C1'         2.6190   -2.9180   -0.1370 c3        1 112      0.131000
     26 N9          2.8430   -4.2480   -0.5390 n3        1 112     -0.170000
     27 C8          2.3900   -4.8670   -1.6440 c1        1 112      0.011000
     28 N7          2.6100   -6.1900   -1.5010 n2        1 112     -0.188000
     29 C5          3.2040   -6.3890   -0.2970 c1        1 112     -0.201000
     30 C6          3.7730   -7.5200    0.2760 c1        1 112      0.150000
     31 N6          3.9360   -8.9140    0.0120 n3        1 112     -0.320000
     32 N1          4.4700   -7.4140    1.4290 n1        1 112     -0.279000
     33 C2          4.6140   -6.2020    2.0270 c1        1 112     -0.037000
     34 N3          4.0550   -5.0900    1.4640 n1        1 112     -0.177000
     35 C4          3.3480   -5.1940    0.2960 c1        1 112      0.040000
     36 HNS1       -6.3520   10.0460    3.3790 hn        1 112      0.219500
     37 HNS2       -4.9510   10.7950    3.5410 hn        1 112      0.219500
     38 H1S1       -6.0080    7.8100    1.8730 h1        1 112      0.118500
     39 H1S2       -4.8060    8.5520    1.1130 h1        1 112      0.118500
     40 H5'1       -0.2960   -1.5290   -2.0490 h1        1 112      0.051500
     41 H5'2        0.3250   -0.0090   -2.0720 h1        1 112      0.051500
     42 H4'         0.9020   -0.7650    0.4330 h1        1 112      0.113000
     43 H3'         2.3770   -0.5420   -1.9410 h1        1 112      0.192000
     44 HO3'        3.0990    0.8600   -0.7920 ho        1 112      0.289000
     45 H2'         3.4910   -2.5160   -1.7810 h1        1 112      0.152000
     46 HO2'        5.2060   -1.6490   -0.7870 ho        1 112      0.229000
     47 H1'         2.8510   -2.8100    0.7930 h2        1 112      0.127000
     48 H8          1.9840   -4.4390   -2.4070 DU        1 112      0.326000
     49 HN61        3.5980   -9.5450    0.6120 hn        1 112      0.191500
     50 HN62        4.4280   -9.1940   -0.7330 hn        1 112      0.191500
     51 H2          5.0340   -6.0700    2.9110 ha        1 112      0.157000
@<TRIPOS>BOND
     1    1    2 1   
     2    1   36 1   
     3    1   37 1   
     4    2    3 1   
     5    2    4 1   
     6    4    6 1   
     7    4   38 1   
     8    4   39 1   
     9    5    7 1   
    10    5    8 1   
    11    5   12 1   
    12    9   10 1   
    13    9   12 1   
    14    9   16 1   
    15   13   14 1   
    16   13   16 1   
    17   13   17 1   
    18   17   18 1   
    19   18   19 1   
    20   18   40 1   
    21   18   41 1   
    22   19   20 1   
    23   19   21 1   
    24   19   42 1   
    25   20   25 1   
    26   21   22 1   
    27   21   23 1   
    28   21   43 1   
    29   22   44 1   
    30   23   24 1   
    31   23   25 1   
    32   23   45 1   
    33   24   46 1   
    34   25   26 1   
    35   25   47 1   
    36   26   27 1   
    37   26   35 1   
    38   27   28 1   
    39   28   29 1   
    40   29   35 1   
    41   30   31 1   
    42   30   32 1   
    43   31   49 1   
    44   31   50 1   
    45   33   34 1   
    46   33   51 1   
@<TRIPOS>SUBSTRUCTURE
     1 112         1 TEMP              0 ****  ****    0 ROOT
