@<TRIPOS>MOLECULE
112
   52    54     1     0     0
SMALL
bcc


@<TRIPOS>ATOM
      1 NS          3.6040   -1.0170   -1.4350 nz        1 112     -0.755400
      2 C2S         3.9000   -1.8540   -0.2470 c         1 112      0.549100
      3 O2S         4.1370   -3.0480   -0.4240 o         1 112     -0.513100
      4 C1S         3.7880   -1.1340    1.0690 c3        1 112     -0.030100
      5 PG          5.0420   -0.7860   -5.2400 p5        1 112      1.546800
      6 S1G         2.3470   -0.1590    0.9760 s         1 112     -0.871300
      7 O2G         4.1960   -1.1430   -6.3790 o         1 112     -0.860500
      8 O3G         4.5040   -0.8570   -3.8580 o         1 112     -0.860500
      9 PB          7.4730   -0.0280   -5.4670 p5        1 112      1.849500
     10 O1B         8.4180    0.3440   -4.4260 o         1 112     -0.874300
     11 O2B         5.9820    0.5830   -5.4380 os        1 112     -0.725800
     12 O3B         6.6050   -1.3760   -5.3090 os        1 112     -0.725800
     13 PA          8.8410    0.2360   -8.3860 p5        1 112      1.606800
     14 O1A         8.0040    1.0020   -9.3070 o         1 112     -0.851000
     15 O2A         9.5430   -1.0300   -8.6880 o         1 112     -0.851000
     16 O3A         8.1020    0.0690   -6.9080 os        1 112     -0.809800
     17 O5'        10.0750    1.2410   -7.9280 os        1 112     -0.593200
     18 C5'        11.1470    0.6720   -7.2460 c3        1 112      0.185400
     19 C4'        12.4200    0.7790   -8.1030 c3        1 112      0.075100
     20 O4'        13.4610   -0.0260   -7.5250 os        1 112     -0.418600
     21 C3'        12.2080    0.3130   -9.5570 c3        1 112      0.068100
     22 O3'        12.4540    1.3710  -10.4680 oh        1 112     -0.621800
     23 C2'        13.2430   -0.7980   -9.8040 c3        1 112      0.123100
     24 O2'        14.3150   -0.4250  -10.6400 oh        1 112     -0.593800
     25 C1'        13.7970   -1.1270   -8.3770 c3        1 112      0.217800
     26 N9         13.3140   -2.3810   -7.8470 na        1 112     -0.282000
     27 C8         11.9770   -2.8660   -7.7850 cc        1 112      0.447700
     28 N7         11.8700   -4.0410   -7.1490 nd        1 112     -0.567100
     29 C5         13.1720   -4.3630   -6.7350 ca        1 112     -0.203200
     30 C6         13.7090   -5.4660   -6.0020 ca        1 112      0.710200
     31 N6         12.8870   -6.5290   -5.6480 nv        1 112     -0.931500
     32 N1         15.0520   -5.4840   -5.7140 nb        1 112     -0.800000
     33 C2         15.8020   -4.4480   -6.1810 ca        1 112      0.651900
     34 N3         15.4410   -3.3550   -6.8880 nb        1 112     -0.724000
     35 C4         14.1000   -3.3160   -7.1550 ca        1 112      0.444800
     36 HNS1        3.2560   -1.5660   -2.2320 hn        1 112      0.491800
     37 HNS2        4.4560   -0.5550   -1.7920 hn        1 112      0.491800
     38 H1S1        3.7370   -1.8920    1.8870 h1        1 112      0.063700
     39 H1S2        4.7010   -0.5070    1.2220 h1        1 112      0.063700
     40 H5'1       11.3140    1.2460   -6.2930 h1        1 112      0.048200
     41 H5'2       10.9430   -0.4070   -7.0030 h1        1 112      0.048200
     42 H4'        12.8110    1.8320   -8.0810 h1        1 112      0.063700
     43 H3'        11.1580   -0.0930   -9.6820 h1        1 112      0.129700
     44 HO3'       11.6870    1.9560  -10.4000 ho        1 112      0.431000
     45 H2'        12.7770   -1.6900  -10.3020 h1        1 112      0.102700
     46 HO2'       14.4800    0.5170  -10.5070 ho        1 112      0.417000
     47 H1'        14.9280   -1.1610   -8.3840 h2        1 112      0.106700
     48 H8         11.1210   -2.2990   -8.2290 h5        1 112      0.166800
     49 HN61       11.9130   -6.3240   -5.6520 hn        1 112      0.418800
     50 HN62       13.2010   -7.1170   -4.9110 hn        1 112      0.418800
     51 H2         16.8810   -4.5130   -5.9310 h5        1 112      0.031100
     52 HS3         2.9020   -0.2950   -1.1190 hn        1 112      0.491800
@<TRIPOS>BOND
     1    1    2 1   
     2    1   36 1   
     3    1   37 1   
     4    1   52 1   
     5    2    3 2   
     6    2    4 1   
     7    4    6 1   
     8    4   38 1   
     9    4   39 1   
    10    5    7 1   
    11    5    8 1   
    12    5   11 1   
    13    5   12 1   
    14    9   10 2   
    15    9   11 1   
    16    9   12 1   
    17    9   16 1   
    18   13   14 1   
    19   13   15 1   
    20   13   16 1   
    21   13   17 1   
    22   17   18 1   
    23   18   19 1   
    24   18   40 1   
    25   18   41 1   
    26   19   20 1   
    27   19   21 1   
    28   19   42 1   
    29   20   25 1   
    30   21   22 1   
    31   21   23 1   
    32   21   43 1   
    33   22   44 1   
    34   23   24 1   
    35   23   25 1   
    36   23   45 1   
    37   24   46 1   
    38   25   26 1   
    39   25   47 1   
    40   26   27 1   
    41   26   35 1   
    42   27   28 2   
    43   27   48 1   
    44   28   29 1   
    45   29   30 ar  
    46   29   35 ar  
    47   30   31 1   
    48   30   32 ar  
    49   31   49 1   
    50   31   50 1   
    51   32   33 ar  
    52   33   34 ar  
    53   33   51 1   
    54   34   35 ar  
@<TRIPOS>SUBSTRUCTURE
     1 112         1 TEMP              0 ****  ****    0 ROOT
