@<TRIPOS>MOLECULE
113
   36    38     1     0     0
SMALL
bcc


@<TRIPOS>ATOM
      1 C1          1.5580    0.1610   -2.9910 ca        1 113      0.112100
      2 C2          2.2250   -0.0300   -1.7790 ca        1 113     -0.180000
      3 C3          1.4510   -0.3310   -0.6530 ca        1 113      0.099100
      4 C4          0.0530   -0.4820   -0.7180 ca        1 113     -0.169600
      5 C5         -0.6180   -0.1700   -1.9100 ca        1 113     -0.094600
      6 C6          0.1440    0.1100   -3.0540 ca        1 113      0.064100
      7 O8          2.1750   -0.4580    0.5380 os        1 113     -0.238200
      8 C9          1.4180   -0.4010    1.6920 cc        1 113      0.133900
      9 C10         0.0840   -0.6140    1.7250 cd        1 113     -0.323400
     10 C11        -0.6450   -0.9590    0.4900 c         1 113      0.618900
     11 C12         2.2360   -0.1540    2.9120 c3        1 113     -0.070200
     12 C13         1.3270    0.2510    4.0750 c3        1 113      0.145100
     13 O14         0.1790   -0.6040    4.1550 os        1 113     -0.416600
     14 C15        -0.6680   -0.5270    3.0190 c3        1 113      0.402100
     15 O16        -0.3880    0.3670   -4.2960 oh        1 113     -0.565100
     16 O17         2.3320    0.4290   -4.0990 oh        1 113     -0.515100
     17 C18        -2.1390   -0.0190   -1.9580 c         1 113      0.928200
     18 O19        -2.7070    0.4920   -0.9600 o         1 113     -0.811800
     19 O20        -1.2930    0.7360    3.2020 os        1 113     -0.459600
     20 C22        -2.5020    0.8860    2.4660 c3        1 113      0.107700
     21 C26         2.0500    0.1160    5.4020 c3        1 113     -0.091100
     22 O30        -2.7210   -0.3520   -3.0320 o         1 113     -0.811800
     23 O31        -1.6640   -1.6550    0.5050 o         1 113     -0.511100
     24 H2          3.3160    0.0580   -1.7150 ha        1 113      0.149000
     25 H121        2.9860    0.6560    2.7190 hc        1 113      0.067200
     26 H122        2.7970   -1.0930    3.1640 hc        1 113      0.067200
     27 H13         0.9750    1.3100    3.9220 h1        1 113      0.066700
     28 H15        -1.4020   -1.3750    3.1270 h2        1 113      0.094700
     29 H16        -1.3520    0.1880   -4.2640 ho        1 113      0.491000
     30 H17         1.7300    0.5380   -4.8520 ho        1 113      0.436000
     31 H221       -2.7870    1.9550    2.6280 h1        1 113      0.052033
     32 H222       -2.3520    0.6770    1.3740 h1        1 113      0.052033
     33 H223       -3.2840    0.2050    2.8850 h1        1 113      0.052033
     34 H261        1.3840    0.4530    6.2310 hc        1 113      0.040033
     35 H262        2.3320   -0.9480    5.5860 hc        1 113      0.040033
     36 H263        2.9710    0.7440    5.3880 hc        1 113      0.040033
@<TRIPOS>BOND
     1    1    2 ar  
     2    1    6 ar  
     3    1   16 1   
     4    2    3 ar  
     5    2   24 1   
     6    3    4 ar  
     7    3    7 1   
     8    4    5 ar  
     9    4   10 1   
    10    5    6 ar  
    11    5   17 1   
    12    6   15 1   
    13    7    8 1   
    14    8    9 2   
    15    8   11 1   
    16    9   10 1   
    17    9   14 1   
    18   10   23 2   
    19   11   12 1   
    20   11   25 1   
    21   11   26 1   
    22   12   13 1   
    23   12   21 1   
    24   12   27 1   
    25   13   14 1   
    26   14   19 1   
    27   14   28 1   
    28   15   29 1   
    29   16   30 1   
    30   17   18 1   
    31   17   22 1   
    32   19   20 1   
    33   20   31 1   
    34   20   32 1   
    35   20   33 1   
    36   21   34 1   
    37   21   35 1   
    38   21   36 1   
@<TRIPOS>SUBSTRUCTURE
     1 113         1 TEMP              0 ****  ****    0 ROOT
