@<TRIPOS>MOLECULE
113
   36    38     1     0     0
SMALL
bcc


@<TRIPOS>ATOM
      1 C1          0.1970    0.1410    0.2300 ca        1 113      0.112100
      2 C2          1.5780   -0.0430    0.1320 ca        1 113     -0.180000
      3 C3          2.2890   -0.2530    1.3180 ca        1 113      0.099100
      4 C4          1.6580   -0.3220    2.5740 ca        1 113     -0.169600
      5 C5          0.2920   -0.0170    2.6740 ca        1 113     -0.094600
      6 C6         -0.4410    0.1720    1.4930 ca        1 113      0.064100
      7 O8          3.6750   -0.3760    1.1570 os        1 113     -0.238200
      8 C9          4.4150   -0.2290    2.3130 cc        1 113      0.133900
      9 C10         3.8980   -0.3600    3.5560 cd        1 113     -0.323400
     10 C11         2.4760   -0.7090    3.7370 c         1 113      0.618900
     11 C12         5.8600    0.0160    2.0520 c3        1 113     -0.070200
     12 C13         6.5420    0.5200    3.3260 c3        1 113      0.145100
     13 O14         6.1520   -0.2610    4.4630 os        1 113     -0.416600
     14 C15         4.7680   -0.1780    4.7630 c3        1 113      0.402100
     15 O16        -1.7940    0.4120    1.4500 oh        1 113     -0.565100
     16 O17        -0.4970    0.3190   -0.9470 oh        1 113     -0.515100
     17 C18        -0.3790    0.2230    4.0270 c         1 113      0.928200
     18 O19         0.2910    0.8050    4.9170 o         1 113     -0.811800
     19 O20         4.6630    1.1270    5.3170 os        1 113     -0.459600
     20 C22         3.4940    1.3200    6.1060 c3        1 113      0.107700
     21 C26         8.0500    0.3930    3.2220 c3        1 113     -0.091100
     22 O30        -1.5940   -0.1160    4.1400 o         1 113     -0.811800
     23 O31         2.0790   -1.3410    4.7200 o         1 113     -0.511100
     24 H2          2.0840   -0.0180   -0.8400 ha        1 113      0.149000
     25 H121        5.9830    0.7720    1.2340 hc        1 113      0.067200
     26 H122        6.3300   -0.9440    1.7110 hc        1 113      0.067200
     27 H13         6.2460    1.5910    3.5100 h1        1 113      0.066700
     28 H15         4.5730   -0.9760    5.5350 h2        1 113      0.094700
     29 H16        -2.1600    0.2920    2.3530 ho        1 113      0.491000
     30 H17        -1.4320    0.4340   -0.7160 ho        1 113      0.436000
     31 H221        3.5120    2.4090    6.3550 h1        1 113      0.052033
     32 H222        2.5630    1.0590    5.5360 h1        1 113      0.052033
     33 H223        3.5610    0.7040    7.0370 h1        1 113      0.052033
     34 H261        8.3450   -0.6770    3.1160 hc        1 113      0.040033
     35 H262        8.4090    0.9640    2.3340 hc        1 113      0.040033
     36 H263        8.5280    0.8020    4.1430 hc        1 113      0.040033
@<TRIPOS>BOND
     1    1    2 ar  
     2    1    6 ar  
     3    1   16 1   
     4    2    3 ar  
     5    2   24 1   
     6    3    4 ar  
     7    3    7 1   
     8    4    5 ar  
     9    4   10 1   
    10    5    6 ar  
    11    5   17 1   
    12    6   15 1   
    13    7    8 1   
    14    8    9 2   
    15    8   11 1   
    16    9   10 1   
    17    9   14 1   
    18   10   23 2   
    19   11   12 1   
    20   11   25 1   
    21   11   26 1   
    22   12   13 1   
    23   12   21 1   
    24   12   27 1   
    25   13   14 1   
    26   14   19 1   
    27   14   28 1   
    28   15   29 1   
    29   16   30 1   
    30   17   18 1   
    31   17   22 1   
    32   19   20 1   
    33   20   31 1   
    34   20   32 1   
    35   20   33 1   
    36   21   34 1   
    37   21   35 1   
    38   21   36 1   
@<TRIPOS>SUBSTRUCTURE
     1 113         1 TEMP              0 ****  ****    0 ROOT
