@<TRIPOS>MOLECULE
113
   36    34     1     0     0
SMALL
bcc


@<TRIPOS>ATOM
      1 C1         -3.1240   -0.1560   -3.1350 c1        1 113      0.065000
      2 C2         -1.6920   -0.2020   -3.1460 c1        1 113     -0.238000
      3 C3         -0.9810   -0.1490   -1.9470 c1        1 113      0.059000
      4 C4         -1.6800   -0.0470   -0.7020 c1        1 113     -0.146000
      5 C5         -3.1040   -0.0000   -0.6930 c1        1 113     -0.076000
      6 C6         -3.8190   -0.0550   -1.9120 c1        1 113      0.065000
      7 O8          0.4220   -0.1890   -1.9650 os        1 113     -0.149000
      8 C9          1.1460   -0.1300   -0.7550 c1        1 113      0.099000
      9 C10         0.4260   -0.0260    0.5210 c1        1 113     -0.290000
     10 C11        -0.9370    0.0140    0.5400 c2        1 113      0.336000
     11 C12         2.6970   -0.1760   -0.6980 c3        1 113     -0.154000
     12 C13         3.2890    0.0170    0.5970 c3        1 113      0.036000
     13 O14         2.5690   -0.5130    1.7120 os        1 113     -0.282000
     14 C15         1.2550   -0.1610    1.8440 c3        1 113      0.211000
     15 O16        -5.2740    0.0580   -1.9110 oh        1 113     -0.254000
     16 O17        -3.8230   -0.1680   -4.3270 oh        1 113     -0.254000
     17 C18        -3.8900    0.1080    0.6810 c2        1 113      0.374000
     18 O19        -4.2730    1.1300    1.0440 o         1 113     -0.540500
     19 O20         1.2010    1.1140    2.5340 os        1 113     -0.305000
     20 C22         1.3090    1.0120    3.8980 c3        1 113     -0.073000
     21 C26         4.7390   -0.6770    0.5750 c3        1 113     -0.209000
     22 O30        -4.1570   -0.9540    1.3580 o         1 113     -0.540500
     23 O31        -1.5180    0.2480    1.5820 o         1 113     -0.272000
     24 H2         -1.2020   -0.2730   -4.0160 ha        1 113      0.134000
     25 H121        2.9850   -1.0440   -1.0300 hc        1 113      0.107000
     26 H122        3.0590    0.5420   -1.3260 hc        1 113      0.107000
     27 H13         3.4180    1.0180    0.7460 h1        1 113      0.101000
     28 H15         0.8060   -0.8430    2.4120 h2        1 113      0.140000
     29 H16        -5.4950    0.8510   -2.1110 ho        1 113      0.235000
     30 H17        -3.5680   -0.9090   -4.8290 ho        1 113      0.235000
     31 H221        0.9500    0.1660    4.1840 h1        1 113      0.080000
     32 H222        2.3570    1.0790    4.1860 h1        1 113      0.080000
     33 H223        0.8040    1.7420    4.3220 h1        1 113      0.080000
     34 H261        5.3140   -0.2010   -0.0330 hc        1 113      0.079333
     35 H262        4.6520   -1.5720    0.2900 hc        1 113      0.079333
     36 H263        5.1420   -0.6540    1.5110 hc        1 113      0.079333
@<TRIPOS>BOND
     1    1    6 1   
     2    1   16 1   
     3    2    3 1   
     4    2   24 1   
     5    3    7 1   
     6    4    5 1   
     7    4   10 1   
     8    5   17 1   
     9    6   15 1   
    10    7    8 1   
    11    8   11 1   
    12    9   10 1   
    13    9   14 1   
    14   10   23 1   
    15   11   12 1   
    16   11   25 1   
    17   11   26 1   
    18   12   13 1   
    19   12   21 1   
    20   12   27 1   
    21   13   14 1   
    22   14   19 1   
    23   14   28 1   
    24   15   29 1   
    25   16   30 1   
    26   17   18 1   
    27   17   22 1   
    28   19   20 1   
    29   20   31 1   
    30   20   32 1   
    31   20   33 1   
    32   21   34 1   
    33   21   35 1   
    34   21   36 1   
@<TRIPOS>SUBSTRUCTURE
     1 113         1 TEMP              0 ****  ****    0 ROOT
