@<TRIPOS>MOLECULE
113
   36    38     1     0     0
SMALL
bcc


@<TRIPOS>ATOM
      1 C1          0.1480    0.0660    0.0550 ca        1 113      0.118100
      2 C2          1.5370    0.2040    0.0380 ca        1 113     -0.188000
      3 C3          2.2000    0.2490    1.2690 ca        1 113      0.104100
      4 C4          1.5260    0.1810    2.5040 ca        1 113     -0.173600
      5 C5          0.1410   -0.0560    2.5050 ca        1 113     -0.082600
      6 C6         -0.5450   -0.0700    1.2800 ca        1 113      0.055100
      7 O8          3.5890    0.3640    1.1540 os        1 113     -0.236200
      8 C9          4.3060    0.2320    2.3220 cc        1 113      0.140900
      9 C10         3.7530    0.2350    3.5550 cd        1 113     -0.315400
     10 C11         2.2970    0.3820    3.7430 c         1 113      0.615900
     11 C12         5.7670    0.0780    2.0710 c3        1 113     -0.071200
     12 C13         6.5530    0.2720    3.3690 c3        1 113      0.147100
     13 O14         5.9220   -0.4100    4.4590 os        1 113     -0.425600
     14 C15         4.6250    0.0830    4.7650 c3        1 113      0.399100
     15 O16        -1.9070   -0.2260    1.1600 oh        1 113     -0.565100
     16 O17        -0.4990    0.0470   -1.1620 oh        1 113     -0.515100
     17 C18        -0.6550   -0.3800    3.7740 c         1 113      0.925200
     18 O19        -1.7790    0.1930    3.8970 o         1 113     -0.806800
     19 O20         4.9100    1.3470    5.3560 os        1 113     -0.448600
     20 C22         4.2790    1.5470    6.6110 c3        1 113      0.116700
     21 C26         7.9480   -0.3110    3.2520 c3        1 113     -0.091100
     22 O30        -0.1960   -1.2480    4.5540 o         1 113     -0.806800
     23 O31         1.8190    0.7050    4.8350 o         1 113     -0.512100
     24 H2          2.0870    0.2740   -0.9080 ha        1 113      0.149000
     25 H121        6.1090    0.8220    1.3060 hc        1 113      0.068700
     26 H122        5.9460   -0.9510    1.6570 hc        1 113      0.068700
     27 H13         6.6040    1.3700    3.6140 h1        1 113      0.061700
     28 H15         4.1890   -0.6530    5.4970 h2        1 113      0.099700
     29 H16        -2.3090   -0.1260    2.0500 ho        1 113      0.488000
     30 H17        -1.4490   -0.0360   -0.9820 ho        1 113      0.436000
     31 H221        4.6850    0.8280    7.3660 h1        1 113      0.040700
     32 H222        3.1700    1.4300    6.5170 h1        1 113      0.040700
     33 H223        4.5470    2.5960    6.8890 h1        1 113      0.040700
     34 H261        8.4770    0.1610    2.3910 hc        1 113      0.040033
     35 H262        7.8970   -1.4150    3.0920 hc        1 113      0.040033
     36 H263        8.5190   -0.1170    4.1900 hc        1 113      0.040033
@<TRIPOS>BOND
     1    1    2 ar  
     2    1    6 ar  
     3    1   16 1   
     4    2    3 ar  
     5    2   24 1   
     6    3    4 ar  
     7    3    7 1   
     8    4    5 ar  
     9    4   10 1   
    10    5    6 ar  
    11    5   17 1   
    12    6   15 1   
    13    7    8 1   
    14    8    9 2   
    15    8   11 1   
    16    9   10 1   
    17    9   14 1   
    18   10   23 2   
    19   11   12 1   
    20   11   25 1   
    21   11   26 1   
    22   12   13 1   
    23   12   21 1   
    24   12   27 1   
    25   13   14 1   
    26   14   19 1   
    27   14   28 1   
    28   15   29 1   
    29   16   30 1   
    30   17   18 1   
    31   17   22 1   
    32   19   20 1   
    33   20   31 1   
    34   20   32 1   
    35   20   33 1   
    36   21   34 1   
    37   21   35 1   
    38   21   36 1   
@<TRIPOS>SUBSTRUCTURE
     1 113         1 TEMP              0 ****  ****    0 ROOT
