@<TRIPOS>MOLECULE
114
   64    65     1     0     0
SMALL
bcc


@<TRIPOS>ATOM
      1 O1A         0.4220   -1.2960    6.7610 o         1 114     -0.846300
      2 O1B        -0.5550   -3.2970    6.9200 o         1 114     -0.846300
      3 O3         -0.4020    0.3650    4.7000 oh        1 114     -0.674800
      4 O5         -0.7960    1.3170    1.9980 oh        1 114     -0.634800
      5 O14         1.3560    0.0960   -2.1080 os        1 114     -0.425900
      6 O18         3.2930    0.1080   -3.2370 o         1 114     -0.559000
      7 C1         -0.4480   -2.1500    6.4070 c         1 114      0.909600
      8 C2         -1.4360   -1.7580    5.2970 c3        1 114     -0.234400
      9 C3         -0.7630   -0.9230    4.2190 c3        1 114      0.171100
     10 C4         -1.6930   -0.7090    3.0240 c3        1 114     -0.122400
     11 C5         -0.9680   -0.0870    1.8360 c3        1 114      0.154100
     12 C6         -1.7600   -0.2810    0.5420 c3        1 114     -0.081400
     13 C7         -0.9060    0.0700   -0.6590 c3        1 114     -0.073400
     14 C8         -1.6350   -0.0740   -1.9790 c3        1 114     -0.036700
     15 C9         -2.9300    0.7590   -2.0340 c3        1 114     -0.036500
     16 C10        -3.5320    0.7730   -3.4010 c2        1 114     -0.146200
     17 C11        -2.9000    0.3320   -4.4970 ce        1 114     -0.147000
     18 C12        -1.5590   -0.2310   -4.4020 ce        1 114     -0.077200
     19 C17        -1.1230   -1.2040   -5.2190 c2        1 114     -0.170200
     20 C16         0.1610   -1.9200   -5.0330 c3        1 114     -0.040200
     21 C15         0.7450   -1.6920   -3.6510 c3        1 114     -0.100400
     22 C14         0.6630   -0.2070   -3.3270 c3        1 114      0.157100
     23 C13        -0.7860    0.2800   -3.2120 c3        1 114     -0.020500
     24 C9A        -2.7470    2.1880   -1.5560 c3        1 114     -0.091100
     25 C19         3.2950    0.5790   -0.8040 c3        1 114     -0.107700
     26 C20         4.7530    0.9890   -0.9500 c3        1 114     -0.077400
     27 C21         5.2360    1.7730    0.2420 c3        1 114     -0.094100
     28 C22         3.1260   -0.5990    0.1340 c3        1 114     -0.092100
     29 HO3         0.0460    0.2270    5.5550 ho        1 114      0.465000
     30 HO5        -0.5090    1.4610    2.9100 ho        1 114      0.436000
     31 H21        -2.2650   -1.1710    5.7640 hc        1 114      0.036700
     32 H22        -1.8680   -2.6840    4.8460 hc        1 114      0.036700
     33 H3          0.1760   -1.4480    3.8780 h1        1 114      0.027700
     34 H41        -2.5390   -0.0430    3.3300 hc        1 114      0.049200
     35 H42        -2.1140   -1.7030    2.7260 hc        1 114      0.049200
     36 H5          0.0520   -0.5580    1.7280 h1        1 114      0.027700
     37 H61        -2.6740    0.3640    0.5850 hc        1 114      0.041200
     38 H62        -2.0920   -1.3490    0.4720 hc        1 114      0.041200
     39 H71        -0.0240   -0.6290   -0.6610 hc        1 114      0.058200
     40 H72        -0.5050    1.1110   -0.5460 hc        1 114      0.058200
     41 H8         -1.9360   -1.1580   -2.0750 hc        1 114      0.045700
     42 H9         -3.6710    0.2560   -1.3440 hc        1 114      0.058700
     43 H10        -4.5510    1.1870   -3.4580 ha        1 114      0.118000
     44 H11        -3.3730    0.3450   -5.4900 ha        1 114      0.121000
     45 H17        -1.7340   -1.5350   -6.0730 ha        1 114      0.118000
     46 H161        0.8930   -1.5750   -5.8140 hc        1 114      0.048700
     47 H162       -0.0000   -3.0200   -5.1920 hc        1 114      0.048700
     48 H151        1.8150   -2.0210   -3.6230 hc        1 114      0.058200
     49 H152        0.1790   -2.2780   -2.8820 hc        1 114      0.058200
     50 H14         1.1550    0.3710   -4.1650 h1        1 114      0.062700
     51 H13        -0.7350    1.4070   -3.2670 hc        1 114      0.065700
     52 H9A1       -3.7070    2.7490   -1.6570 hc        1 114      0.040700
     53 H9A2       -2.4360    2.2060   -0.4820 hc        1 114      0.040700
     54 H9A3       -1.9670    2.7140   -2.1560 hc        1 114      0.040700
     55 H19         2.7000    1.4490   -0.3990 hc        1 114      0.090700
     56 H201        4.8700    1.6080   -1.8800 hc        1 114      0.051200
     57 H202        5.3830    0.0700   -1.0870 hc        1 114      0.051200
     58 H211        6.3070    2.0580    0.1030 hc        1 114      0.036700
     59 H212        4.6360    2.7060    0.3730 hc        1 114      0.036700
     60 H213        5.1510    1.1690    1.1780 hc        1 114      0.036700
     61 H221        3.6760   -1.4930   -0.2480 hc        1 114      0.051700
     62 H222        3.5260   -0.3390    1.1440 hc        1 114      0.051700
     63 H223        2.0420   -0.8560    0.2340 hc        1 114      0.051700
     64 C18         2.7150    0.2430   -2.1560 c         1 114      0.634100
@<TRIPOS>BOND
     1    1    7 1   
     2    2    7 1   
     3    3    9 1   
     4    3   29 1   
     5    4   11 1   
     6    4   30 1   
     7    5   22 1   
     8    5   64 1   
     9    6   64 2   
    10    7    8 1   
    11    8    9 1   
    12    8   31 1   
    13    8   32 1   
    14    9   10 1   
    15    9   33 1   
    16   10   11 1   
    17   10   34 1   
    18   10   35 1   
    19   11   12 1   
    20   11   36 1   
    21   12   13 1   
    22   12   37 1   
    23   12   38 1   
    24   13   14 1   
    25   13   39 1   
    26   13   40 1   
    27   14   15 1   
    28   14   23 1   
    29   14   41 1   
    30   15   16 1   
    31   15   24 1   
    32   15   42 1   
    33   16   17 2   
    34   16   43 1   
    35   17   18 1   
    36   17   44 1   
    37   18   19 2   
    38   18   23 1   
    39   19   20 1   
    40   19   45 1   
    41   20   21 1   
    42   20   46 1   
    43   20   47 1   
    44   21   22 1   
    45   21   48 1   
    46   21   49 1   
    47   22   23 1   
    48   22   50 1   
    49   23   51 1   
    50   24   52 1   
    51   24   53 1   
    52   24   54 1   
    53   25   26 1   
    54   25   28 1   
    55   25   55 1   
    56   25   64 1   
    57   26   27 1   
    58   26   56 1   
    59   26   57 1   
    60   27   58 1   
    61   27   59 1   
    62   27   60 1   
    63   28   61 1   
    64   28   62 1   
    65   28   63 1   
@<TRIPOS>SUBSTRUCTURE
     1 114         1 TEMP              0 ****  ****    0 ROOT
