@<TRIPOS>MOLECULE
114
   64    62     1     0     0
SMALL
bcc


@<TRIPOS>ATOM
      1 O1A         3.7380    1.8750    2.2290 o         1 114     -0.219000
      2 O1B         3.6630    3.6370    0.6300 o         1 114     -0.219000
      3 O3          1.2910    1.9460    1.7260 oh        1 114     -0.319000
      4 O5          0.2570    0.2820    3.9090 oh        1 114     -0.380000
      5 O14        -0.1820   -3.3750    8.5100 os        1 114     -0.287000
      6 O18        -1.8720   -4.1830    7.2570 o         1 114     -0.426000
      7 C1          3.6790    2.7550    1.4290 c1        1 114      0.437000
      8 C2         -0.4920    2.8480    0.5000 c2        1 114     -0.322000
      9 C3         -0.0610    2.0500    1.4850 c2        1 114     -0.002000
     10 C4          2.1680   -0.9780    3.3360 c3        1 114     -0.224000
     11 C5          1.0340   -0.8410    4.3350 c3        1 114      0.026000
     12 C6          1.5590   -0.6560    5.7550 c3        1 114     -0.197000
     13 C7          0.4760   -0.8980    6.7860 c3        1 114     -0.159000
     14 C8          0.9650   -0.7160    8.2220 c3        1 114      0.044000
     15 C9          1.4970    0.7120    8.4480 c3        1 114     -0.059000
     16 C10         1.7700    0.9520    9.8950 c2        1 114     -0.209000
     17 C11         1.0270    0.3700   10.8450 c2        1 114     -0.086000
     18 C12        -0.0640   -0.5440   10.5040 c2        1 114      0.108000
     19 C17        -1.0600   -0.7590   11.4210 c2        1 114     -0.443000
     20 C16        -2.2290   -1.5770   11.0570 c3        1 114     -0.043000
     21 C15        -1.8580   -2.6760   10.0850 c3        1 114     -0.168000
     22 C14        -1.0020   -2.1900    8.9150 c3        1 114      0.181000
     23 C13        -0.0600   -1.1140    9.2180 c2        1 114     -0.494000
     24 C9A         0.5510    1.7850    7.9380 c3        1 114     -0.195000
     25 C19         0.2120   -5.4410    7.3840 c3        1 114     -0.167000
     26 C20        -4.4820   -2.0900    7.7210 c2        1 114     -0.229500
     27 C21        -5.6850   -1.9250    7.1880 c2        1 114     -0.229500
     28 C22         0.4650   -6.2930    8.6010 c3        1 114     -0.205000
     29 HO3         1.4130    1.3340    2.4730 ho        1 114      0.254000
     30 HO5        -0.2300    0.6020    4.6780 ho        1 114      0.220000
     31 H21         1.7610   -1.0300    2.2970 hc        1 114      0.080667
     32 H22        -1.5600    2.9500    0.2860 ha        1 114      0.118000
     33 H3          0.1890    3.4300   -0.1290 ha        1 114      0.118000
     34 H41        -0.7140    1.4490    2.1410 h4        1 114      0.145000
     35 H42         2.7430   -1.9090    3.5500 hc        1 114      0.080667
     36 H5          2.8570   -0.1000    3.4010 hc        1 114      0.080667
     37 H61         0.3680   -1.7500    4.2870 h1        1 114      0.083000
     38 H62         1.9720    0.3820    5.8530 hc        1 114      0.087500
     39 H71         2.4030   -1.3730    5.9270 hc        1 114      0.087500
     40 H72        -0.3990   -0.2220    6.6000 hc        1 114      0.077000
     41 H8          0.1070   -1.9530    6.6650 hc        1 114      0.077000
     42 H9          1.8620   -1.4000    8.3410 hc        1 114      0.041000
     43 H10         2.4710    0.8080    7.8860 hc        1 114      0.049000
     44 H11         2.5840    1.6510   10.1280 ha        1 114      0.089000
     45 H17         1.2040    0.5590   11.9150 ha        1 114      0.097000
     46 H161       -1.0420   -0.3080   12.4160 ha        1 114      0.085000
     47 H162       -3.0260   -0.9280   10.5930 hc        1 114      0.032500
     48 H151       -2.6900   -2.0420   11.9710 hc        1 114      0.032500
     49 H152       -2.7840   -3.1580    9.6710 hc        1 114      0.064500
     50 H14        -1.2820   -3.4660   10.6360 hc        1 114      0.064500
     51 H13        -1.6560   -1.9600    8.0250 h1        1 114      0.059000
     52 H9A1       -0.4780    1.5950    8.3270 hc        1 114      0.062333
     53 H9A2        0.5190    1.7890    6.8210 hc        1 114      0.062333
     54 H9A3        0.8860    2.7940    8.2810 hc        1 114      0.062333
     55 H19         1.1780   -5.0120    7.0100 hc        1 114      0.095000
     56 H201       -0.2460   -6.0510    6.5640 hc        1 114      0.095000
     57 H202       -3.7760   -2.8700    7.3930 ha        1 114      0.114250
     58 H211       -4.0970   -1.4550    8.5350 ha        1 114      0.114250
     59 H212       -6.3820   -1.1450    7.5200 ha        1 114      0.114250
     60 H213       -6.0650   -2.5590    6.3770 ha        1 114      0.114250
     61 H221        1.2070   -7.0920    8.3630 hc        1 114      0.077333
     62 H222       -0.4800   -6.7770    8.9460 hc        1 114      0.077333
     63 H223        0.8640   -5.6640    9.4340 hc        1 114      0.077333
     64 C18        -0.7190   -4.2980    7.7040 c2        1 114      0.295000
@<TRIPOS>BOND
     1    1    7 1   
     2    2    7 1   
     3    3    9 1   
     4    3   29 1   
     5    4   11 1   
     6    4   30 1   
     7    5   22 1   
     8    5   64 1   
     9    6   64 1   
    10    8    9 1   
    11    8   32 1   
    12    8   33 1   
    13    9   34 1   
    14   10   11 1   
    15   10   31 1   
    16   10   35 1   
    17   10   36 1   
    18   11   12 1   
    19   11   37 1   
    20   12   13 1   
    21   12   38 1   
    22   12   39 1   
    23   13   14 1   
    24   13   40 1   
    25   13   41 1   
    26   14   15 1   
    27   14   23 1   
    28   14   42 1   
    29   15   16 1   
    30   15   24 1   
    31   15   43 1   
    32   16   17 1   
    33   16   44 1   
    34   17   18 1   
    35   17   45 1   
    36   18   19 1   
    37   18   23 1   
    38   19   20 1   
    39   19   46 1   
    40   20   21 1   
    41   20   47 1   
    42   20   48 1   
    43   21   22 1   
    44   21   49 1   
    45   21   50 1   
    46   22   23 1   
    47   22   51 1   
    48   24   52 1   
    49   24   53 1   
    50   24   54 1   
    51   25   28 1   
    52   25   55 1   
    53   25   56 1   
    54   25   64 1   
    55   26   27 1   
    56   26   57 1   
    57   26   58 1   
    58   27   59 1   
    59   27   60 1   
    60   28   61 1   
    61   28   62 1   
    62   28   63 1   
@<TRIPOS>SUBSTRUCTURE
     1 114         1 TEMP              0 ****  ****    0 ROOT
