@<TRIPOS>MOLECULE
114
   64    64     1     0     0
SMALL
bcc


@<TRIPOS>ATOM
      1 O1A        -0.0300    1.6640   -1.0540 oh        1 114     -0.308000
      2 O1B         0.8300    0.7310   -2.8220 o         1 114     -0.335000
      3 O3          0.6310    0.9710    1.8420 o         1 114     -0.370000
      4 O5         -0.1790    1.9280    5.7020 oh        1 114     -0.356000
      5 O14        -1.3110   -2.4630    8.8410 os        1 114     -0.289000
      6 O18        -3.1410   -1.3770    8.0970 o         1 114     -0.420000
      7 C1          0.7870    0.7100   -1.5890 c2        1 114      0.304000
      8 C2          1.5100   -0.2170   -0.6750 c3        1 114     -0.262000
      9 C3          0.3590    1.2360    3.0190 c2        1 114      0.215000
     10 C4          1.1960    0.7720    4.1660 c3        1 114     -0.233000
     11 C5          0.3770    0.6420    5.4480 c3        1 114      0.033000
     12 C6          1.2570    0.1570    6.5950 c3        1 114     -0.193000
     13 C7          0.4520   -0.0930    7.8550 c3        1 114     -0.163000
     14 C8          1.2020   -0.9520    8.8710 c3        1 114      0.045000
     15 C9          2.5420   -0.2990    9.2620 c3        1 114     -0.059000
     16 C10         3.1820   -1.0600   10.3740 c2        1 114     -0.210000
     17 C11         2.4400   -1.6510   11.3190 c2        1 114     -0.086000
     18 C12         0.9770   -1.5930   11.2820 c2        1 114      0.107000
     19 C17         0.2730   -1.7740   12.4440 c2        1 114     -0.437000
     20 C16        -1.1880   -1.5850   12.4520 c3        1 114     -0.045000
     21 C15        -1.8130   -1.9910   11.1340 c3        1 114     -0.161000
     22 C14        -1.0790   -1.4390    9.9110 c3        1 114      0.181000
     23 C13         0.3680   -1.2920   10.0490 c2        1 114     -0.498000
     24 C9A         2.3930    1.1540    9.6770 c3        1 114     -0.197000
     25 C19        -2.4550   -3.4610    7.0020 c3        1 114     -0.114000
     26 C20        -2.3320   -2.8720    5.6040 c3        1 114     -0.152000
     27 C21        -2.0450   -3.9220    4.5630 c3        1 114     -0.209000
     28 C22        -3.7640   -4.1960    7.1970 c3        1 114     -0.203000
     29 HO3        -0.0190    1.6010   -0.0850 ho        1 114      0.249000
     30 HO5        -0.5370    1.9040    6.5990 ho        1 114      0.224000
     31 H21         0.7760   -0.7670   -0.0350 hc        1 114      0.115333
     32 H22         2.1170   -0.9450   -1.2630 hc        1 114      0.115333
     33 H3          2.1790    0.3700    0.0030 hc        1 114      0.115333
     34 H41        -0.5280    1.8540    3.2870 h4        1 114      0.118000
     35 H42         2.0090    1.5330    4.3240 hc        1 114      0.120500
     36 H5          1.6810   -0.2110    3.9350 hc        1 114      0.120500
     37 H61        -0.4710   -0.0860    5.2850 h1        1 114      0.080000
     38 H62         2.0540    0.9190    6.7930 hc        1 114      0.087000
     39 H71         1.7640   -0.7920    6.2790 hc        1 114      0.087000
     40 H72         0.1650    0.8810    8.3310 hc        1 114      0.080000
     41 H8         -0.4990   -0.6220    7.5750 hc        1 114      0.080000
     42 H9          1.4740   -1.9150    8.3360 hc        1 114      0.039000
     43 H10         3.2180   -0.3400    8.3600 hc        1 114      0.046000
     44 H11         4.2800   -1.0770   10.3880 ha        1 114      0.089000
     45 H17         2.8960   -2.1960   12.1600 ha        1 114      0.098000
     46 H161        0.7630   -2.0120   13.3900 ha        1 114      0.086000
     47 H162       -1.6610   -2.1850   13.2760 hc        1 114      0.033500
     48 H151       -1.4340   -0.5050   12.6610 hc        1 114      0.033500
     49 H152       -1.8080   -3.1120   11.0670 hc        1 114      0.062500
     50 H14        -2.8820   -1.6570   11.0940 hc        1 114      0.062500
     51 H13        -1.5760   -0.4970    9.5450 h1        1 114      0.063000
     52 H9A1        1.5700    1.2460   10.4270 hc        1 114      0.064333
     53 H9A2        2.1540    1.7980    8.7970 hc        1 114      0.064333
     54 H9A3        3.3420    1.5270   10.1340 hc        1 114      0.064333
     55 H19        -1.5990   -4.1710    7.1800 hc        1 114      0.115000
     56 H201       -1.5010   -2.1150    5.6060 hc        1 114      0.086500
     57 H202       -3.2780   -2.3250    5.3520 hc        1 114      0.086500
     58 H211       -1.1010   -4.4690    4.8030 hc        1 114      0.067667
     59 H212       -1.9320   -3.4470    3.5580 hc        1 114      0.067667
     60 H213       -2.8760   -4.6670    4.5070 hc        1 114      0.067667
     61 H221       -3.8720   -5.0040    6.4340 hc        1 114      0.075667
     62 H222       -3.7970   -4.6570    8.2130 hc        1 114      0.075667
     63 H223       -4.6230   -3.4890    7.1000 hc        1 114      0.075667
     64 C18        -2.3590   -2.3380    8.0200 c2        1 114      0.295000
@<TRIPOS>BOND
     1    1    7 1   
     2    1   29 1   
     3    2    7 1   
     4    3    9 1   
     5    4   11 1   
     6    4   30 1   
     7    5   22 1   
     8    5   64 1   
     9    6   64 1   
    10    7    8 1   
    11    8   31 1   
    12    8   32 1   
    13    8   33 1   
    14    9   10 1   
    15    9   34 1   
    16   10   11 1   
    17   10   35 1   
    18   10   36 1   
    19   11   12 1   
    20   11   37 1   
    21   12   13 1   
    22   12   38 1   
    23   12   39 1   
    24   13   14 1   
    25   13   40 1   
    26   13   41 1   
    27   14   15 1   
    28   14   23 1   
    29   14   42 1   
    30   15   16 1   
    31   15   24 1   
    32   15   43 1   
    33   16   17 1   
    34   16   44 1   
    35   17   18 1   
    36   17   45 1   
    37   18   19 1   
    38   18   23 1   
    39   19   20 1   
    40   19   46 1   
    41   20   21 1   
    42   20   47 1   
    43   20   48 1   
    44   21   22 1   
    45   21   49 1   
    46   21   50 1   
    47   22   23 1   
    48   22   51 1   
    49   24   52 1   
    50   24   53 1   
    51   24   54 1   
    52   25   26 1   
    53   25   28 1   
    54   25   55 1   
    55   25   64 1   
    56   26   27 1   
    57   26   56 1   
    58   26   57 1   
    59   27   58 1   
    60   27   59 1   
    61   27   60 1   
    62   28   61 1   
    63   28   62 1   
    64   28   63 1   
@<TRIPOS>SUBSTRUCTURE
     1 114         1 TEMP              0 ****  ****    0 ROOT
