@<TRIPOS>MOLECULE
114
   64    63     1     0     0
SMALL
bcc


@<TRIPOS>ATOM
      1 O1A        -7.0940    3.3460   -2.7590 o         1 114     -0.580000
      2 O1B        -7.9200    3.4500   -0.7440 o         1 114     -0.580000
      3 O3         -6.0940    1.1150   -0.3020 oh        1 114     -0.400000
      4 O5         -3.9320   -0.5460   -0.3230 oh        1 114     -0.359000
      5 O14         2.3170   -0.3260   -0.1870 os        1 114     -0.270000
      6 O18         2.3480    0.3250   -2.3650 o         1 114     -0.361000
      7 C1         -6.9250    3.3980   -1.5120 c2        1 114      0.329000
      8 C2         -5.5270    3.3440   -0.9360 c3        1 114     -0.265000
      9 C3         -5.0700    1.9050   -0.8590 c3        1 114      0.060000
     10 C4         -3.8350    1.8140    0.0090 c3        1 114     -0.202000
     11 C5         -3.0630    0.5630   -0.3430 c3        1 114      0.042000
     12 C6         -1.9570    0.3540    0.6650 c3        1 114     -0.158000
     13 C7         -1.0550   -0.7670    0.1990 c3        1 114     -0.153000
     14 C8         -0.0480   -1.1430    1.3470 c3        1 114     -0.087000
     15 C9         -0.8420   -1.4650    2.5610 c3        1 114     -0.078000
     16 C10         0.0580   -1.9730    3.7350 c2        1 114     -0.145000
     17 C11         1.4700   -2.6720    3.3240 c1        1 114     -0.140000
     18 C12         1.7970   -2.7790    1.7550 c1        1 114     -0.065000
     19 C17         3.2140   -3.4520    1.1650 c1        1 114     -0.162000
     20 C16         3.6950   -2.8800   -0.1680 c2        1 114     -0.122000
     21 C15         2.4040   -2.3550   -1.1330 c3        1 114     -0.179000
     22 C14         1.5940   -1.6060   -0.5690 c3        1 114      0.045000
     23 C13         0.8870   -2.2400    0.8120 c3        1 114     -0.059000
     24 C9A        -2.0130   -2.4880    2.2380 c3        1 114     -0.206000
     25 C18         2.8920    0.3510   -1.2790 c2        1 114      0.304000
     26 C19         4.2030    1.0900   -1.1070 c3        1 114     -0.097000
     27 C20         3.9380    2.5780   -1.0410 c3        1 114     -0.157000
     28 C21         5.1950    3.2950   -0.5950 c3        1 114     -0.214000
     29 C22         5.1080    0.7900   -2.2800 c3        1 114     -0.209000
     30 HO3        -6.6380    0.8370   -0.9480 ho        1 114      0.264000
     31 HO5        -3.9720   -0.9050   -1.1350 ho        1 114      0.235000
     32 H21        -4.9180    3.8490   -1.5090 hc        1 114      0.076000
     33 H22        -5.5290    3.7330   -0.0380 hc        1 114      0.076000
     34 H3         -4.8610    1.5810   -1.7580 h1        1 114      0.066000
     35 H41        -4.1000    1.7800    0.9500 hc        1 114      0.088500
     36 H42        -3.2710    2.5980   -0.1430 hc        1 114      0.088500
     37 H5         -2.6770    0.6580   -1.2360 h1        1 114      0.069000
     38 H61        -2.3450    0.1200    1.5310 hc        1 114      0.081500
     39 H62        -1.4360    1.1760    0.7530 hc        1 114      0.081500
     40 H71        -1.5970   -1.5490   -0.0280 hc        1 114      0.088000
     41 H72        -0.5560   -0.4770   -0.5900 hc        1 114      0.088000
     42 H8          0.4950   -0.3550    1.5440 hc        1 114      0.102000
     43 H9         -1.3540   -0.6840    2.8440 hc        1 114      0.098000
     44 H10        -0.3340   -2.1440    4.6120 ha        1 114      0.117000
     45 H11         1.9300   -3.2530    3.9600 ha        1 114      0.117000
     46 H17         3.8520   -3.8620    1.7790 ha        1 114      0.115000
     47 H161        4.2750   -3.4790   -0.6810 ha        1 114      0.086500
     48 H162        4.3140   -2.1450    0.0180 ha        1 114      0.086500
     49 H151        2.7730   -1.8820   -1.9070 hc        1 114      0.095500
     50 H152        1.9200   -3.1450   -1.4550 hc        1 114      0.095500
     51 H14         0.8850   -1.3840   -1.2040 h1        1 114      0.112000
     52 H13         0.3170   -2.9800    0.5230 hc        1 114      0.102000
     53 H9A1       -1.8250   -2.9410    1.3900 hc        1 114      0.077333
     54 H9A2       -2.0740   -3.1510    2.9570 hc        1 114      0.077333
     55 H9A3       -2.8610   -2.0020    2.1680 hc        1 114      0.077333
     56 H19         4.6340    0.7990   -0.2810 hc        1 114      0.118000
     57 H201        3.6740    2.9020   -1.9250 hc        1 114      0.099000
     58 H202        3.2190    2.7530   -0.4010 hc        1 114      0.099000
     59 H211        5.6370    2.7730    0.1080 hc        1 114      0.080667
     60 H212        5.8020    3.3940   -1.3580 hc        1 114      0.080667
     61 H213        4.9610    4.1800   -0.2470 hc        1 114      0.080667
     62 H221        6.0400    0.9450   -2.0210 hc        1 114      0.083667
     63 H222        4.8750    1.3770   -3.0300 hc        1 114      0.083667
     64 H223        4.9940   -0.1450   -2.5500 hc        1 114      0.083667
@<TRIPOS>BOND
     1    1    7 1   
     2    2    7 1   
     3    3    9 1   
     4    3   30 1   
     5    4   11 1   
     6    4   31 1   
     7    5   22 1   
     8    5   25 1   
     9    6   25 1   
    10    7    8 1   
    11    8    9 1   
    12    8   32 1   
    13    8   33 1   
    14    9   10 1   
    15    9   34 1   
    16   10   11 1   
    17   10   35 1   
    18   10   36 1   
    19   11   12 1   
    20   11   37 1   
    21   12   13 1   
    22   12   38 1   
    23   12   39 1   
    24   13   14 1   
    25   13   40 1   
    26   13   41 1   
    27   14   15 1   
    28   14   23 1   
    29   14   42 1   
    30   15   16 1   
    31   15   24 1   
    32   15   43 1   
    33   16   17 1   
    34   16   44 1   
    35   17   45 1   
    36   18   19 1   
    37   18   23 1   
    38   19   46 1   
    39   20   21 1   
    40   20   47 1   
    41   20   48 1   
    42   21   22 1   
    43   21   49 1   
    44   21   50 1   
    45   22   23 1   
    46   22   51 1   
    47   23   52 1   
    48   24   53 1   
    49   24   54 1   
    50   24   55 1   
    51   25   26 1   
    52   26   27 1   
    53   26   29 1   
    54   26   56 1   
    55   27   28 1   
    56   27   57 1   
    57   27   58 1   
    58   28   59 1   
    59   28   60 1   
    60   28   61 1   
    61   29   62 1   
    62   29   63 1   
    63   29   64 1   
@<TRIPOS>SUBSTRUCTURE
     1 114         1 TEMP              0 ****  ****    0 ROOT
