@<TRIPOS>MOLECULE
115
   57    59     1     0     0
SMALL
bcc


@<TRIPOS>ATOM
      1 C10         0.1050   -0.3340    3.7440 ca        1 115     -0.076800
      2 C15         1.5000   -0.2400    3.3750 ca        1 115     -0.041200
      3 C14         2.5020   -0.5650    4.3050 ca        1 115     -0.137000
      4 C13         2.1130   -0.9720    5.5720 ca        1 115     -0.129000
      5 C12         0.7580   -1.0620    5.9340 ca        1 115     -0.162000
      6 C11        -0.2450   -0.7460    5.0310 ca        1 115     -0.093000
      7 C8         -0.6570    0.0720    2.5840 cc        1 115     -0.129400
      8 C9          0.2640    0.3780    1.5670 cd        1 115      0.002700
      9 N1          1.5740    0.1960    2.0450 na        1 115     -0.057400
     10 C83        -4.2560   -0.9130    2.9160 ca        1 115     -0.165500
     11 C82        -2.8680   -0.9590    2.9470 ca        1 115     -0.106000
     12 C81        -2.0990    0.1380    2.5250 ca        1 115     -0.000800
     13 C86        -2.7560    1.2930    2.0760 ca        1 115     -0.106000
     14 C85        -4.1440    1.3570    2.0360 ca        1 115     -0.165500
     15 C84        -4.9010    0.2500    2.4570 ca        1 115      0.107900
     16 F1         -6.2560    0.3040    2.4250 f         1 115     -0.150900
     17 O1B         0.0890   -1.0720   -7.9910 o         1 115     -0.844300
     18 O1A         1.5160    0.5330   -7.3810 o         1 115     -0.844300
     19 O3          2.2610    0.6400   -4.7230 oh        1 115     -0.677800
     20 C2          0.9020   -1.1130   -5.7290 c3        1 115     -0.235400
     21 C3          1.0120   -0.0380   -4.6610 c3        1 115      0.171100
     22 C4          0.9060   -0.6400   -3.2590 c3        1 115     -0.122400
     23 C5          0.6870    0.4200   -2.1870 c3        1 115      0.151100
     24 C6          0.2800   -0.2290   -0.8630 c3        1 115     -0.082400
     25 C7         -0.0460    0.8220    0.1840 c3        1 115     -0.037200
     26 C91         2.7840    0.4240    1.2800 c3        1 115      0.032000
     27 C92         3.6660    1.5280    1.8680 c3        1 115     -0.106100
     28 C93         3.6220   -0.8420    1.0900 c3        1 115     -0.106100
     29 O5          1.8690    1.1690   -1.9230 oh        1 115     -0.648800
     30 H14         3.5660   -0.5000    4.0390 ha        1 115      0.131000
     31 H13         2.8830   -1.2320    6.3140 ha        1 115      0.121000
     32 H12         0.4970   -1.3890    6.9500 ha        1 115      0.121000
     33 H11        -1.3060   -0.8150    5.3120 ha        1 115      0.132000
     34 H83        -4.8550   -1.7760    3.2400 ha        1 115      0.142000
     35 H82        -2.3580   -1.8680    3.3040 ha        1 115      0.142000
     36 H86        -2.1640    2.1660    1.7580 ha        1 115      0.142000
     37 H85        -4.6550    2.2630    1.6800 ha        1 115      0.142000
     38 HO3         2.4010    0.8810   -5.6580 ho        1 115      0.468000
     39 H21         1.8020   -1.7760   -5.6890 hc        1 115      0.037700
     40 H22        -0.0070   -1.7360   -5.5500 hc        1 115      0.037700
     41 H3          0.1900    0.7200   -4.8110 h1        1 115      0.029700
     42 H41         1.8460   -1.2060   -3.0320 hc        1 115      0.051200
     43 H42         0.0470   -1.3580   -3.2460 hc        1 115      0.051200
     44 H5         -0.1160    1.1390   -2.5200 h1        1 115      0.034700
     45 H61         1.1170   -0.8900   -0.5170 hc        1 115      0.050700
     46 H62        -0.6150   -0.8790   -1.0400 hc        1 115      0.050700
     47 H71        -1.1410    1.0690    0.1310 hc        1 115      0.069700
     48 H72         0.5200    1.7690   -0.0430 hc        1 115      0.069700
     49 H91         2.4570    0.7680    0.2440 h1        1 115      0.116700
     50 H921        4.5290    1.6950    1.1790 hc        1 115      0.043700
     51 H922        3.0970    2.4840    1.9620 hc        1 115      0.043700
     52 H923        4.0570    1.2450    2.8730 hc        1 115      0.043700
     53 H931        4.0110   -1.2240    2.0630 hc        1 115      0.043700
     54 H932        3.0200   -1.6470    0.6040 hc        1 115      0.043700
     55 H933        4.4870   -0.5980    0.4260 hc        1 115      0.043700
     56 HO5         2.2920    1.3490   -2.7750 ho        1 115      0.446000
     57 C1          0.8250   -0.5040   -7.1400 c         1 115      0.910600
@<TRIPOS>BOND
     1    1    2 ar  
     2    1    6 ar  
     3    1    7 1   
     4    2    3 ar  
     5    2    9 1   
     6    3    4 ar  
     7    3   30 1   
     8    4    5 ar  
     9    4   31 1   
    10    5    6 ar  
    11    5   32 1   
    12    6   33 1   
    13    7    8 2   
    14    7   12 1   
    15    8    9 1   
    16    8   25 1   
    17    9   26 1   
    18   10   11 ar  
    19   10   15 ar  
    20   10   34 1   
    21   11   12 ar  
    22   11   35 1   
    23   12   13 ar  
    24   13   14 ar  
    25   13   36 1   
    26   14   15 ar  
    27   14   37 1   
    28   15   16 1   
    29   17   57 1   
    30   18   57 1   
    31   19   21 1   
    32   19   38 1   
    33   20   21 1   
    34   20   39 1   
    35   20   40 1   
    36   20   57 1   
    37   21   22 1   
    38   21   41 1   
    39   22   23 1   
    40   22   42 1   
    41   22   43 1   
    42   23   24 1   
    43   23   29 1   
    44   23   44 1   
    45   24   25 1   
    46   24   45 1   
    47   24   46 1   
    48   25   47 1   
    49   25   48 1   
    50   26   27 1   
    51   26   28 1   
    52   26   49 1   
    53   27   50 1   
    54   27   51 1   
    55   27   52 1   
    56   28   53 1   
    57   28   54 1   
    58   28   55 1   
    59   29   56 1   
@<TRIPOS>SUBSTRUCTURE
     1 115         1 TEMP              0 ****  ****    0 ROOT
