@<TRIPOS>MOLECULE
115
   57    49     1     0     0
SMALL
bcc


@<TRIPOS>ATOM
      1 C10        -0.3370    0.8180    3.1090 c1        1 115     -0.030500
      2 C15         1.0370    0.7530    3.1450 c1        1 115     -0.030500
      3 C14         1.7100    0.7050    4.3870 c1        1 115     -0.115000
      4 C13         0.9850    0.7220    5.5720 c1        1 115     -0.140750
      5 C12        -0.4150    0.7870    5.5360 c1        1 115     -0.140750
      6 C11        -1.0770    0.8350    4.3160 c1        1 115     -0.115000
      7 C8         -0.7330    0.8230    1.7630 c1        1 115     -0.153000
      8 C9          0.4070    0.7610    0.9840 c1        1 115      0.034000
      9 N1          1.5040    0.7180    1.8320 n1        1 115     -0.149000
     10 C83        -4.0980    2.1870    1.0460 c1        1 115     -0.164000
     11 C82        -2.7200    2.1160    1.2420 c1        1 115     -0.107000
     12 C81        -2.1060    0.8830    1.4290 c1        1 115      0.011000
     13 C86        -2.8630   -0.2730    1.4210 c1        1 115     -0.140750
     14 C85        -4.2430   -0.2020    1.2250 c1        1 115     -0.140750
     15 C84        -4.8560    1.0280    1.0390 c1        1 115      0.073000
     16 F1         -6.1550    1.0830    0.7140 f         1 115     -0.116000
     17 O1B        -0.7620   -3.2490   -7.5790 o         1 115     -0.579000
     18 O1A        -2.3870   -2.0460   -6.7830 o         1 115     -0.579000
     19 O3          1.1110   -1.6890   -5.4370 oh        1 115     -0.405000
     20 C1         -1.3690   -2.7560   -6.5980 c2        1 115      0.330000
     21 C2         -0.8530   -2.9840   -5.2010 c3        1 115     -0.264000
     22 C3         -0.0950   -1.7730   -4.7420 c3        1 115      0.060000
     23 C4          0.1850   -1.8870   -3.2400 c3        1 115     -0.201000
     24 C5          0.4850   -0.5320   -2.6800 c3        1 115      0.040000
     25 C6          0.4790   -0.6030   -1.1430 c3        1 115     -0.161000
     26 C7          0.4720    0.8360   -0.5560 c2        1 115     -0.120000
     27 C91         2.8820    0.7650    1.3780 c2        1 115      0.012000
     28 C92         3.5030    2.1100    1.7680 c3        1 115     -0.224000
     29 C93         3.6870   -0.3820    2.0420 c3        1 115     -0.224000
     30 O5          1.7310   -0.1160   -3.1180 oh        1 115     -0.376000
     31 H14         2.5760    0.9160    4.7850 ha        1 115      0.131500
     32 H13         1.3250    0.7940    6.5030 ha        1 115      0.131500
     33 H12        -0.7370    0.7710    6.4800 ha        1 115      0.131500
     34 H11        -2.0380    0.6680    4.4200 ha        1 115      0.131500
     35 H83        -4.5370    3.0680    0.9130 ha        1 115      0.143000
     36 H82        -2.1870    2.9440    1.2940 ha        1 115      0.141000
     37 H86        -2.4300   -1.1460    1.5520 ha        1 115      0.131500
     38 H85        -4.7880   -1.0350    1.2200 ha        1 115      0.131500
     39 HO3         1.0580   -1.0450   -6.0460 ho        1 115      0.267000
     40 H21        -0.2680   -3.7500   -5.1960 hc        1 115      0.077000
     41 H22        -1.5990   -3.1440   -4.6040 hc        1 115      0.077000
     42 H3         -0.6240   -0.9740   -4.9140 h1        1 115      0.069000
     43 H41         0.9580   -2.4810   -3.0940 hc        1 115      0.090500
     44 H42        -0.6020   -2.2580   -2.7890 hc        1 115      0.090500
     45 H5         -0.1880    0.0960   -2.9760 h1        1 115      0.074000
     46 H61         1.2820   -1.0820   -0.8330 hc        1 115      0.090000
     47 H62        -0.3340   -1.0880   -0.8380 hc        1 115      0.090000
     48 H71        -0.3100    1.3220   -0.8940 ha        1 115      0.109000
     49 H72         1.2900    1.3050   -0.8250 ha        1 115      0.109000
     50 H91         2.9100    0.6630    0.4100 ha        1 115      0.156000
     51 H921        2.8350    2.8280    1.6540 hc        1 115      0.083000
     52 H922        4.2830    2.2920    1.1920 hc        1 115      0.083000
     53 H923        3.7860    2.0780    2.6950 hc        1 115      0.083000
     54 H931        3.1250   -1.1850    2.1030 hc        1 115      0.083000
     55 H932        4.4870   -0.5800    1.4970 hc        1 115      0.083000
     56 H933        3.9620   -0.1090    2.9360 hc        1 115      0.083000
     57 HO5         1.6570    0.6880   -3.5190 ho        1 115      0.245000
@<TRIPOS>BOND
     1    1    6 1   
     2    2    3 1   
     3    3   31 1   
     4    4    5 1   
     5    4   32 1   
     6    5   33 1   
     7    6   34 1   
     8    7    8 1   
     9    7   12 1   
    10    8    9 1   
    11   10   15 1   
    12   10   35 1   
    13   11   12 1   
    14   11   36 1   
    15   13   14 1   
    16   13   37 1   
    17   14   38 1   
    18   15   16 1   
    19   17   20 1   
    20   18   20 1   
    21   19   22 1   
    22   19   39 1   
    23   20   21 1   
    24   21   22 1   
    25   21   40 1   
    26   21   41 1   
    27   22   23 1   
    28   22   42 1   
    29   23   24 1   
    30   23   43 1   
    31   23   44 1   
    32   24   25 1   
    33   24   30 1   
    34   24   45 1   
    35   25   26 1   
    36   25   46 1   
    37   25   47 1   
    38   26   48 1   
    39   26   49 1   
    40   27   28 1   
    41   27   29 1   
    42   27   50 1   
    43   28   51 1   
    44   28   52 1   
    45   28   53 1   
    46   29   54 1   
    47   29   55 1   
    48   29   56 1   
    49   30   57 1   
@<TRIPOS>SUBSTRUCTURE
     1 115         1 TEMP              0 ****  ****    0 ROOT
