@<TRIPOS>MOLECULE
115
   55    56     1     0     0
SMALL
bcc


@<TRIPOS>ATOM
      1 C10         0.2690    0.2010    0.0690 c2        1 115     -0.079000
      2 C15         1.6790    0.2090    0.1600 c2        1 115     -0.099000
      3 C14         2.3910    0.1620    1.4550 c3        1 115     -0.094000
      4 C13         1.4660   -0.0590    2.5970 c2        1 115     -0.139000
      5 C12         0.1230   -0.0930    2.4590 c2        1 115     -0.190000
      6 C11        -0.5350    0.2530    1.2270 c1        1 115     -0.028000
      7 C8         -0.0820    0.2900   -1.3450 c2        1 115      0.016000
      8 C9          1.2250    0.3270   -2.0510 c2        1 115     -0.131000
      9 N1          2.2650    0.3280   -1.1350 na        1 115      0.161000
     10 C83        -4.6420   -2.4080   -3.4250 c2        1 115     -0.119000
     11 C82        -5.0070   -2.3730   -2.1420 c2        1 115     -0.239000
     12 C81        -1.2490    0.2920   -1.9380 c1        1 115     -0.287000
     13 C86        -2.3680    0.3660   -2.6720 c2        1 115      0.137000
     14 C85        -2.9700   -0.6010   -3.3610 c1        1 115     -0.456000
     15 C84        -3.6100   -1.5410   -4.0030 c2        1 115      0.104000
     16 F1         -3.3660   -1.7990   -5.3350 f         1 115     -0.183000
     17 O1B        -1.4160   -2.2760   -8.9940 os        1 115     -0.276000
     18 O1A        -1.0980   -4.6150   -8.8390 o         1 115     -0.252000
     19 O3          1.3910   -2.3380   -8.2110 oh        1 115     -0.347000
     20 C2         -0.8950   -2.2980   -7.6000 cx        1 115     -0.037000
     21 C3          0.4500   -1.6380   -7.4070 c3        1 115      0.046000
     22 C4          0.8380   -1.6590   -5.9330 c3        1 115     -0.232000
     23 C5          2.0400   -0.7560   -5.6440 c3        1 115      0.070000
     24 C6          2.1920   -0.5320   -4.1760 c2        1 115     -0.269000
     25 C7          1.2720    0.1470   -3.4700 c2        1 115     -0.036000
     26 C91         3.5750    0.5680   -1.3980 c2        1 115     -0.399000
     27 C92         4.0020    1.2960   -2.6150 c3        1 115     -0.108000
     28 C93         4.6630    0.1680   -0.4780 c3        1 115     -0.108000
     29 O5          3.2210   -1.3080   -6.2180 oh        1 115     -0.349000
     30 H1          3.1430   -0.6770    1.4490 hc        1 115      0.117500
     31 H2          2.9620    1.1210    1.6170 hc        1 115      0.117500
     32 H3          1.9580   -0.1730    3.5750 ha        1 115      0.110000
     33 H4         -0.5310   -0.3080    3.3200 ha        1 115      0.130000
     34 H5         -5.7820   -3.0350   -1.7400 ha        1 115      0.109500
     35 H6         -5.1090   -3.1120   -4.1340 ha        1 115      0.104000
     36 H7         -4.5450   -1.6840   -1.4220 ha        1 115      0.109500
     37 H8         -2.8440    1.3740   -2.7020 ha        1 115      0.131000
     38 H10         2.2680   -2.0050   -7.9760 ho        1 115      0.229000
     39 H11         1.6210   -4.7760   -7.0850 ha        1 115      0.000000
     40 H12        -1.6590   -2.0220   -6.8370 h1        1 115      0.192000
     41 H13         1.0790   -4.5760   -7.4400 ha        1 115      0.000000
     42 H14         0.3750   -0.5730   -7.7770 h1        1 115      0.096000
     43 H15         1.0830   -2.7120   -5.6350 hc        1 115      0.119500
     44 H16        -0.0310   -1.3130   -5.3110 hc        1 115      0.119500
     45 H17         1.9210    0.2280   -6.1860 h1        1 115      0.110000
     46 H18         0.3640    0.5410   -3.9710 ha        1 115      0.144000
     47 H19         3.0830   -0.9750   -3.7090 ha        1 115      0.137000
     48 H20         3.1660    1.8830   -3.0730 hc        1 115      0.054833
     49 H21         4.3960    0.5970   -3.3980 hc        1 115      0.054833
     50 H22         4.8250    2.0060   -2.3450 hc        1 115      0.054833
     51 H23         4.7440    0.8510    0.4060 hc        1 115      0.054833
     52 H24         4.5320   -0.8780   -0.1000 hc        1 115      0.054833
     53 H25         5.6380    0.2080   -1.0270 hc        1 115      0.054833
     54 H26         3.4590   -2.0840   -5.6970 ho        1 115      0.202000
     55 C1         -1.0680   -3.4790   -8.4300 cu        1 115      0.315000
@<TRIPOS>BOND
     1    1    2 1   
     2    1    6 1   
     3    1    7 1   
     4    2    3 1   
     5    2    9 1   
     6    3    4 1   
     7    3   30 1   
     8    3   31 1   
     9    4    5 1   
    10    4   32 1   
    11    5    6 1   
    12    5   33 1   
    13    7    8 1   
    14    7   12 1   
    15    8    9 1   
    16    8   25 1   
    17    9   26 1   
    18   10   11 1   
    19   10   15 1   
    20   10   35 1   
    21   11   34 1   
    22   11   36 1   
    23   12   13 1   
    24   13   14 1   
    25   13   37 1   
    26   14   15 1   
    27   15   16 1   
    28   17   20 1   
    29   17   55 1   
    30   18   55 1   
    31   19   21 1   
    32   19   38 1   
    33   20   21 1   
    34   20   40 1   
    35   20   55 1   
    36   21   22 1   
    37   21   42 1   
    38   22   23 1   
    39   22   43 1   
    40   22   44 1   
    41   23   24 1   
    42   23   29 1   
    43   23   45 1   
    44   24   25 1   
    45   24   47 1   
    46   25   46 1   
    47   26   27 1   
    48   26   28 1   
    49   27   48 1   
    50   27   49 1   
    51   27   50 1   
    52   28   51 1   
    53   28   52 1   
    54   28   53 1   
    55   29   54 1   
    56   39   41 1   
@<TRIPOS>SUBSTRUCTURE
     1 115         1 TEMP              0 ****  ****    0 ROOT
