@<TRIPOS>MOLECULE
115
   57    59     1     0     0
SMALL
bcc


@<TRIPOS>ATOM
      1 C10        -0.0310    0.7760   -0.1090 c2        1 115     -0.105000
      2 C15         1.2990    0.3250   -0.3930 c2        1 115     -0.079000
      3 C14         2.4460    0.6610    0.4760 c3        1 115     -0.083000
      4 C13         2.0370    1.4330    1.6790 c2        1 115     -0.166000
      5 C12         0.7670    1.8280    1.9020 c2        1 115     -0.159000
      6 C11        -0.3400    1.5310    1.0220 c1        1 115     -0.137000
      7 C8         -0.8710    0.2530   -1.1490 c2        1 115     -0.307000
      8 C9         -0.0570   -0.5220   -2.0440 c2        1 115      0.174000
      9 N1          1.2930   -0.4250   -1.5630 na        1 115     -0.164000
     10 C83        -4.3360   -0.9590   -1.7550 c2        1 115     -0.231000
     11 C82        -3.1180   -0.8160   -1.1910 c2        1 115     -0.063000
     12 C81        -2.3160    0.4760   -1.2170 c3        1 115      0.028000
     13 C86        -2.7220    1.2280   -2.4670 c2        1 115     -0.019000
     14 C85        -4.0240    1.1580   -2.7200 c1        1 115     -0.310000
     15 C84        -4.9420    0.2620   -2.3320 c2        1 115      0.116000
     16 F1         -6.2790    0.4110   -2.3260 f         1 115     -0.111000
     17 O1B         2.0390   -4.4040  -10.4520 o         1 115     -0.335000
     18 O1A         2.7310   -2.3530  -10.2750 oh        1 115     -0.304000
     19 O3          2.6530   -1.3540   -7.5990 oh        1 115     -0.379000
     20 C2          2.3690   -3.6250   -8.1680 c3        1 115     -0.211000
     21 C3          1.7330   -2.4310   -7.4580 c3        1 115      0.041000
     22 C4          1.4650   -2.7570   -5.9940 c3        1 115     -0.196000
     23 C5          0.5180   -1.7550   -5.3390 c3        1 115      0.016000
     24 C6          0.0700   -2.2540   -3.9550 c3        1 115     -0.054000
     25 C7         -0.5320   -1.1980   -3.1500 c2        1 115     -0.569000
     26 C91         2.4420   -1.0540   -2.1640 c3        1 115      0.021000
     27 C92         3.7040   -0.1840   -2.2000 c3        1 115     -0.224500
     28 C93         2.8090   -2.3970   -1.5240 c3        1 115     -0.224500
     29 O5          1.2020   -0.5100   -5.2730 oh        1 115     -0.388000
     30 H14         2.9750   -0.2780    0.8020 hc        1 115      0.099500
     31 H13         3.1890    1.2860   -0.0970 hc        1 115      0.099500
     32 H12         2.8590    1.6730    2.3710 ha        1 115      0.096000
     33 H11         0.5200    2.4120    2.8040 ha        1 115      0.111000
     34 H83        -2.6340   -1.6370   -0.6420 ha        1 115      0.142000
     35 H82        -4.9180   -1.8850   -1.7400 ha        1 115      0.127000
     36 H86        -2.6070    1.0560   -0.2840 hc        1 115      0.149000
     37 H85        -1.9520    1.6680   -3.1060 ha        1 115      0.150000
     38 HO3         2.3740   -0.6500   -6.9950 ho        1 115      0.252000
     39 H21         2.9440   -1.6730   -9.6160 ho        1 115      0.254000
     40 H22         3.4400   -3.7210   -7.8420 hc        1 115      0.124500
     41 H3          1.8240   -4.5620   -7.8800 hc        1 115      0.124500
     42 H41         0.7690   -2.1480   -7.9710 h1        1 115      0.086000
     43 H42         2.4380   -2.7630   -5.4370 hc        1 115      0.095000
     44 H5          1.0020   -3.7730   -5.9150 hc        1 115      0.095000
     45 H61        -0.3920   -1.6080   -5.9900 h1        1 115      0.068000
     46 H62        -0.6890   -3.0650   -4.1420 hc        1 115      0.050000
     47 H71         0.9370   -2.7490   -3.4430 hc        1 115      0.050000
     48 H72        -1.5860   -0.9830   -3.3870 ha        1 115      0.122000
     49 H91         2.1670   -1.2400   -3.2510 h1        1 115      0.126000
     50 H921        3.4620    0.8740   -2.4570 hc        1 115      0.074833
     51 H922        4.3890   -0.5920   -2.9810 hc        1 115      0.074833
     52 H923        4.2390   -0.2070   -1.2210 hc        1 115      0.074833
     53 H931        3.1350   -2.2570   -0.4650 hc        1 115      0.074833
     54 H932        1.9370   -3.0940   -1.5350 hc        1 115      0.074833
     55 H933        3.6470   -2.8570   -2.1000 hc        1 115      0.074833
     56 HO5         0.7770    0.0030   -4.5650 ho        1 115      0.247000
     57 C1          2.3500   -3.5080   -9.6620 c2        1 115      0.306000
@<TRIPOS>BOND
     1    1    2 1   
     2    1    6 1   
     3    1    7 1   
     4    2    3 1   
     5    2    9 1   
     6    3    4 1   
     7    3   30 1   
     8    3   31 1   
     9    4    5 1   
    10    4   32 1   
    11    5    6 1   
    12    5   33 1   
    13    7    8 1   
    14    7   12 1   
    15    8    9 1   
    16    8   25 1   
    17    9   26 1   
    18   10   11 1   
    19   10   15 1   
    20   10   35 1   
    21   11   12 1   
    22   11   34 1   
    23   12   13 1   
    24   12   36 1   
    25   13   14 1   
    26   13   37 1   
    27   14   15 1   
    28   15   16 1   
    29   17   57 1   
    30   18   39 1   
    31   18   57 1   
    32   19   21 1   
    33   19   38 1   
    34   20   21 1   
    35   20   40 1   
    36   20   41 1   
    37   20   57 1   
    38   21   22 1   
    39   21   42 1   
    40   22   23 1   
    41   22   43 1   
    42   22   44 1   
    43   23   24 1   
    44   23   29 1   
    45   23   45 1   
    46   24   25 1   
    47   24   46 1   
    48   24   47 1   
    49   25   48 1   
    50   26   27 1   
    51   26   28 1   
    52   26   49 1   
    53   27   50 1   
    54   27   51 1   
    55   27   52 1   
    56   28   53 1   
    57   28   54 1   
    58   28   55 1   
    59   29   56 1   
@<TRIPOS>SUBSTRUCTURE
     1 115         1 TEMP              0 ****  ****    0 ROOT
