@<TRIPOS>MOLECULE
116
   68    63     1     0     0
SMALL
bcc


@<TRIPOS>ATOM
      1 C14        -4.0290   -0.0290    3.6370 c3        1 116     -0.075000
      2 O13        -2.6320   -0.3010    3.4130 os        1 116     -0.273000
      3 C13        -2.3650   -0.9600    2.1850 c3        1 116      0.018000
      4 C15        -1.2000   -3.3740    3.0530 c3        1 116     -0.062000
      5 C17        -1.1700   -4.7690    2.4720 c3        1 116     -0.201000
      6 C16        -0.5210   -3.3800    4.4620 c3        1 116     -0.201000
      7 C8         -0.1610   -0.2220    1.1630 c1        1 116      0.002000
      8 C10         0.9490   -0.6790    0.4560 c1        1 116     -0.095000
      9 C9          1.3620   -2.0190    0.5880 c1        1 116      0.013000
     10 N1          0.6750   -2.8700    1.4090 n1        1 116     -0.150000
     11 C12        -0.4370   -2.4140    2.1180 c2        1 116      0.011000
     12 C11        -0.8520   -1.0890    1.9920 c2        1 116     -0.124000
     13 C83        -0.0770    3.3030    2.2730 c1        1 116     -0.173000
     14 C82         0.2760    1.9680    2.1180 c1        1 116     -0.088000
     15 C81        -0.4290    1.1550    1.2200 c1        1 116     -0.057000
     16 C86        -1.4780    1.6850    0.4860 c1        1 116     -0.128500
     17 C85        -1.8350    3.0360    0.6430 c1        1 116     -0.128500
     18 C84        -1.1380    3.8380    1.5310 c1        1 116      0.089000
     19 F1         -1.5210    5.0870    1.7320 f         1 116     -0.109000
     20 O1B        -0.9750    6.0970   -4.7920 o         1 116     -0.580000
     21 O1A        -0.4320    5.2320   -6.7380 o         1 116     -0.580000
     22 O3          1.3520    3.1920   -5.4490 oh        1 116     -0.403000
     23 C1         -0.7770    5.0780   -5.5350 c2        1 116      0.330000
     24 C2         -0.9410    3.6510   -4.9520 c3        1 116     -0.264000
     25 C3          0.3940    3.1650   -4.4170 c3        1 116      0.060000
     26 C4          0.2460    1.7500   -3.9060 c3        1 116     -0.201000
     27 C5          1.2490    1.5040   -2.7640 c3        1 116      0.042000
     28 C6          0.7390    0.3720   -1.8780 c3        1 116     -0.155000
     29 C7          1.6480    0.2530   -0.5880 c3        1 116     -0.128000
     30 C91         2.6850   -2.5010   -0.1010 c3        1 116     -0.076000
     31 C92         2.4710   -3.8910   -0.6990 c3        1 116     -0.198500
     32 C93         3.7940   -2.5600    0.9220 c3        1 116     -0.198500
     33 O5          2.4910    1.1540   -3.3000 oh        1 116     -0.367000
     34 H141       -4.1290    0.5370    4.4380 h1        1 116      0.069667
     35 H142       -4.5120   -0.8800    3.7730 h1        1 116      0.069667
     36 H143       -4.4030    0.4410    2.8510 h1        1 116      0.069667
     37 H131       -2.7660   -1.8440    2.1970 h1        1 116      0.076500
     38 H132       -2.7420   -0.4420    1.4500 h1        1 116      0.076500
     39 H15        -2.1300   -3.0760    3.1400 hc        1 116      0.104000
     40 H171       -1.2250   -4.7160    1.4930 hc        1 116      0.075167
     41 H172       -1.9300   -5.2810    2.8150 hc        1 116      0.075167
     42 H173       -0.3370   -5.2110    2.7280 hc        1 116      0.075167
     43 H161       -1.0160   -3.9870    5.0620 hc        1 116      0.075167
     44 H162        0.4090   -3.6890    4.3770 hc        1 116      0.075167
     45 H163       -0.5310   -2.4740    4.8330 hc        1 116      0.075167
     46 H83         0.4160    3.8690    2.9000 ha        1 116      0.146000
     47 H82         1.0160    1.5950    2.6370 ha        1 116      0.149000
     48 H86        -1.9650    1.1250   -0.1330 ha        1 116      0.149500
     49 H85        -2.5840    3.4140    0.1190 ha        1 116      0.149500
     50 HO3         1.8870    3.8980   -5.3400 ho        1 116      0.265000
     51 H21        -1.2530    3.0430   -5.6560 hc        1 116      0.075500
     52 H22        -1.6000    3.6700   -4.2200 hc        1 116      0.075500
     53 H3          0.6820    3.7440   -3.6910 h1        1 116      0.069000
     54 H41        -0.6720    1.6170   -3.5700 hc        1 116      0.089000
     55 H42         0.4220    1.1160   -4.6410 hc        1 116      0.089000
     56 H5          1.3420    2.3140   -2.2330 h1        1 116      0.073000
     57 H61         0.7670   -0.4670   -2.3750 hc        1 116      0.084000
     58 H62        -0.1840    0.5610   -1.6100 hc        1 116      0.084000
     59 H71         1.7790    1.1410   -0.1970 hc        1 116      0.103000
     60 H72         2.5290   -0.1330   -0.8380 hc        1 116      0.103000
     61 H91         2.9310   -1.8730   -0.8130 hc        1 116      0.138000
     62 H921        2.8730   -3.9290   -1.5960 hc        1 116      0.074667
     63 H922        2.8970   -4.5680   -0.1180 hc        1 116      0.074667
     64 H923        1.5170   -4.0730   -0.7630 hc        1 116      0.074667
     65 H931        3.8560   -3.4690    1.2830 hc        1 116      0.074667
     66 H932        4.6410   -2.3190    0.4990 hc        1 116      0.074667
     67 H933        3.6030   -1.9380    1.6420 hc        1 116      0.074667
     68 HO5         3.0520    1.8190   -3.1960 ho        1 116      0.240000
@<TRIPOS>BOND
     1    1    2 1   
     2    1   34 1   
     3    1   35 1   
     4    1   36 1   
     5    2    3 1   
     6    3   12 1   
     7    3   37 1   
     8    3   38 1   
     9    4    5 1   
    10    4    6 1   
    11    4   11 1   
    12    4   39 1   
    13    5   40 1   
    14    5   41 1   
    15    5   42 1   
    16    6   43 1   
    17    6   44 1   
    18    6   45 1   
    19    7   12 1   
    20    8    9 1   
    21    8   29 1   
    22    9   30 1   
    23   10   11 1   
    24   11   12 1   
    25   13   18 1   
    26   13   46 1   
    27   14   15 1   
    28   14   47 1   
    29   16   17 1   
    30   16   48 1   
    31   17   49 1   
    32   18   19 1   
    33   20   23 1   
    34   21   23 1   
    35   22   25 1   
    36   22   50 1   
    37   23   24 1   
    38   24   25 1   
    39   24   51 1   
    40   24   52 1   
    41   25   26 1   
    42   25   53 1   
    43   26   27 1   
    44   26   54 1   
    45   26   55 1   
    46   27   28 1   
    47   27   33 1   
    48   27   56 1   
    49   28   29 1   
    50   28   57 1   
    51   28   58 1   
    52   29   59 1   
    53   29   60 1   
    54   30   31 1   
    55   30   32 1   
    56   30   61 1   
    57   31   62 1   
    58   31   63 1   
    59   31   64 1   
    60   32   65 1   
    61   32   66 1   
    62   32   67 1   
    63   33   68 1   
@<TRIPOS>SUBSTRUCTURE
     1 116         1 TEMP              0 ****  ****    0 ROOT
