@<TRIPOS>MOLECULE
116
   68    69     1     0     0
SMALL
bcc


@<TRIPOS>ATOM
      1 C14         2.4720    1.9930    5.3560 c3        1 116      0.114700
      2 O13         1.3360    1.7110    4.5590 os        1 116     -0.413600
      3 C13         1.1750    0.3080    4.3230 c3        1 116      0.175700
      4 C17        -2.7680    1.7360    5.2010 c3        1 116     -0.082600
      5 C16        -1.9310   -0.4610    6.0240 c3        1 116     -0.082600
      6 C8          0.3130   -0.2930    2.0360 cp        1 116      0.001000
      7 C10        -0.7580   -0.5260    1.1550 ca        1 116     -0.167600
      8 C9         -2.0790   -0.3270    1.6420 ca        1 116      0.435600
      9 N1         -2.3290    0.0670    2.9100 nb        1 116     -0.675000
     10 C12        -1.2960    0.2980    3.7500 ca        1 116      0.433600
     11 C11         0.0520    0.1160    3.3570 ca        1 116     -0.195600
     12 C83         3.6810    0.3800    0.4800 ca        1 116     -0.168000
     13 C82         2.3680    0.5490    0.9090 ca        1 116     -0.090500
     14 C81         1.6970   -0.4830    1.5780 cp        1 116     -0.054000
     15 C86         2.3540   -1.7000    1.8020 ca        1 116     -0.090500
     16 C85         3.6650   -1.8880    1.3800 ca        1 116     -0.168000
     17 C84         4.3360   -0.8420    0.7190 ca        1 116      0.123900
     18 F1          5.6170   -1.0140    0.3120 f         1 116     -0.143900
     19 O1B        -0.4120   -0.0950   -7.9000 o         1 116     -0.845800
     20 O1A         1.2360    1.4040   -8.0570 o         1 116     -0.845800
     21 O3         -1.7130   -0.3060   -5.4630 oh        1 116     -0.675800
     22 C2         -0.0660    1.3950   -6.0360 c3        1 116     -0.235400
     23 C3         -0.4690    0.2740   -5.0920 c3        1 116      0.171100
     24 C4         -0.6280    0.7910   -3.6620 c3        1 116     -0.122400
     25 C5         -0.7800   -0.3390   -2.6510 c3        1 116      0.153100
     26 C6         -0.5340    0.1670   -1.2300 c3        1 116     -0.076400
     27 C92        -3.8040   -1.9780    0.9810 c3        1 116     -0.080600
     28 C93        -4.3660    0.4490    0.9270 c3        1 116     -0.080600
     29 O5         -2.0940   -0.8880   -2.6590 oh        1 116     -0.639800
     30 H141        2.4730    3.1070    5.4570 h1        1 116      0.030700
     31 H142        2.3800    1.5090    6.3600 h1        1 116      0.030700
     32 H143        3.4080    1.6450    4.8530 h1        1 116      0.030700
     33 H131        2.1350   -0.1150    3.9190 h1        1 116      0.035700
     34 H132        0.9430   -0.2010    5.3000 h1        1 116      0.035700
     35 H15        -0.7110    1.2700    5.5730 hc        1 116      0.066700
     36 H171       -2.5770    2.5800    4.4960 hc        1 116      0.035700
     37 H172       -3.7320    1.2490    4.9190 hc        1 116      0.035700
     38 H173       -2.8690    2.1480    6.2350 hc        1 116      0.035700
     39 H161       -1.0670   -1.1680    6.0330 hc        1 116      0.035700
     40 H162       -2.1360   -0.1350    7.0720 hc        1 116      0.035700
     41 H163       -2.8290   -1.0000    5.6360 hc        1 116      0.035700
     42 H83         4.2070    1.1870   -0.0500 ha        1 116      0.149000
     43 H82         1.8500    1.5030    0.7190 ha        1 116      0.146000
     44 H86         1.8250   -2.5190    2.3140 ha        1 116      0.146000
     45 H85         4.1800   -2.8430    1.5500 ha        1 116      0.149000
     46 HO3        -1.6650   -0.4780   -6.4220 ho        1 116      0.466000
     47 H21        -0.9130    2.1160   -6.1450 hc        1 116      0.036700
     48 H22         0.8160    1.9420   -5.6220 hc        1 116      0.036700
     49 H3          0.3190   -0.5340   -5.1170 h1        1 116      0.029700
     50 H41        -1.5280    1.4560   -3.6090 hc        1 116      0.049700
     51 H42         0.2770    1.3980   -3.4050 hc        1 116      0.049700
     52 H5         -0.0510   -1.1660   -2.8900 h1        1 116      0.032700
     53 H61        -1.3430    0.8930   -0.9600 hc        1 116      0.046200
     54 H62         0.4440    0.7130   -1.1980 hc        1 116      0.046200
     55 H71         0.4880   -1.5000   -0.3000 hc        1 116      0.062700
     56 H72        -1.2820   -1.7470   -0.5320 hc        1 116      0.062700
     57 H91        -2.9240   -0.5070   -0.3370 hc        1 116      0.098700
     58 H921       -4.6540   -2.1800    0.2850 hc        1 116      0.035533
     59 H922       -3.0060   -2.7370    0.7960 hc        1 116      0.035533
     60 H923       -4.1670   -2.0860    2.0300 hc        1 116      0.035533
     61 H931       -4.8550    0.3430    1.9250 hc        1 116      0.035533
     62 H932       -3.9500    1.4810    0.8420 hc        1 116      0.035533
     63 H933       -5.1440    0.3120    0.1360 hc        1 116      0.035533
     64 HO5        -2.3550   -0.9810   -3.5870 ho        1 116      0.441000
     65 C7         -0.5080   -0.9840   -0.2380 c3        1 116     -0.042100
     66 C15        -1.6210    0.7460    5.1600 c3        1 116     -0.117000
     67 C91        -3.2690   -0.5790    0.7380 c3        1 116     -0.131000
     68 C1          0.2840    0.8600   -7.4350 c         1 116      0.910600
@<TRIPOS>BOND
     1    1    2 1   
     2    1   30 1   
     3    1   31 1   
     4    1   32 1   
     5    2    3 1   
     6    3   11 1   
     7    3   33 1   
     8    3   34 1   
     9    4   36 1   
    10    4   37 1   
    11    4   38 1   
    12    4   66 1   
    13    5   39 1   
    14    5   40 1   
    15    5   41 1   
    16    5   66 1   
    17    6    7 ar  
    18    6   11 ar  
    19    6   14 1   
    20    7    8 ar  
    21    7   65 1   
    22    8    9 ar  
    23    8   67 1   
    24    9   10 ar  
    25   10   11 ar  
    26   10   66 1   
    27   12   13 ar  
    28   12   17 ar  
    29   12   42 1   
    30   13   14 ar  
    31   13   43 1   
    32   14   15 ar  
    33   15   16 ar  
    34   15   44 1   
    35   16   17 ar  
    36   16   45 1   
    37   17   18 1   
    38   19   68 1   
    39   20   68 1   
    40   21   23 1   
    41   21   46 1   
    42   22   23 1   
    43   22   47 1   
    44   22   48 1   
    45   22   68 1   
    46   23   24 1   
    47   23   49 1   
    48   24   25 1   
    49   24   50 1   
    50   24   51 1   
    51   25   26 1   
    52   25   29 1   
    53   25   52 1   
    54   26   53 1   
    55   26   54 1   
    56   26   65 1   
    57   27   58 1   
    58   27   59 1   
    59   27   60 1   
    60   27   67 1   
    61   28   61 1   
    62   28   62 1   
    63   28   63 1   
    64   28   67 1   
    65   29   64 1   
    66   35   66 1   
    67   55   65 1   
    68   56   65 1   
    69   57   67 1   
@<TRIPOS>SUBSTRUCTURE
     1 116         1 TEMP              0 ****  ****    0 ROOT
