@<TRIPOS>MOLECULE
117
   75    78     1     0     0
SMALL
bcc


@<TRIPOS>ATOM
      1 C17        -1.5490    1.4180   -3.6830 ca        1 117     -0.122000
      2 C12        -1.6850    0.2950   -2.8500 ca        1 117     -0.015000
      3 C13        -2.7820   -0.5600   -3.0350 ca        1 117     -0.122000
      4 C14        -3.7190   -0.2990   -4.0320 ca        1 117     -0.132500
      5 C15        -3.5760    0.8180   -4.8550 ca        1 117     -0.135000
      6 C16        -2.4900    1.6750   -4.6770 ca        1 117     -0.132500
      7 C83        -4.3760    0.2980    0.9740 ca        1 117     -0.169500
      8 C82        -3.1260    0.5030    0.4000 ca        1 117     -0.085000
      9 C81        -2.2740   -0.5790    0.1420 ca        1 117     -0.036000
     10 C86        -2.6820   -1.8770    0.4790 ca        1 117     -0.085000
     11 C85        -3.9280   -2.1000    1.0540 ca        1 117     -0.169500
     12 C84        -4.7820   -1.0090    1.3010 ca        1 117      0.130900
     13 F1         -6.0000   -1.2190    1.8560 f         1 117     -0.141900
     14 C8         -0.9780   -0.3530   -0.4850 cc        1 117     -0.064300
     15 C19         1.5630   -0.1570   -5.5950 ca        1 117      0.083600
     16 C20         0.9110   -0.8890   -6.6200 ca        1 117     -0.176500
     17 C21         1.3690   -0.8280   -7.9300 ca        1 117     -0.106000
     18 C22         2.4750   -0.0470   -8.2610 ca        1 117     -0.171000
     19 C23         3.1220    0.6770   -7.2630 ca        1 117     -0.106000
     20 C24         2.6830    0.6310   -5.9430 ca        1 117     -0.176500
     21 O1B         0.4250    1.6420    9.5470 o         1 117     -0.843800
     22 O1A         1.5750   -0.2280    9.1340 o         1 117     -0.843800
     23 O3          2.3880   -0.6760    6.5290 oh        1 117     -0.677800
     24 C2          1.3580    1.3750    7.3470 c3        1 117     -0.236400
     25 C3          1.3000    0.2230    6.3570 c3        1 117      0.172100
     26 C4          1.3690    0.7320    4.9170 c3        1 117     -0.122400
     27 C5          1.0790   -0.3690    3.9050 c3        1 117      0.156100
     28 C6          0.7480    0.2290    2.5370 c3        1 117     -0.099400
     29 N1          0.2440   -0.4940    0.1900 na        1 117     -0.031100
     30 C10        -0.7110    0.0330   -1.8150 cd        1 117     -0.078000
     31 C11         0.7210    0.1390   -1.9370 cd        1 117     -0.232600
     32 C18         1.4410    0.4900   -3.1720 c         1 117      0.722700
     33 N2          1.0820   -0.2730   -4.2850 n         1 117     -0.469100
     34 O18         2.3070    1.3830   -3.2320 o         1 117     -0.601100
     35 C9          1.2880   -0.1810   -0.6830 cc        1 117     -0.011600
     36 C91         2.7270   -0.2160   -0.2810 c3        1 117     -0.012400
     37 C93         3.5360   -1.0680   -1.2390 c3        1 117     -0.094100
     38 C92         3.2900    1.1920   -0.2060 c3        1 117     -0.094100
     39 O5          2.1980   -1.2270    3.7090 oh        1 117     -0.642800
     40 H17        -0.6910    2.0950   -3.5420 ha        1 117      0.142500
     41 H13        -2.9010   -1.4350   -2.3770 ha        1 117      0.142500
     42 H14        -4.5760   -0.9750   -4.1670 ha        1 117      0.129500
     43 H15        -4.3170    1.0230   -5.6410 ha        1 117      0.126000
     44 H16        -2.3740    2.5570   -5.3230 ha        1 117      0.129500
     45 H83        -5.0460    1.1450    1.1800 ha        1 117      0.150000
     46 H82        -2.8030    1.5250    0.1430 ha        1 117      0.147500
     47 H86        -2.0120   -2.7280    0.2840 ha        1 117      0.147500
     48 H85        -4.2510   -3.1160    1.3220 ha        1 117      0.150000
     49 H20         0.0340   -1.5110   -6.3870 ha        1 117      0.150500
     50 H21         0.8500   -1.4030   -8.7110 ha        1 117      0.126000
     51 H22         2.8310   -0.0030   -9.3000 ha        1 117      0.125000
     52 H23         3.9950    1.2980   -7.5140 ha        1 117      0.126000
     53 H24         3.2150    1.2170   -5.1760 ha        1 117      0.150500
     54 HO3         2.4470   -0.8620    7.4850 ho        1 117      0.469000
     55 H21A        2.3720    1.8440    7.3200 hc        1 117      0.037700
     56 H22A        0.6000    2.1490    7.0740 hc        1 117      0.037700
     57 H3          0.3400   -0.3500    6.5100 h1        1 117      0.029700
     58 H41         2.3890    1.1520    4.7220 hc        1 117      0.052700
     59 H42         0.6180    1.5540    4.7970 hc        1 117      0.052700
     60 H5          0.2130   -0.9970    4.2630 h1        1 117      0.034700
     61 H61         1.6380    0.7980    2.1620 hc        1 117      0.057700
     62 H62        -0.1060    0.9440    2.6460 hc        1 117      0.057700
     63 H71        -0.5890   -1.3600    1.8960 h1        1 117      0.077700
     64 H72         1.1870   -1.6910    1.6260 h1        1 117      0.077700
     65 HN2         0.3020   -0.8850   -4.1640 hn        1 117      0.325500
     66 H91         2.8220   -0.6760    0.7490 hc        1 117      0.075700
     67 H931        3.1230   -2.1030   -1.2900 hc        1 117      0.044367
     68 H932        3.5270   -0.6250   -2.2650 hc        1 117      0.044367
     69 H933        4.5950   -1.1230   -0.8870 hc        1 117      0.044367
     70 H921        2.7150    1.8040    0.5300 hc        1 117      0.044367
     71 H922        4.3570    1.1500    0.1220 hc        1 117      0.044367
     72 H923        3.2380    1.6920   -1.2050 hc        1 117      0.044367
     73 HO5         2.5840   -1.3970    4.5820 ho        1 117      0.447000
     74 C7          0.3860   -0.8950    1.5680 c3        1 117      0.020300
     75 C1          1.0950    0.8940    8.7840 c         1 117      0.910600
@<TRIPOS>BOND
     1    1    2 ar  
     2    1    6 ar  
     3    1   40 1   
     4    2    3 ar  
     5    2   30 1   
     6    3    4 ar  
     7    3   41 1   
     8    4    5 ar  
     9    4   42 1   
    10    5    6 ar  
    11    5   43 1   
    12    6   44 1   
    13    7    8 ar  
    14    7   12 ar  
    15    7   45 1   
    16    8    9 ar  
    17    8   46 1   
    18    9   10 ar  
    19    9   14 1   
    20   10   11 ar  
    21   10   47 1   
    22   11   12 ar  
    23   11   48 1   
    24   12   13 1   
    25   14   29 1   
    26   14   30 2   
    27   15   16 ar  
    28   15   20 ar  
    29   15   33 1   
    30   16   17 ar  
    31   16   49 1   
    32   17   18 ar  
    33   17   50 1   
    34   18   19 ar  
    35   18   51 1   
    36   19   20 ar  
    37   19   52 1   
    38   20   53 1   
    39   21   75 1   
    40   22   75 1   
    41   23   25 1   
    42   23   54 1   
    43   24   25 1   
    44   24   55 1   
    45   24   56 1   
    46   24   75 1   
    47   25   26 1   
    48   25   57 1   
    49   26   27 1   
    50   26   58 1   
    51   26   59 1   
    52   27   28 1   
    53   27   39 1   
    54   27   60 1   
    55   28   61 1   
    56   28   62 1   
    57   28   74 1   
    58   29   35 1   
    59   29   74 1   
    60   30   31 1   
    61   31   32 1   
    62   31   35 2   
    63   32   33 1   
    64   32   34 2   
    65   33   65 1   
    66   35   36 1   
    67   36   37 1   
    68   36   38 1   
    69   36   66 1   
    70   37   67 1   
    71   37   68 1   
    72   37   69 1   
    73   38   70 1   
    74   38   71 1   
    75   38   72 1   
    76   39   73 1   
    77   63   74 1   
    78   64   74 1   
@<TRIPOS>SUBSTRUCTURE
     1 117         1 TEMP              0 ****  ****    0 ROOT
