@<TRIPOS>MOLECULE
117
   75    65     1     0     0
SMALL
bcc


@<TRIPOS>ATOM
      1 C17        -2.4020   -0.6810    2.6680 c1        1 117     -0.136000
      2 C12        -1.0320   -0.8880    2.6160 c1        1 117     -0.025500
      3 C13        -0.3210   -1.1220    3.7830 c1        1 117     -0.099000
      4 C14        -0.9810   -1.1480    5.0030 c1        1 117     -0.136000
      5 C15        -2.3510   -0.9410    5.0550 c1        1 117     -0.136000
      6 C16        -3.0610   -0.7070    3.8890 c1        1 117     -0.136000
      7 C83         1.9200    2.8200    3.1660 c1        1 117     -0.136000
      8 C82         1.6780    1.6720    2.4230 c1        1 117     -0.136000
      9 C81         0.4910    1.5410    1.7140 c1        1 117     -0.025500
     10 C86        -0.4530    2.5570    1.7480 c1        1 117     -0.099000
     11 C85        -0.2110    3.7060    2.4910 c1        1 117     -0.168000
     12 C84         0.9760    3.8360    3.2000 c1        1 117      0.096000
     13 F1          1.2170    4.9510    3.9070 f         1 117     -0.107000
     14 C8          0.2670    0.4070    0.9320 c1        1 117     -0.010000
     15 C19        -1.6570   -5.0300    1.8870 c1        1 117      0.091000
     16 C20        -0.7700   -6.0380    2.2450 c1        1 117     -0.136000
     17 C21        -1.2250   -7.3410    2.3970 c1        1 117     -0.136000
     18 C22        -2.5660   -7.6370    2.1910 c1        1 117     -0.136000
     19 C23        -3.4510   -6.6300    1.8340 c1        1 117     -0.136000
     20 C24        -2.9960   -5.3260    1.6820 c1        1 117     -0.163000
     21 O1B         1.8720    7.7390   -5.8300 o         1 117     -0.578500
     22 O1A         1.8990    8.0880   -3.6800 o         1 117     -0.578500
     23 O3          2.2810    4.5790   -5.3160 oh        1 117     -0.405000
     24 C1          1.5640    7.3800   -4.6650 c2        1 117      0.330000
     25 C2          0.7090    6.1390   -4.4530 c3        1 117     -0.265000
     26 C3          1.6040    4.9560   -4.1530 c3        1 117      0.061000
     27 C4          0.7550    3.7870   -3.6560 c3        1 117     -0.201000
     28 C5          1.6210    2.8460   -2.8350 c3        1 117      0.045000
     29 C6          0.7340    1.8520   -2.0950 c3        1 117     -0.178000
     30 C7          1.5840    1.0470   -1.1080 c3        1 117     -0.039000
     31 N1          0.7290    0.1660   -0.3370 n3        1 117     -0.099000
     32 C10        -0.3460   -0.7470    1.3920 c1        1 117     -0.145000
     33 C11        -0.2600   -1.6930    0.4080 c1        1 117     -0.145000
     34 C18        -0.6690   -3.1720    0.5400 c1        1 117      0.396000
     35 N2         -1.1960   -3.6640    1.7860 n3        1 117     -0.323000
     36 O18        -0.6120   -3.9090   -0.4300 o         1 117     -0.362000
     37 C9          0.4070   -1.1290   -0.6670 c1        1 117     -0.010000
     38 C91         0.6430   -1.7930   -2.0190 c2        1 117     -0.059000
     39 C93         1.5520   -2.9930   -1.8410 c3        1 117     -0.212000
     40 C92        -0.6840   -2.2460   -2.5990 c3        1 117     -0.212000
     41 O5          2.4900    2.1550   -3.6820 oh        1 117     -0.370000
     42 H17        -2.9020   -0.5160    1.8480 ha        1 117      0.133000
     43 H13         0.6370   -1.2700    3.7460 ha        1 117      0.145000
     44 H14        -0.4830   -1.3120    5.8220 ha        1 117      0.133000
     45 H15        -2.8150   -0.9600    5.9130 ha        1 117      0.133000
     46 H16        -4.0260   -0.5610    3.9270 ha        1 117      0.133000
     47 H83         2.7660    2.9190    3.6550 ha        1 117      0.133000
     48 H82         2.3370    0.9530    2.4080 ha        1 117      0.133000
     49 H86        -1.2830    2.4700    1.2400 ha        1 117      0.145000
     50 H85        -0.8890    4.4090    2.5390 ha        1 117      0.151000
     51 H20         0.1690   -5.8250    2.4150 ha        1 117      0.133000
     52 H21        -0.6050   -8.0470    2.6770 ha        1 117      0.133000
     53 H22        -2.8790   -8.5610    2.2640 ha        1 117      0.133000
     54 H23        -4.4030   -6.8330    1.7200 ha        1 117      0.133000
     55 H24        -3.6920   -4.6750    1.4640 ha        1 117      0.172000
     56 HO3         3.0570    5.0080   -5.3580 ho        1 117      0.268000
     57 H21A        0.1010    6.2870   -3.7010 hc        1 117      0.077000
     58 H22A        0.1900    5.9590   -5.2630 hc        1 117      0.077000
     59 H3          2.2530    5.2050   -3.4630 h1        1 117      0.069000
     60 H41         0.3830    3.3040   -4.4240 hc        1 117      0.092000
     61 H42         0.0300    4.1240   -3.1050 hc        1 117      0.092000
     62 H5          2.1410    3.3640   -2.1880 h1        1 117      0.074000
     63 H61         0.3170    1.2430   -2.7400 hc        1 117      0.097000
     64 H62         0.0380    2.3360   -1.6070 hc        1 117      0.097000
     65 H71         2.2390    0.5160   -1.6010 h1        1 117      0.117000
     66 H72         2.0490    1.6590   -0.5040 h1        1 117      0.117000
     67 HN2        -1.1880   -3.1310    2.5250 hn        1 117      0.239000
     68 H91         1.0620   -1.1530   -2.6270 ha        1 117      0.115000
     69 H931        2.0300   -2.9180   -0.9880 hc        1 117      0.083667
     70 H932        1.0150   -3.8140   -1.8430 hc        1 117      0.083667
     71 H933        2.2010   -3.0250   -2.5770 hc        1 117      0.083667
     72 H921       -1.4190   -1.8230   -2.1040 hc        1 117      0.083667
     73 H922       -0.7580   -3.2210   -2.5230 hc        1 117      0.083667
     74 H923       -0.7340   -1.9860   -3.5430 hc        1 117      0.083667
     75 HO5         3.3130    2.4840   -3.5970 ho        1 117      0.246000
@<TRIPOS>BOND
     1    1    6 1   
     2    1   42 1   
     3    2    3 1   
     4    3   43 1   
     5    4    5 1   
     6    4   44 1   
     7    5   45 1   
     8    6   46 1   
     9    7    8 1   
    10    7   47 1   
    11    8   48 1   
    12    9   10 1   
    13   10   49 1   
    14   11   12 1   
    15   11   50 1   
    16   12   13 1   
    17   14   31 1   
    18   14   32 1   
    19   15   20 1   
    20   15   35 1   
    21   16   17 1   
    22   16   51 1   
    23   17   52 1   
    24   18   19 1   
    25   18   53 1   
    26   19   54 1   
    27   20   55 1   
    28   21   24 1   
    29   22   24 1   
    30   23   26 1   
    31   23   56 1   
    32   24   25 1   
    33   25   26 1   
    34   25   57 1   
    35   25   58 1   
    36   26   27 1   
    37   26   59 1   
    38   27   28 1   
    39   27   60 1   
    40   27   61 1   
    41   28   29 1   
    42   28   41 1   
    43   28   62 1   
    44   29   30 1   
    45   29   63 1   
    46   29   64 1   
    47   30   31 1   
    48   30   65 1   
    49   30   66 1   
    50   31   37 1   
    51   32   33 1   
    52   33   37 1   
    53   34   35 1   
    54   34   36 1   
    55   35   67 1   
    56   38   39 1   
    57   38   40 1   
    58   38   68 1   
    59   39   69 1   
    60   39   70 1   
    61   39   71 1   
    62   40   72 1   
    63   40   73 1   
    64   40   74 1   
    65   41   75 1   
@<TRIPOS>SUBSTRUCTURE
     1 117         1 TEMP              0 ****  ****    0 ROOT
