@<TRIPOS>MOLECULE
117
   76    76     1     0     0
SMALL
bcc


@<TRIPOS>ATOM
      1 C17         1.6480    0.0130    2.1090 c2        1 117     -0.070000
      2 C12         1.9510   -0.5320    0.9110 c2        1 117      0.004000
      3 C13         2.3810   -1.9520    0.7460 c3        1 117     -0.148000
      4 C14         1.2780   -2.8680    0.2410 c3        1 117     -0.051000
      5 C15         1.7380   -1.2160    4.3990 c1        1 117     -0.210000
      6 C16         1.7020   -0.6660    3.3340 c1        1 117     -0.127000
      7 C83         3.8400    4.5090    1.3420 c2        1 117     -0.182000
      8 C82         3.2330    3.6910    0.3200 c2        1 117     -0.084000
      9 C81         3.0430    2.3640    0.4220 c2        1 117     -0.141000
     10 C86         6.4890    2.3470    2.8130 c1        1 117      0.243000
     11 C85         5.6630    2.9370    1.9740 c2        1 117     -0.485000
     12 C84         4.9150    4.1790    2.1030 c2        1 117      0.139000
     13 F1          5.3750    5.0570    3.0340 f         1 117     -0.111000
     14 C8          2.4120    1.5080   -0.5550 c2        1 117      0.060000
     15 C19         1.8580   -3.0730   -3.2950 c2        1 117     -0.080000
     16 C20         3.0070   -2.2850   -3.7380 c2        1 117     -0.158000
     17 C21         3.9140   -2.7290   -4.6100 c2        1 117     -0.177000
     18 C22        -0.0740   -5.9660   -2.4910 c1        1 117     -0.139000
     19 C23         0.8170   -5.2370   -2.8280 c1        1 117     -0.184000
     20 C24         1.8870   -4.4260   -3.2230 c2        1 117     -0.035000
     21 O1B         2.5840    5.3160   -3.7120 o         1 117     -0.284000
     22 O1A         2.6400    3.0740   -3.8290 os        1 117     -0.327000
     23 O3          4.0390    1.9420   -6.0370 oh        1 117     -0.349000
     24 C2          3.4470    4.2790   -5.7550 c3        1 117     -0.205000
     25 C3          3.1710    2.9710   -6.4930 c3        1 117      0.041000
     26 C4          3.4320    3.1420   -7.9870 c3        1 117     -0.199000
     27 C5          3.1110    1.8730   -8.7730 c3        1 117      0.044000
     28 C6          2.8220    2.1950  -10.2290 c3        1 117     -0.213000
     29 N1          2.2460    1.8210   -1.9460 na        1 117     -0.113000
     30 C10         1.9060    0.2340   -0.3140 c2        1 117     -0.096000
     31 C11         1.3660   -0.2890   -1.5780 c2        1 117      0.119000
     32 C18         0.7510   -1.5440   -1.6750 c2        1 117     -0.380000
     33 N2          0.6590   -2.3050   -2.9020 n4        1 117      0.113000
     34 O18         0.2930   -2.2290   -0.5800 os        1 117     -0.154000
     35 C9          1.5650    0.7040   -2.5530 c2        1 117     -0.243000
     36 C91         1.1060    0.7440   -3.9190 c2        1 117     -0.053000
     37 C93         6.1360   -0.6060   -6.5820 c3        1 117     -0.278000
     38 C92        -0.1270    0.4000   -4.3100 c2        1 117     -0.286000
     39 O5          4.2060    0.9680   -8.7720 oh        1 117     -0.339000
     40 H17         1.3200    1.0690    2.1730 ha        1 117      0.149000
     41 H13         3.2420   -1.9810    0.0250 hc        1 117      0.094500
     42 H14         2.7510   -2.3550    1.7270 hc        1 117      0.094500
     43 H15         0.6620   -3.2560    1.0970 h1        1 117      0.081000
     44 H16         1.7680   -1.6980    5.3420 ha        1 117      0.222000
     45 H83         3.3790    5.5040    1.4800 ha        1 117      0.153000
     46 H82         2.8970    4.2530   -0.5760 ha        1 117      0.176000
     47 H86         3.3350    1.8220    1.3430 ha        1 117      0.143000
     48 H85         5.4950    2.4120    1.0020 ha        1 117      0.217000
     49 H20         3.0820   -1.2680   -3.3010 ha        1 117      0.168000
     50 H21         1.7300   -3.7290   -0.3190 h1        1 117      0.081000
     51 H22         3.8710   -3.7230   -5.0760 ha        1 117      0.126500
     52 H23        -0.8630   -6.6090   -2.1890 ha        1 117      0.235000
     53 H24         2.8200   -4.9600   -3.4930 ha        1 117      0.167000
     54 HO3         4.7650   -2.1040   -4.9240 ha        1 117      0.126500
     55 H21A        3.0140    5.1410   -6.3310 hc        1 117      0.135000
     56 H22A        3.8570    1.8040   -5.0980 ho        1 117      0.223000
     57 H3          4.5580    4.4340   -5.6730 hc        1 117      0.135000
     58 H41         4.5070    3.4100   -8.1490 hc        1 117      0.104000
     59 H42         2.1020    2.6590   -6.3160 h1        1 117      0.090000
     60 H5          2.7940    3.9830   -8.3620 hc        1 117      0.104000
     61 H61         3.6670    2.7720  -10.6730 hc        1 117      0.084333
     62 H62         2.2180    1.3610   -8.3100 h1        1 117      0.067000
     63 H71         2.7000    1.2480  -10.8080 hc        1 117      0.084333
     64 H72         1.8850    2.7950  -10.3040 hc        1 117      0.084333
     65 HN2         0.4600   -1.6390   -3.6630 hn        1 117      0.243500
     66 H91         1.8400    1.1110   -4.6630 ha        1 117      0.117000
     67 H931        6.7970   -1.2160   -5.9290 hc        1 117      0.070500
     68 H932        5.4280   -1.2700   -7.1250 hc        1 117      0.070500
     69 H933        5.5630    0.1210   -5.9630 hc        1 117      0.070500
     70 H921       -0.9160    0.1140   -3.6020 ha        1 117      0.118500
     71 H922        6.7530   -0.0500   -7.3220 hc        1 117      0.070500
     72 H923       -0.4280    0.4360   -5.3640 ha        1 117      0.118500
     73 HO5         4.4770    0.8440   -7.8510 ho        1 117      0.221000
     74 H221       -0.1240   -2.9590   -2.7910 hn        1 117      0.243500
     75 C7          2.7370    2.9650   -2.4550 c1        1 117      0.107000
     76 C1          2.8840    4.3300   -4.3710 c2        1 117      0.341000
@<TRIPOS>BOND
     1    1    2 1   
     2    1    6 1   
     3    1   40 1   
     4    2    3 1   
     5    2   30 1   
     6    3    4 1   
     7    3   41 1   
     8    3   42 1   
     9    4   34 1   
    10    4   43 1   
    11    4   50 1   
    12    5    6 1   
    13    5   44 1   
    14    7    8 1   
    15    7   12 1   
    16    7   45 1   
    17    8    9 1   
    18    8   46 1   
    19    9   14 1   
    20    9   47 1   
    21   10   11 1   
    22   11   12 1   
    23   11   48 1   
    24   12   13 1   
    25   14   29 1   
    26   14   30 1   
    27   15   16 1   
    28   15   20 1   
    29   15   33 1   
    30   16   17 1   
    31   16   49 1   
    32   17   51 1   
    33   17   54 1   
    34   18   19 1   
    35   18   52 1   
    36   19   20 1   
    37   20   53 1   
    38   21   76 1   
    39   22   75 1   
    40   22   76 1   
    41   23   25 1   
    42   23   56 1   
    43   24   25 1   
    44   24   55 1   
    45   24   57 1   
    46   24   76 1   
    47   25   26 1   
    48   25   59 1   
    49   26   27 1   
    50   26   58 1   
    51   26   60 1   
    52   27   28 1   
    53   27   39 1   
    54   27   62 1   
    55   28   61 1   
    56   28   63 1   
    57   28   64 1   
    58   29   35 1   
    59   29   75 1   
    60   30   31 1   
    61   31   32 1   
    62   31   35 1   
    63   32   33 1   
    64   32   34 1   
    65   33   65 1   
    66   33   74 1   
    67   35   36 1   
    68   36   38 1   
    69   36   66 1   
    70   37   67 1   
    71   37   68 1   
    72   37   69 1   
    73   37   71 1   
    74   38   70 1   
    75   38   72 1   
    76   39   73 1   
@<TRIPOS>SUBSTRUCTURE
     1 117         1 TEMP              0 ****  ****    0 ROOT
