@<TRIPOS>MOLECULE
119
   45    48     1     0     0
SMALL
bcc


@<TRIPOS>ATOM
      1 P          -0.0000   -0.0000   -0.0000 p5        1 119      1.822000
      2 C1A         1.0930    1.1240   -0.3100 ca        1 119     -0.599500
      3 C2A         2.3700    1.0510    0.2670 ca        1 119     -0.029000
      4 C3A         3.3320    2.0220    0.0230 ca        1 119     -0.142000
      5 C4A         3.0300    3.1010   -0.8150 ca        1 119     -0.039000
      6 C5A         1.7670    3.1930   -1.3990 ca        1 119     -0.142000
      7 C6A         0.8130    2.2110   -1.1440 ca        1 119     -0.029000
      8 C1C        -1.0830   -0.0360   -1.1740 ca        1 119     -0.599500
      9 C6C        -0.9880   -0.9410   -2.2360 ca        1 119     -0.029000
     10 C5C        -1.9290   -0.9570   -3.2610 ca        1 119     -0.142000
     11 C4C        -2.9940   -0.0550   -3.2400 ca        1 119     -0.039000
     12 C3C        -3.1080    0.8600   -2.1890 ca        1 119     -0.142000
     13 C2C        -2.1610    0.8630   -1.1720 ca        1 119     -0.029000
     14 C1D         0.7270   -1.4190    0.1050 ca        1 119     -0.599500
     15 C6D         0.3100   -2.3930    1.0170 ca        1 119     -0.029000
     16 C5D         0.9410   -3.6330    1.0930 ca        1 119     -0.142000
     17 C4D         2.0120   -3.9190    0.2460 ca        1 119     -0.039000
     18 C3D         2.4450   -2.9590   -0.6750 ca        1 119     -0.142000
     19 C2D         1.8060   -1.7280   -0.7380 ca        1 119     -0.029000
     20 C6B        -0.1350    1.1230    2.3620 ca        1 119     -0.029000
     21 C5B        -0.7780    1.3960    3.5670 ca        1 119     -0.142000
     22 C4B        -2.0480    0.8730    3.8090 ca        1 119     -0.039000
     23 C3B        -2.6680    0.0770    2.8400 ca        1 119     -0.142000
     24 C2B        -2.0140   -0.1860    1.6430 ca        1 119     -0.029000
     25 C1B        -0.7360    0.3310    1.3790 ca        1 119     -0.599500
     26 H2A         2.6050    0.1940    0.9220 ha        1 119      0.146500
     27 H3A         4.3280    1.9450    0.4860 ha        1 119      0.160500
     28 H4A         3.7910    3.8750   -1.0120 ha        1 119      0.160000
     29 H5A         1.5240    4.0400   -2.0610 ha        1 119      0.160500
     30 H6A        -0.1840    2.2870   -1.6120 ha        1 119      0.146500
     31 H6C        -0.1500   -1.6600   -2.2550 ha        1 119      0.146500
     32 H5C        -1.8340   -1.6810   -4.0870 ha        1 119      0.160500
     33 H4C        -3.7430   -0.0620   -4.0490 ha        1 119      0.160000
     34 H3C        -3.9470    1.5740   -2.1670 ha        1 119      0.160500
     35 H2C        -2.2520    1.5780   -0.3370 ha        1 119      0.146500
     36 H6D        -0.5340   -2.1710    1.6930 ha        1 119      0.146500
     37 H5D         0.5950   -4.3840    1.8220 ha        1 119      0.160500
     38 H4D         2.5160   -4.8980    0.3010 ha        1 119      0.160000
     39 H3D         3.2910   -3.1810   -1.3450 ha        1 119      0.160500
     40 H2D         2.1490   -0.9650   -1.4580 ha        1 119      0.146500
     41 H5B        -0.2850    2.0250    4.3250 ha        1 119      0.160500
     42 H4B        -2.5630    1.0850    4.7600 ha        1 119      0.160000
     43 H3B        -3.6720   -0.3380    3.0260 ha        1 119      0.160500
     44 H2B        -2.5020   -0.8070    0.8730 ha        1 119      0.146500
     45 H6B         0.8690    1.5430    2.1740 ha        1 119      0.146500
@<TRIPOS>BOND
     1    1    2 1   
     2    1    8 1   
     3    1   14 1   
     4    1   25 1   
     5    2    3 ar  
     6    2    7 ar  
     7    3    4 ar  
     8    3   26 1   
     9    4    5 ar  
    10    4   27 1   
    11    5    6 ar  
    12    5   28 1   
    13    6    7 ar  
    14    6   29 1   
    15    7   30 1   
    16    8    9 ar  
    17    8   13 ar  
    18    9   10 ar  
    19    9   31 1   
    20   10   11 ar  
    21   10   32 1   
    22   11   12 ar  
    23   11   33 1   
    24   12   13 ar  
    25   12   34 1   
    26   13   35 1   
    27   14   15 ar  
    28   14   19 ar  
    29   15   16 ar  
    30   15   36 1   
    31   16   17 ar  
    32   16   37 1   
    33   17   18 ar  
    34   17   38 1   
    35   18   19 ar  
    36   18   39 1   
    37   19   40 1   
    38   20   21 ar  
    39   20   25 ar  
    40   20   45 1   
    41   21   22 ar  
    42   21   41 1   
    43   22   23 ar  
    44   22   42 1   
    45   23   24 ar  
    46   23   43 1   
    47   24   25 ar  
    48   24   44 1   
@<TRIPOS>SUBSTRUCTURE
     1 119         1 TEMP              0 ****  ****    0 ROOT
