@<TRIPOS>MOLECULE
119
   45    48     1     0     0
SMALL
bcc


@<TRIPOS>ATOM
      1 P          -0.0000   -0.0000   -0.0000 p5        1 119      1.822000
      2 C1A         1.5980   -0.0130    0.0050 ca        1 119     -0.599500
      3 C2A         2.3030   -0.0900    1.2160 ca        1 119     -0.029000
      4 C3A         3.6920   -0.0890    1.2470 ca        1 119     -0.142000
      5 C4A         4.4120   -0.0100    0.0510 ca        1 119     -0.039000
      6 C5A         3.7300    0.0680   -1.1650 ca        1 119     -0.142000
      7 C6A         2.3380    0.0660   -1.1790 ca        1 119     -0.029000
      8 C1C        -0.5380   -0.5010   -1.4190 ca        1 119     -0.599500
      9 C6C        -0.9130   -1.8310   -1.6350 ca        1 119     -0.029000
     10 C5C        -1.3690   -2.2620   -2.8790 ca        1 119     -0.142000
     11 C4C        -1.4550   -1.3570   -3.9380 ca        1 119     -0.039000
     12 C3C        -1.0840   -0.0230   -3.7440 ca        1 119     -0.142000
     13 C2C        -0.6320    0.3920   -2.4970 ca        1 119     -0.029000
     14 C1D        -0.5330   -0.9720    1.1510 ca        1 119     -0.599500
     15 C6D        -1.6810   -0.6740    1.8920 ca        1 119     -0.029000
     16 C5D        -2.1460   -1.5330    2.8850 ca        1 119     -0.142000
     17 C4D        -1.4610   -2.7180    3.1530 ca        1 119     -0.039000
     18 C3D        -0.3110   -3.0370    2.4230 ca        1 119     -0.142000
     19 C2D         0.1410   -2.1690    1.4370 ca        1 119     -0.029000
     20 C6B         0.2560    2.4380    0.9220 ca        1 119     -0.029000
     21 C5B        -0.2160    3.7270    1.1590 ca        1 119     -0.142000
     22 C4B        -1.4960    4.0850    0.7340 ca        1 119     -0.039000
     23 C3B        -2.2970    3.1480    0.0730 ca        1 119     -0.142000
     24 C2B        -1.8110    1.8670   -0.1560 ca        1 119     -0.029000
     25 C1B        -0.5270    1.4850    0.2630 ca        1 119     -0.599500
     26 H2A         1.7300   -0.1590    2.1570 ha        1 119      0.146500
     27 H3A         4.2250   -0.1510    2.2090 ha        1 119      0.160500
     28 H4A         5.5140   -0.0100    0.0690 ha        1 119      0.160000
     29 H5A         4.2920    0.1290   -2.1110 ha        1 119      0.160500
     30 H6A         1.8040    0.1240   -2.1430 ha        1 119      0.146500
     31 H6C        -0.8500   -2.5490   -0.8000 ha        1 119      0.146500
     32 H5C        -1.6600   -3.3140   -3.0250 ha        1 119      0.160500
     33 H4C        -1.8150   -1.6920   -4.9250 ha        1 119      0.160000
     34 H3C        -1.1510    0.6950   -4.5770 ha        1 119      0.160500
     35 H2C        -0.3450    1.4460   -2.3370 ha        1 119      0.146500
     36 H6D        -2.2240    0.2650    1.6870 ha        1 119      0.146500
     37 H5D        -3.0510   -1.2760    3.4570 ha        1 119      0.160500
     38 H4D        -1.8230   -3.4020    3.9380 ha        1 119      0.160000
     39 H3D         0.2340   -3.9710    2.6320 ha        1 119      0.160500
     40 H2D         1.0510   -2.4130    0.8630 ha        1 119      0.146500
     41 H5B         0.4200    4.4600    1.6790 ha        1 119      0.160500
     42 H4B        -1.8760    5.1040    0.9180 ha        1 119      0.160000
     43 H3B        -3.3080    3.4270   -0.2650 ha        1 119      0.160500
     44 H2B        -2.4370    1.1260   -0.6830 ha        1 119      0.146500
     45 H6B         1.2700    2.1610    1.2570 ha        1 119      0.146500
@<TRIPOS>BOND
     1    1    2 1   
     2    1    8 1   
     3    1   14 1   
     4    1   25 1   
     5    2    3 ar  
     6    2    7 ar  
     7    3    4 ar  
     8    3   26 1   
     9    4    5 ar  
    10    4   27 1   
    11    5    6 ar  
    12    5   28 1   
    13    6    7 ar  
    14    6   29 1   
    15    7   30 1   
    16    8    9 ar  
    17    8   13 ar  
    18    9   10 ar  
    19    9   31 1   
    20   10   11 ar  
    21   10   32 1   
    22   11   12 ar  
    23   11   33 1   
    24   12   13 ar  
    25   12   34 1   
    26   13   35 1   
    27   14   15 ar  
    28   14   19 ar  
    29   15   16 ar  
    30   15   36 1   
    31   16   17 ar  
    32   16   37 1   
    33   17   18 ar  
    34   17   38 1   
    35   18   19 ar  
    36   18   39 1   
    37   19   40 1   
    38   20   21 ar  
    39   20   25 ar  
    40   20   45 1   
    41   21   22 ar  
    42   21   41 1   
    43   22   23 ar  
    44   22   42 1   
    45   23   24 ar  
    46   23   43 1   
    47   24   25 ar  
    48   24   44 1   
@<TRIPOS>SUBSTRUCTURE
     1 119         1 TEMP              0 ****  ****    0 ROOT
