@<TRIPOS>MOLECULE
11A
   34    33     1     0     0
SMALL
bcc


@<TRIPOS>ATOM
      1 CAA         7.3420    0.4780   -0.0000 c3        1 11A     -0.091100
      2 CAD         6.1210   -0.4050    0.0000 c3        1 11A     -0.080400
      3 CAE         4.8450    0.4100   -0.0000 c3        1 11A     -0.079400
      4 CAF         3.6210   -0.4810    0.0000 c3        1 11A     -0.078400
      5 CAG         2.3460    0.3340   -0.0000 c3        1 11A     -0.079400
      6 CAH         1.1210   -0.5550    0.0000 c3        1 11A     -0.078400
      7 CAI        -0.1550    0.2590   -0.0000 c3        1 11A     -0.078400
      8 CAJ        -1.3810   -0.6280    0.0000 c3        1 11A     -0.079400
      9 CAK        -2.6560    0.1890   -0.0000 c3        1 11A     -0.062400
     10 CAL        -3.8850   -0.6870    0.0000 c3        1 11A     -0.193400
     11 CAM        -5.1870    0.1320   -0.0000 c         1 11A      0.907600
     12 OAC        -6.2750   -0.5160    0.0000 o         1 11A     -0.854800
     13 OAB        -5.1250    1.3950   -0.0010 o         1 11A     -0.854800
     14 HAA1        7.3550    1.1340    0.9040 hc        1 11A      0.029033
     15 HAA2        8.2710   -0.1410    0.0000 hc        1 11A      0.029033
     16 HAA3        7.3550    1.1320   -0.9060 hc        1 11A      0.029033
     17 HAD1        6.1380   -1.0720   -0.9020 hc        1 11A      0.036700
     18 HAD2        6.1380   -1.0710    0.9030 hc        1 11A      0.036700
     19 HAE1        4.8250    1.0770    0.9010 hc        1 11A      0.038700
     20 HAE2        4.8250    1.0750   -0.9030 hc        1 11A      0.038700
     21 HAF1        3.6410   -1.1480   -0.9020 hc        1 11A      0.036700
     22 HAF2        3.6410   -1.1460    0.9030 hc        1 11A      0.036700
     23 HAG1        2.3250    1.0020    0.9010 hc        1 11A      0.037700
     24 HAG2        2.3250    1.0000   -0.9030 hc        1 11A      0.037700
     25 HAH1        1.1410   -1.2220   -0.9010 hc        1 11A      0.033700
     26 HAH2        1.1410   -1.2210    0.9030 hc        1 11A      0.033700
     27 HAI1       -0.1760    0.9270    0.9010 hc        1 11A      0.036700
     28 HAI2       -0.1760    0.9250   -0.9030 hc        1 11A      0.036700
     29 HAJ1       -1.3610   -1.2960   -0.9010 hc        1 11A      0.024700
     30 HAJ2       -1.3610   -1.2940    0.9030 hc        1 11A      0.024700
     31 HAK1       -2.6840    0.8600    0.8980 hc        1 11A      0.044700
     32 HAK2       -2.6840    0.8580   -0.8990 hc        1 11A      0.044700
     33 HAL1       -3.8890   -1.3490   -0.9020 hc        1 11A      0.018700
     34 HAL2       -3.8890   -1.3480    0.9030 hc        1 11A      0.018700
@<TRIPOS>BOND
     1    1    2 1   
     2    1   14 1   
     3    1   15 1   
     4    1   16 1   
     5    2    3 1   
     6    2   17 1   
     7    2   18 1   
     8    3    4 1   
     9    3   19 1   
    10    3   20 1   
    11    4    5 1   
    12    4   21 1   
    13    4   22 1   
    14    5    6 1   
    15    5   23 1   
    16    5   24 1   
    17    6    7 1   
    18    6   25 1   
    19    6   26 1   
    20    7    8 1   
    21    7   27 1   
    22    7   28 1   
    23    8    9 1   
    24    8   29 1   
    25    8   30 1   
    26    9   10 1   
    27    9   31 1   
    28    9   32 1   
    29   10   11 1   
    30   10   33 1   
    31   10   34 1   
    32   11   12 1   
    33   11   13 1   
@<TRIPOS>SUBSTRUCTURE
     1 11A         1 TEMP              0 ****  ****    0 ROOT
