@<TRIPOS>MOLECULE
11A
   34    33     1     0     0
SMALL
bcc


@<TRIPOS>ATOM
      1 CAA        -5.1120   -0.1430   -3.1570 c3        1 11A     -0.091100
      2 CAD        -3.5990   -0.1430   -3.1570 c3        1 11A     -0.080400
      3 CAE        -3.0950   -0.1430   -1.7310 c3        1 11A     -0.079400
      4 CAF        -1.5880   -0.0120   -1.7290 c3        1 11A     -0.078400
      5 CAG        -1.0700   -0.1650   -0.3150 c3        1 11A     -0.079400
      6 CAH         0.4090    0.1530   -0.2830 c3        1 11A     -0.078400
      7 CAI         0.9620   -0.1630    1.0900 c3        1 11A     -0.078400
      8 CAJ         2.3880    0.3330    1.1840 c3        1 11A     -0.078400
      9 CAK         2.9890   -0.1080    2.5010 c3        1 11A     -0.065400
     10 CAL         4.3580    0.5150    2.6640 c3        1 11A     -0.193400
     11 CAM         5.0200   -0.0410    3.9060 c         1 11A      0.907600
     12 OAC         4.8300    0.5120    5.0220 o         1 11A     -0.853800
     13 OAB         5.7610   -1.0550    3.8250 o         1 11A     -0.853800
     14 HAA1       -5.4370   -0.1880   -4.0760 hc        1 11A      0.029033
     15 HAA2       -5.4370   -0.9160   -2.6580 hc        1 11A      0.029033
     16 HAA3       -5.4370    0.6760   -2.7370 hc        1 11A      0.029033
     17 HAD1       -3.2740   -0.9400   -3.6170 hc        1 11A      0.036700
     18 HAD2       -3.2740    0.6540   -3.6170 hc        1 11A      0.036700
     19 HAE1       -3.4870    0.6090   -1.2470 hc        1 11A      0.038200
     20 HAE2       -3.3500   -0.9790   -1.2950 hc        1 11A      0.038200
     21 HAF1       -1.3360    0.8650   -2.0740 hc        1 11A      0.036700
     22 HAF2       -1.2000   -0.7070   -2.2940 hc        1 11A      0.036700
     23 HAG1       -1.5480    0.4480    0.2740 hc        1 11A      0.037200
     24 HAG2       -1.2120   -1.0830   -0.0140 hc        1 11A      0.037200
     25 HAH1        0.8720   -0.3860   -0.9520 hc        1 11A      0.034200
     26 HAH2        0.5420    1.1000   -0.4770 hc        1 11A      0.034200
     27 HAI1        0.9420   -1.1280    1.2350 hc        1 11A      0.036700
     28 HAI2        0.4180    0.2800    1.7690 hc        1 11A      0.036700
     29 HAJ1        2.9110   -0.0380    0.4480 hc        1 11A      0.025700
     30 HAJ2        2.3990    1.3070    1.1320 hc        1 11A      0.025700
     31 HAK1        2.4120    0.1790    3.2340 hc        1 11A      0.043700
     32 HAK2        3.0700   -1.0810    2.5130 hc        1 11A      0.043700
     33 HAL1        4.9050    0.3060    1.8830 hc        1 11A      0.018700
     34 HAL2        4.2670    1.4830    2.7490 hc        1 11A      0.018700
@<TRIPOS>BOND
     1    1    2 1   
     2    1   14 1   
     3    1   15 1   
     4    1   16 1   
     5    2    3 1   
     6    2   17 1   
     7    2   18 1   
     8    3    4 1   
     9    3   19 1   
    10    3   20 1   
    11    4    5 1   
    12    4   21 1   
    13    4   22 1   
    14    5    6 1   
    15    5   23 1   
    16    5   24 1   
    17    6    7 1   
    18    6   25 1   
    19    6   26 1   
    20    7    8 1   
    21    7   27 1   
    22    7   28 1   
    23    8    9 1   
    24    8   29 1   
    25    8   30 1   
    26    9   10 1   
    27    9   31 1   
    28    9   32 1   
    29   10   11 1   
    30   10   33 1   
    31   10   34 1   
    32   11   12 1   
    33   11   13 1   
@<TRIPOS>SUBSTRUCTURE
     1 11A         1 TEMP              0 ****  ****    0 ROOT
