@<TRIPOS>MOLECULE
11B
   64    59     1     0     0
SMALL
bcc


@<TRIPOS>ATOM
      1 C39         6.8900    1.8660    0.1570 c1        1 11B     -0.142000
      2 C40         8.1330    1.6690    0.7370 c1        1 11B     -0.142500
      3 C41         8.2520    0.8790    1.8700 c1        1 11B     -0.142500
      4 C42         7.1280    0.2850    2.4220 c1        1 11B     -0.142500
      5 C43         5.8850    0.4820    1.8420 c1        1 11B     -0.142500
      6 C38         5.7650    1.2720    0.7090 c1        1 11B     -0.087000
      7 C35         4.3960    1.5620    0.1310 c3        1 11B      0.030000
      8 O34         3.8760    0.3900   -0.4560 os        1 11B     -0.306000
      9 C32         2.5300    0.5000   -0.8490 c2        1 11B      0.370000
     10 O33         1.9350    1.5480   -0.6970 o         1 11B     -0.429000
     11 N31         1.8710   -0.6100   -1.4430 n         1 11B     -0.254000
     12 C25         0.4520   -0.6470   -1.4980 c3        1 11B     -0.601000
     13 C26         0.0140   -1.6160   -2.5730 c3        1 11B     -0.191000
     14 C27         0.2580   -1.0030   -3.9340 c3        1 11B     -0.151000
     15 C28        -0.4070   -1.8520   -4.9960 c3        1 11B     -0.157000
     16 C29        -0.2390   -1.1920   -6.3480 c3        1 11B     -0.159000
     17 C30        -0.7840   -2.1040   -7.4250 c3        1 11B     -0.206000
     18 P24        -0.2010   -1.1880    0.1070 p5        1 11B      1.966000
     19 O36         0.6850   -0.6650    1.2130 o         1 11B     -0.850500
     20 O37        -0.2290   -2.6970    0.1560 o         1 11B     -0.850500
     21 O23        -1.6660   -0.6270    0.2960 os        1 11B     -0.734000
     22 C1         -2.3890   -1.0120    1.4400 c3        1 11B      0.049000
     23 C2         -3.1850   -2.2610    1.1370 c2        1 11B      0.336000
     24 O14        -2.9830   -3.3120    1.8000 o         1 11B     -0.584000
     25 O13        -4.0770   -2.2390    0.2490 o         1 11B     -0.584000
     26 C3         -3.3310    0.1020    1.8390 c2        1 11B     -0.028000
     27 C8         -3.4420    0.4710    3.1710 c2        1 11B     -0.135000
     28 C4         -4.0800    0.7550    0.8730 c1        1 11B     -0.104000
     29 C5         -4.9410    1.7770    1.2380 c1        1 11B     -0.142500
     30 C6         -5.0530    2.1470    2.5700 c1        1 11B     -0.142500
     31 C7         -4.3030    1.4940    3.5370 c1        1 11B     -0.023000
     32 N9         -4.3450    1.9380    4.8860 n3        1 11B     -0.279000
     33 C10        -5.1240    1.2340    5.8420 c2        1 11B      0.189000
     34 N12        -4.9990   -0.0620    5.9600 n1        1 11B     -0.400000
     35 N11        -6.0390    1.9370    6.6690 n3        1 11B     -0.329000
     36 H39         6.8060    2.4220   -0.6400 ha        1 11B      0.116000
     37 H40         8.9250    2.0870    0.3480 ha        1 11B      0.122333
     38 H41         9.1280    0.7400    2.2790 ha        1 11B      0.122333
     39 H42         7.2120   -0.2710    3.2200 ha        1 11B      0.122333
     40 H43         5.0930    0.0640    2.2310 ha        1 11B      0.122333
     41 H351        4.4710    2.2620   -0.5500 h1        1 11B      0.102500
     42 H352        3.7970    1.8640    0.8450 h1        1 11B      0.102500
     43 HN31        2.3580   -1.3070   -1.7720 hn        1 11B      0.253000
     44 H25         0.1100    0.2460   -1.7050 h1        1 11B      0.130000
     45 H261        0.5260   -2.4460   -2.4920 hc        1 11B      0.120500
     46 H262       -0.9390   -1.8100   -2.4690 hc        1 11B      0.120500
     47 H271       -0.1170   -0.0990   -3.9570 hc        1 11B      0.072500
     48 H272        1.2200   -0.9620   -4.1060 hc        1 11B      0.072500
     49 H281       -1.3600   -1.9400   -4.7930 hc        1 11B      0.081500
     50 H282        0.0060   -2.7380   -5.0120 hc        1 11B      0.081500
     51 H291       -0.7270   -0.3450   -6.3600 hc        1 11B      0.071000
     52 H292        0.7110   -1.0240   -6.5120 hc        1 11B      0.071000
     53 H301       -0.7560   -1.6420   -8.2890 hc        1 11B      0.061000
     54 H302       -0.2390   -2.9170   -7.4720 hc        1 11B      0.061000
     55 H303       -1.7110   -2.3430   -7.2130 hc        1 11B      0.061000
     56 H1         -1.7670   -1.1910    2.1730 h1        1 11B      0.092000
     57 H8         -2.9140    0.0120    3.8510 ha        1 11B      0.186000
     58 H4         -4.0020    0.4940   -0.0640 ha        1 11B      0.194000
     59 H5         -5.4690    2.2370    0.5580 ha        1 11B      0.122333
     60 H6         -5.6590    2.8670    2.8270 ha        1 11B      0.122333
     61 HN9        -3.8980    2.6940    5.1310 hn        1 11B      0.184000
     62 HN12       -4.4100   -0.5150    5.4270 DU        1 11B      0.123000
     63 H111       -6.3250    1.5640    7.4540 hn        1 11B      0.205500
     64 H112       -6.3190    2.7740    6.4320 hn        1 11B      0.205500
@<TRIPOS>BOND
     1    1    6 1   
     2    1   36 1   
     3    2    3 1   
     4    2   37 1   
     5    3   38 1   
     6    4    5 1   
     7    4   39 1   
     8    5   40 1   
     9    6    7 1   
    10    7    8 1   
    11    7   41 1   
    12    7   42 1   
    13    8    9 1   
    14    9   10 1   
    15    9   11 1   
    16   11   12 1   
    17   11   43 1   
    18   12   13 1   
    19   12   18 1   
    20   12   44 1   
    21   13   14 1   
    22   13   45 1   
    23   13   46 1   
    24   14   15 1   
    25   14   47 1   
    26   14   48 1   
    27   15   16 1   
    28   15   49 1   
    29   15   50 1   
    30   16   17 1   
    31   16   51 1   
    32   16   52 1   
    33   17   53 1   
    34   17   54 1   
    35   17   55 1   
    36   18   19 1   
    37   18   20 1   
    38   18   21 1   
    39   21   22 1   
    40   22   23 1   
    41   22   26 1   
    42   22   56 1   
    43   23   24 1   
    44   23   25 1   
    45   26   27 1   
    46   26   28 1   
    47   27   31 1   
    48   27   57 1   
    49   28   58 1   
    50   29   30 1   
    51   29   59 1   
    52   30   60 1   
    53   31   32 1   
    54   32   33 1   
    55   32   61 1   
    56   33   34 1   
    57   33   35 1   
    58   35   63 1   
    59   35   64 1   
@<TRIPOS>SUBSTRUCTURE
     1 11B         1 TEMP              0 ****  ****    0 ROOT
