@<TRIPOS>MOLECULE
11B
   64    65     1     0     0
SMALL
bcc


@<TRIPOS>ATOM
      1 C39         7.2920    2.2230   -1.2880 ca        1 11B     -0.118000
      2 C40         8.4350    2.7690   -0.7090 ca        1 11B     -0.139000
      3 C41         8.4710    3.0260    0.6610 ca        1 11B     -0.148000
      4 C42         7.3590    2.7360    1.4500 ca        1 11B     -0.139000
      5 C43         6.2110    2.1910    0.8750 ca        1 11B     -0.118000
      6 C38         6.1720    1.9310   -0.4990 ca        1 11B     -0.071300
      7 C35         4.9630    1.3620   -1.1660 c3        1 11B      0.194700
      8 O34         4.0390    0.9430   -0.1620 os        1 11B     -0.473900
      9 C32         2.7820    0.5430   -0.6440 c         1 11B      0.724100
     10 O33         2.6830    0.4620   -1.8840 o         1 11B     -0.625000
     11 N31         1.8550    0.4220    0.3560 n         1 11B     -0.442900
     12 C25         0.6590   -0.3610    0.1880 c3        1 11B     -0.116500
     13 C26         0.8300   -1.8680    0.2060 c3        1 11B     -0.113400
     14 C27         1.7340   -2.4020   -0.8800 c3        1 11B     -0.073400
     15 C28         1.7100   -3.9150   -0.9150 c3        1 11B     -0.078400
     16 C29         2.6270   -4.4580   -1.9910 c3        1 11B     -0.080400
     17 C30         2.6000   -5.9650   -2.0370 c3        1 11B     -0.088100
     18 P24        -0.3460   -0.0030    1.6090 p5        1 11B      1.328600
     19 O36        -1.0770    1.2620    1.3720 o         1 11B     -0.852500
     20 O37         0.5680   -0.1960    2.7610 o         1 11B     -0.852500
     21 O23        -1.4490   -1.2160    1.4890 os        1 11B     -0.574200
     22 C1         -2.7770   -0.9370    1.8430 c3        1 11B      0.122400
     23 C2         -3.3650   -2.0750    2.7360 c         1 11B      0.916600
     24 O14        -3.3550   -3.2760    2.3420 o         1 11B     -0.849800
     25 O13        -3.8790   -1.7100    3.8320 o         1 11B     -0.849800
     26 C3         -3.6310   -0.7420    0.6040 ca        1 11B     -0.032300
     27 C8         -3.8240    0.5520    0.1090 ca        1 11B     -0.140000
     28 C4         -4.2420   -1.8240   -0.0380 ca        1 11B     -0.106000
     29 C5         -5.0530   -1.6090   -1.1500 ca        1 11B     -0.158000
     30 C6         -5.2620   -0.3250   -1.6460 ca        1 11B     -0.181000
     31 C7         -4.6370    0.7740   -1.0210 ca        1 11B      0.042600
     32 N9         -4.7630    2.0760   -1.5850 nh        1 11B     -0.712600
     33 C10        -6.0760    2.6720   -1.6810 c2        1 11B      0.767100
     34 N12        -6.3330    3.7140   -2.4450 n2        1 11B     -0.919100
     35 N11        -7.1370    2.1110   -0.9200 nh        1 11B     -0.906800
     36 H39         7.2650    2.0180   -2.3690 ha        1 11B      0.147500
     37 H40         9.3100    2.9960   -1.3340 ha        1 11B      0.120000
     38 H41         9.3730    3.4560    1.1170 ha        1 11B      0.114000
     39 H42         7.3830    2.9360    2.5310 ha        1 11B      0.120000
     40 H43         5.3290    1.9570    1.4940 ha        1 11B      0.147500
     41 H351        4.4770    2.1340   -1.8230 h1        1 11B      0.054700
     42 H352        5.2370    0.4730   -1.7970 h1        1 11B      0.054700
     43 HN31        2.2070    0.4060    1.3000 hn        1 11B      0.338500
     44 H25         0.1560   -0.0440   -0.7620 h1        1 11B      0.089700
     45 H261        1.2090   -2.1690    1.2200 hc        1 11B      0.081700
     46 H262       -0.1980   -2.3140    0.0990 hc        1 11B      0.081700
     47 H271        1.4110   -1.9900   -1.8730 hc        1 11B      0.032700
     48 H272        2.7860   -2.0490   -0.7130 hc        1 11B      0.032700
     49 H281        2.0210   -4.3190    0.0840 hc        1 11B      0.042700
     50 H282        0.6610   -4.2690   -1.1000 hc        1 11B      0.042700
     51 H291        2.3170   -4.0450   -2.9870 hc        1 11B      0.031200
     52 H292        3.6750   -4.1060   -1.8010 hc        1 11B      0.031200
     53 H301        2.9280   -6.3930   -1.0590 hc        1 11B      0.021700
     54 H302        1.5660   -6.3320   -2.2470 hc        1 11B      0.021700
     55 H303        3.2800   -6.3460   -2.8360 hc        1 11B      0.021700
     56 H1         -2.8010    0.0240    2.4390 h1        1 11B      0.048700
     57 H8         -3.2910    1.3890    0.6030 ha        1 11B      0.186000
     58 H4         -4.0710   -2.8410    0.3670 ha        1 11B      0.194000
     59 H5         -5.5340   -2.4630   -1.6480 ha        1 11B      0.102000
     60 H6         -5.8940   -0.1760   -2.5320 ha        1 11B      0.102000
     61 HN9        -4.0910    2.7140   -1.1970 hn        1 11B      0.412800
     62 HN12       -5.5310    4.1090   -2.8850 hn        1 11B      0.381400
     63 H111       -6.9840    1.1760   -0.6070 hn        1 11B      0.402800
     64 H112       -8.0430    2.2580   -1.3030 hn        1 11B      0.402800
@<TRIPOS>BOND
     1    1    2 ar  
     2    1    6 ar  
     3    1   36 1   
     4    2    3 ar  
     5    2   37 1   
     6    3    4 ar  
     7    3   38 1   
     8    4    5 ar  
     9    4   39 1   
    10    5    6 ar  
    11    5   40 1   
    12    6    7 1   
    13    7    8 1   
    14    7   41 1   
    15    7   42 1   
    16    8    9 1   
    17    9   10 2   
    18    9   11 1   
    19   11   12 1   
    20   11   43 1   
    21   12   13 1   
    22   12   18 1   
    23   12   44 1   
    24   13   14 1   
    25   13   45 1   
    26   13   46 1   
    27   14   15 1   
    28   14   47 1   
    29   14   48 1   
    30   15   16 1   
    31   15   49 1   
    32   15   50 1   
    33   16   17 1   
    34   16   51 1   
    35   16   52 1   
    36   17   53 1   
    37   17   54 1   
    38   17   55 1   
    39   18   19 1   
    40   18   20 1   
    41   18   21 1   
    42   21   22 1   
    43   22   23 1   
    44   22   26 1   
    45   22   56 1   
    46   23   24 1   
    47   23   25 1   
    48   26   27 ar  
    49   26   28 ar  
    50   27   31 ar  
    51   27   57 1   
    52   28   29 ar  
    53   28   58 1   
    54   29   30 ar  
    55   29   59 1   
    56   30   31 ar  
    57   30   60 1   
    58   31   32 1   
    59   32   33 1   
    60   32   61 1   
    61   33   34 2   
    62   33   35 1   
    63   34   62 1   
    64   35   63 1   
    65   35   64 1   
@<TRIPOS>SUBSTRUCTURE
     1 11B         1 TEMP              0 ****  ****    0 ROOT
