@<TRIPOS>MOLECULE
11B
   66    67     1     0     0
SMALL
bcc


@<TRIPOS>ATOM
      1 C39        -1.2250   -1.1310   -0.2090 ca        1 11B     -0.097000
      2 C40        -0.6590   -1.7260   -1.3350 ca        1 11B     -0.135000
      3 C41        -0.1950   -3.0400   -1.2730 ca        1 11B     -0.105000
      4 C42        -0.2990   -3.7620   -0.0840 ca        1 11B     -0.135000
      5 C43        -0.8640   -3.1700    1.0450 ca        1 11B     -0.097000
      6 C38        -1.3250   -1.8510    0.9880 ca        1 11B     -0.152300
      7 C35        -1.8810   -1.2010    2.2050 c3        1 11B      0.199700
      8 O34        -3.3020   -1.4610    2.3440 os        1 11B     -0.406900
      9 C32        -4.1510   -0.6050    1.7220 c         1 11B      0.617100
     10 O33        -3.7730    0.3360    1.0300 o         1 11B     -0.467000
     11 N31        -5.5560   -0.9310    2.0230 n4        1 11B     -0.590800
     12 C25        -6.4610   -0.8390    0.8570 c3        1 11B     -0.084700
     13 C26        -6.6680   -2.1180    0.0840 c3        1 11B     -0.105400
     14 C27        -5.4560   -2.5700   -0.6940 c3        1 11B     -0.081400
     15 C28        -5.7460   -3.8490   -1.4510 c3        1 11B     -0.077400
     16 C29        -4.5450   -4.2980   -2.2550 c3        1 11B     -0.080400
     17 C30        -4.8340   -5.5680   -3.0130 c3        1 11B     -0.093100
     18 P24        -8.0700   -0.3940    1.4680 p5        1 11B      1.313600
     19 O36        -7.7520    0.5730    2.5460 o         1 11B     -0.793000
     20 O37        -9.0020   -0.2990    0.3490 o         1 11B     -0.793000
     21 O23        -8.3440   -1.7930    2.3310 os        1 11B     -0.579200
     22 C1         -8.8090   -1.6810    3.6390 c3        1 11B      0.166400
     23 C2         -7.7120   -2.1840    4.5790 c         1 11B      0.638100
     24 O14        -7.9830   -2.5320    5.8620 oh        1 11B     -0.571100
     25 O13        -6.5080   -2.2660    4.2980 o         1 11B     -0.577000
     26 C3        -10.0820   -2.4600    3.8210 ca        1 11B     -0.117300
     27 C8        -10.9720   -2.0760    4.8290 ca        1 11B     -0.154000
     28 C4        -10.3930   -3.5330    2.9820 ca        1 11B     -0.084000
     29 C5        -11.5850   -4.2310    3.1680 ca        1 11B     -0.125000
     30 C6        -12.4620   -3.8850    4.1900 ca        1 11B     -0.120000
     31 C7        -12.1590   -2.8020    5.0450 ca        1 11B      0.104600
     32 N9        -13.0630   -2.4900    6.0910 nh        1 11B     -0.745600
     33 C10       -12.5650   -1.9800    7.3450 c2        1 11B      0.758100
     34 N12       -13.1940   -1.1240    8.1110 n2        1 11B     -0.871100
     35 N11       -11.2970   -2.4980    7.7650 nh        1 11B     -0.884800
     36 H39        -1.6030   -0.0960   -0.2560 ha        1 11B      0.144000
     37 H40        -0.5800   -1.1560   -2.2730 ha        1 11B      0.140500
     38 H41         0.2540   -3.5070   -2.1630 ha        1 11B      0.139000
     39 H42         0.0640   -4.7990   -0.0350 ha        1 11B      0.140500
     40 H43        -0.9480   -3.7410    1.9830 ha        1 11B      0.144000
     41 H351       -1.7030   -0.0930    2.2010 h1        1 11B      0.087200
     42 H352       -1.4800   -1.6680    3.1480 h1        1 11B      0.087200
     43 HN31       -5.6150   -1.8760    2.4500 hn        1 11B      0.506800
     44 H25        -6.0830   -0.0300    0.1730 hx        1 11B      0.130700
     45 H261       -7.0120   -2.9290    0.7830 hc        1 11B      0.094700
     46 H262       -7.5260   -1.9110   -0.6220 hc        1 11B      0.094700
     47 H271       -5.1500   -1.7670   -1.4170 hc        1 11B      0.037700
     48 H272       -4.5910   -2.7340    0.0040 hc        1 11B      0.037700
     49 H281       -6.6190   -3.6860   -2.1370 hc        1 11B      0.045700
     50 H282       -6.0390   -4.6560   -0.7280 hc        1 11B      0.045700
     51 H291       -4.2530   -3.4880   -2.9750 hc        1 11B      0.038700
     52 H292       -3.6730   -4.4590   -1.5670 hc        1 11B      0.038700
     53 H301       -5.6840   -5.4200   -3.7210 hc        1 11B      0.034033
     54 H302       -3.9370   -5.8820   -3.5990 hc        1 11B      0.034033
     55 H303       -5.1030   -6.3940   -2.3100 hc        1 11B      0.034033
     56 H1         -8.9760   -0.5880    3.9050 h1        1 11B      0.113700
     57 H8        -10.7400   -1.1960    5.4520 ha        1 11B      0.150000
     58 H4         -9.6990   -3.8040    2.1710 ha        1 11B      0.160000
     59 H5        -11.8350   -5.0690    2.4980 ha        1 11B      0.140000
     60 H6        -13.3930   -4.4560    4.3290 ha        1 11B      0.144000
     61 HN9       -13.8890   -2.0320    5.7610 hn        1 11B      0.416800
     62 HN12      -14.0160   -0.7120    7.7290 hn        1 11B      0.395400
     63 H111       -8.9350   -2.4580    6.0390 ho        1 11B      0.448000
     64 H112      -11.1890   -3.4700    7.5580 hn        1 11B      0.399800
     65 H312       -5.9130   -0.2340    2.7330 hn        1 11B      0.506800
     66 H113      -11.1030   -2.3000    8.7270 hn        1 11B      0.399800
@<TRIPOS>BOND
     1    1    2 ar  
     2    1    6 ar  
     3    1   36 1   
     4    2    3 ar  
     5    2   37 1   
     6    3    4 ar  
     7    3   38 1   
     8    4    5 ar  
     9    4   39 1   
    10    5    6 ar  
    11    5   40 1   
    12    6    7 1   
    13    7    8 1   
    14    7   41 1   
    15    7   42 1   
    16    8    9 1   
    17    9   10 2   
    18    9   11 1   
    19   11   12 1   
    20   11   43 1   
    21   11   65 1   
    22   12   13 1   
    23   12   18 1   
    24   12   44 1   
    25   13   14 1   
    26   13   45 1   
    27   13   46 1   
    28   14   15 1   
    29   14   47 1   
    30   14   48 1   
    31   15   16 1   
    32   15   49 1   
    33   15   50 1   
    34   16   17 1   
    35   16   51 1   
    36   16   52 1   
    37   17   53 1   
    38   17   54 1   
    39   17   55 1   
    40   18   19 1   
    41   18   20 1   
    42   18   21 1   
    43   21   22 1   
    44   22   23 1   
    45   22   26 1   
    46   22   56 1   
    47   23   24 1   
    48   23   25 2   
    49   24   63 1   
    50   26   27 ar  
    51   26   28 ar  
    52   27   31 ar  
    53   27   57 1   
    54   28   29 ar  
    55   28   58 1   
    56   29   30 ar  
    57   29   59 1   
    58   30   31 ar  
    59   30   60 1   
    60   31   32 1   
    61   32   33 1   
    62   32   61 1   
    63   33   34 2   
    64   33   35 1   
    65   34   62 1   
    66   35   64 1   
    67   35   66 1   
@<TRIPOS>SUBSTRUCTURE
     1 11B         1 TEMP              0 ****  ****    0 ROOT
