@<TRIPOS>MOLECULE
11B
   66    67     1     0     0
SMALL
bcc


@<TRIPOS>ATOM
      1 C39        -0.0220   -2.3620    1.2010 ca        1 11B     -0.096500
      2 C40         0.8810   -2.5240    2.2500 ca        1 11B     -0.132500
      3 C41         0.9240   -1.5920    3.2880 ca        1 11B     -0.105000
      4 C42         0.0610   -0.4950    3.2770 ca        1 11B     -0.132500
      5 C43        -0.8400   -0.3270    2.2270 ca        1 11B     -0.096500
      6 C38        -0.8840   -1.2600    1.1850 ca        1 11B     -0.157300
      7 C35        -1.8230   -1.0600    0.0480 c3        1 11B      0.197700
      8 O34        -3.1960   -1.0110    0.5160 os        1 11B     -0.400900
      9 C32        -3.8440   -2.1960    0.6390 c         1 11B      0.620100
     10 O33        -3.3970   -3.2620    0.2240 o         1 11B     -0.468000
     11 N31        -5.1510   -2.0500    1.3050 ny        1 11B     -0.592800
     12 C25        -6.1540   -1.3100    0.5070 c3        1 11B     -0.083700
     13 C26        -6.9880   -2.1380   -0.4390 c3        1 11B     -0.105400
     14 C27        -6.2310   -2.6540   -1.6400 c3        1 11B     -0.085400
     15 C28        -7.1400   -3.4470   -2.5550 c3        1 11B     -0.077400
     16 C29        -6.3890   -3.9610   -3.7640 c3        1 11B     -0.080400
     17 C30        -7.2900   -4.7520   -4.6770 c3        1 11B     -0.093100
     18 P24        -7.3120   -0.5930    1.6500 p5        1 11B      1.312600
     19 O36        -6.4420   -0.1580    2.7680 o         1 11B     -0.793000
     20 O37        -8.3280    0.1400    0.9000 o         1 11B     -0.793000
     21 O23        -7.9310   -2.0290    2.2260 os        1 11B     -0.577200
     22 C1         -8.0470   -2.1880    3.6050 c3        1 11B      0.163400
     23 C2         -7.0950   -3.3050    4.0320 c         1 11B      0.637100
     24 O14        -7.2870   -3.9980    5.1850 oh        1 11B     -0.568100
     25 O13        -6.0640   -3.6390    3.4320 o         1 11B     -0.572000
     26 C3         -9.4680   -2.4960    3.9920 ca        1 11B     -0.100300
     27 C8         -9.9230   -2.1110    5.2570 ca        1 11B     -0.191000
     28 C4        -10.3270   -3.1370    3.0980 ca        1 11B     -0.107000
     29 C5        -11.6450   -3.3960    3.4760 ca        1 11B     -0.101000
     30 C6        -12.1130   -3.0250    4.7300 ca        1 11B     -0.165000
     31 C7        -11.2570   -2.3640    5.6430 ca        1 11B      0.128600
     32 N9        -11.7500   -1.8760    6.8700 nu        1 11B     -0.718600
     33 C10       -12.7040   -2.7020    7.6050 c2        1 11B      0.740100
     34 N12       -13.7600   -2.2110    8.1880 n2        1 11B     -0.824100
     35 N11       -12.3880   -4.0900    7.7270 nv        1 11B     -0.901800
     36 H39        -0.0610   -3.1040    0.3890 ha        1 11B      0.142500
     37 H40         1.5590   -3.3900    2.2600 ha        1 11B      0.141000
     38 H41         1.6360   -1.7230    4.1160 ha        1 11B      0.139000
     39 H42         0.0900    0.2380    4.0970 ha        1 11B      0.141000
     40 H43        -1.5250    0.5350    2.2160 ha        1 11B      0.142500
     41 H351       -1.7170   -1.8560   -0.7350 h1        1 11B      0.088700
     42 H352       -1.7090   -0.0350   -0.4040 h1        1 11B      0.088700
     43 HN31       -5.5130   -2.9950    1.5390 hn        1 11B      0.505800
     44 H25        -5.6290   -0.4890   -0.0530 hx        1 11B      0.122700
     45 H261       -7.4630   -2.9890    0.1210 hc        1 11B      0.095700
     46 H262       -7.8280   -1.4620   -0.7770 hc        1 11B      0.095700
     47 H271       -5.7900   -1.7910   -2.2070 hc        1 11B      0.039200
     48 H272       -5.3770   -3.3030   -1.3070 hc        1 11B      0.039200
     49 H281       -7.5810   -4.3110   -1.9900 hc        1 11B      0.046700
     50 H282       -7.9930   -2.7990   -2.8880 hc        1 11B      0.046700
     51 H291       -5.5340   -4.6050   -3.4270 hc        1 11B      0.038700
     52 H292       -5.9490   -3.0950   -4.3270 hc        1 11B      0.038700
     53 H301       -8.1350   -4.1200   -5.0410 hc        1 11B      0.034367
     54 H302       -7.7180   -5.6340   -4.1410 hc        1 11B      0.034367
     55 H303       -6.7180   -5.1210   -5.5620 hc        1 11B      0.034367
     56 H1         -7.6900   -1.2500    4.1410 h1        1 11B      0.114700
     57 H8         -9.2420   -1.5750    5.9370 ha        1 11B      0.137000
     58 H4         -9.9620   -3.4100    2.0960 ha        1 11B      0.159000
     59 H5        -12.3260   -3.8930    2.7680 ha        1 11B      0.140000
     60 H6        -13.1620   -3.2200    5.0000 ha        1 11B      0.142000
     61 HN9       -11.0340   -1.5170    7.4730 hn        1 11B      0.411800
     62 HN12      -13.8690   -1.2210    8.1460 hn        1 11B      0.413400
     63 H111      -13.1070   -4.6280    8.1650 hn        1 11B      0.399800
     64 H112      -12.0720   -4.5010    6.8740 hn        1 11B      0.399800
     65 H312       -5.0290   -1.5080    2.2010 hn        1 11B      0.505800
     66 H113       -8.1240   -3.7300    5.5960 ho        1 11B      0.441000
@<TRIPOS>BOND
     1    1    2 ar  
     2    1    6 ar  
     3    1   36 1   
     4    2    3 ar  
     5    2   37 1   
     6    3    4 ar  
     7    3   38 1   
     8    4    5 ar  
     9    4   39 1   
    10    5    6 ar  
    11    5   40 1   
    12    6    7 1   
    13    7    8 1   
    14    7   41 1   
    15    7   42 1   
    16    8    9 1   
    17    9   10 2   
    18    9   11 1   
    19   11   12 1   
    20   11   43 1   
    21   11   65 1   
    22   12   13 1   
    23   12   18 1   
    24   12   44 1   
    25   13   14 1   
    26   13   45 1   
    27   13   46 1   
    28   14   15 1   
    29   14   47 1   
    30   14   48 1   
    31   15   16 1   
    32   15   49 1   
    33   15   50 1   
    34   16   17 1   
    35   16   51 1   
    36   16   52 1   
    37   17   53 1   
    38   17   54 1   
    39   17   55 1   
    40   18   19 1   
    41   18   20 1   
    42   18   21 1   
    43   21   22 1   
    44   22   23 1   
    45   22   26 1   
    46   22   56 1   
    47   23   24 1   
    48   23   25 2   
    49   24   66 1   
    50   26   27 ar  
    51   26   28 ar  
    52   27   31 ar  
    53   27   57 1   
    54   28   29 ar  
    55   28   58 1   
    56   29   30 ar  
    57   29   59 1   
    58   30   31 ar  
    59   30   60 1   
    60   31   32 1   
    61   32   33 1   
    62   32   61 1   
    63   33   34 2   
    64   33   35 1   
    65   34   62 1   
    66   35   63 1   
    67   35   64 1   
@<TRIPOS>SUBSTRUCTURE
     1 11B         1 TEMP              0 ****  ****    0 ROOT
