@<TRIPOS>MOLECULE
11B
   64    65     1     0     0
SMALL
bcc


@<TRIPOS>ATOM
      1 C39        -0.0970    0.7400    0.2240 ca        1 11B     -0.118000
      2 C40         1.2830    0.7720    0.4140 ca        1 11B     -0.139000
      3 C41         1.8900   -0.1340    1.2850 ca        1 11B     -0.148000
      4 C42         1.1120   -1.0700    1.9640 ca        1 11B     -0.139000
      5 C43        -0.2700   -1.1050    1.7790 ca        1 11B     -0.118000
      6 C38        -0.8820   -0.1980    0.9060 ca        1 11B     -0.071300
      7 C35        -2.3590   -0.1840    0.6830 c3        1 11B      0.194700
      8 O34        -2.9260   -1.3430    1.2930 os        1 11B     -0.473900
      9 C32        -4.3300   -1.3750    1.3100 c         1 11B      0.724100
     10 O33        -4.8970   -0.4710    0.6660 o         1 11B     -0.625000
     11 N31        -4.8190   -2.3490    2.1390 n         1 11B     -0.442900
     12 C25        -6.1600   -2.8530    2.0060 c3        1 11B     -0.116500
     13 C26        -6.4250   -3.7680    0.8270 c3        1 11B     -0.113400
     14 C27        -6.1720   -3.1320   -0.5200 c3        1 11B     -0.073400
     15 C28        -6.6300   -4.0350   -1.6460 c3        1 11B     -0.078400
     16 C29        -6.3640   -3.4100   -3.0000 c3        1 11B     -0.080400
     17 C30        -6.8270   -4.3010   -4.1240 c3        1 11B     -0.088100
     18 P24        -6.4290   -3.8710    3.4370 p5        1 11B      1.328600
     19 O36        -6.8110   -3.0060    4.5760 o         1 11B     -0.852500
     20 O37        -5.2490   -4.7690    3.4730 o         1 11B     -0.852500
     21 O23        -7.7910   -4.6650    2.9690 os        1 11B     -0.574200
     22 C1         -8.7610   -4.9410    3.9440 c3        1 11B      0.122400
     23 C2         -9.2730   -6.4100    3.8170 c         1 11B      0.916600
     24 O14        -9.7450   -6.8380    2.7260 o         1 11B     -0.849800
     25 O13        -9.2240   -7.1080    4.8710 o         1 11B     -0.849800
     26 C3         -9.9190   -3.9660    3.8390 ca        1 11B     -0.032300
     27 C8         -9.9100   -2.8120    4.6290 ca        1 11B     -0.140000
     28 C4        -11.0000   -4.2080    2.9830 ca        1 11B     -0.106000
     29 C5        -12.0670   -3.3140    2.9390 ca        1 11B     -0.158000
     30 C6        -12.0750   -2.1680    3.7280 ca        1 11B     -0.181000
     31 C7        -10.9840   -1.9010    4.5800 ca        1 11B      0.042600
     32 N9        -10.9380   -0.6790    5.3120 nh        1 11B     -0.712600
     33 C10       -11.9710   -0.4090    6.2860 c2        1 11B      0.767100
     34 N12       -12.1880    0.7920    6.7810 n2        1 11B     -0.919100
     35 N11       -12.7890   -1.4830    6.7280 nh        1 11B     -0.906800
     36 H39        -0.5750    1.4520   -0.4640 ha        1 11B      0.147500
     37 H40         1.8930    1.5110   -0.1230 ha        1 11B      0.120000
     38 H41         2.9780   -0.1080    1.4340 ha        1 11B      0.114000
     39 H42         1.5870   -1.7860    2.6510 ha        1 11B      0.120000
     40 H43        -0.8900   -1.8440    2.3120 ha        1 11B      0.147500
     41 H351       -2.5960   -0.2020   -0.4150 h1        1 11B      0.054700
     42 H352       -2.8150    0.7390    1.1350 h1        1 11B      0.054700
     43 HN31       -4.1640   -3.0490    2.4510 hn        1 11B      0.338500
     44 H25        -6.8660   -1.9830    1.9820 h1        1 11B      0.089700
     45 H261       -7.5010   -4.0910    0.8980 hc        1 11B      0.081700
     46 H262       -5.8000   -4.6950    0.9500 hc        1 11B      0.081700
     47 H271       -6.7070   -2.1470   -0.5760 hc        1 11B      0.032700
     48 H272       -5.0780   -2.9100   -0.6420 hc        1 11B      0.032700
     49 H281       -6.1000   -5.0210   -1.5750 hc        1 11B      0.042700
     50 H282       -7.7270   -4.2430   -1.5360 hc        1 11B      0.042700
     51 H291       -6.8890   -2.4210   -3.0620 hc        1 11B      0.031200
     52 H292       -5.2660   -3.2070   -3.1080 hc        1 11B      0.031200
     53 H301       -6.6240   -3.8240   -5.1130 hc        1 11B      0.021700
     54 H302       -7.9240   -4.4960   -4.0440 hc        1 11B      0.021700
     55 H303       -6.2960   -5.2840   -4.0900 hc        1 11B      0.021700
     56 H1         -8.2940   -4.8200    4.9680 h1        1 11B      0.048700
     57 H8         -9.0210   -2.6150    5.2610 ha        1 11B      0.186000
     58 H4        -10.9840   -5.1250    2.3620 ha        1 11B      0.194000
     59 H5        -12.9160   -3.5120    2.2690 ha        1 11B      0.102000
     60 H6        -12.9200   -1.4670    3.6690 ha        1 11B      0.102000
     61 HN9       -10.0210   -0.5030    5.6820 hn        1 11B      0.412800
     62 HN12      -11.5280    1.4810    6.4950 hn        1 11B      0.381400
     63 H111      -12.8010   -2.2810    6.1280 hn        1 11B      0.402800
     64 H112      -13.6930   -1.2120    7.0440 hn        1 11B      0.402800
@<TRIPOS>BOND
     1    1    2 ar  
     2    1    6 ar  
     3    1   36 1   
     4    2    3 ar  
     5    2   37 1   
     6    3    4 ar  
     7    3   38 1   
     8    4    5 ar  
     9    4   39 1   
    10    5    6 ar  
    11    5   40 1   
    12    6    7 1   
    13    7    8 1   
    14    7   41 1   
    15    7   42 1   
    16    8    9 1   
    17    9   10 2   
    18    9   11 1   
    19   11   12 1   
    20   11   43 1   
    21   12   13 1   
    22   12   18 1   
    23   12   44 1   
    24   13   14 1   
    25   13   45 1   
    26   13   46 1   
    27   14   15 1   
    28   14   47 1   
    29   14   48 1   
    30   15   16 1   
    31   15   49 1   
    32   15   50 1   
    33   16   17 1   
    34   16   51 1   
    35   16   52 1   
    36   17   53 1   
    37   17   54 1   
    38   17   55 1   
    39   18   19 1   
    40   18   20 1   
    41   18   21 1   
    42   21   22 1   
    43   22   23 1   
    44   22   26 1   
    45   22   56 1   
    46   23   24 1   
    47   23   25 1   
    48   26   27 ar  
    49   26   28 ar  
    50   27   31 ar  
    51   27   57 1   
    52   28   29 ar  
    53   28   58 1   
    54   29   30 ar  
    55   29   59 1   
    56   30   31 ar  
    57   30   60 1   
    58   31   32 1   
    59   32   33 1   
    60   32   61 1   
    61   33   34 2   
    62   33   35 1   
    63   34   62 1   
    64   35   63 1   
    65   35   64 1   
@<TRIPOS>SUBSTRUCTURE
     1 11B         1 TEMP              0 ****  ****    0 ROOT
