@<TRIPOS>MOLECULE
11C
   20    19     1     0     0
SMALL
bcc


@<TRIPOS>ATOM
      1 C           3.0310   -0.3000   -0.0920 c         1 11C      0.905600
      2 N           1.7760    1.8650    0.1170 n3        1 11C     -0.907800
      3 O           3.7020   -0.0310    0.9500 o         1 11C     -0.861800
      4 CA          1.7140    0.4930   -0.3660 c3        1 11C      0.037500
      5 CB          0.5490   -0.3440    0.1820 c3        1 11C     -0.090400
      6 OAB        -3.5980    0.9510    0.7050 o         1 11C     -0.872800
      7 OAD        -4.1760   -0.7390   -0.6180 o         1 11C     -0.872800
      8 CAF        -0.8190    0.2080   -0.1670 c3        1 11C     -0.065400
      9 CAG        -1.9260   -0.7390    0.2430 c3        1 11C     -0.181400
     10 CAI        -3.3220   -0.1240    0.0920 c         1 11C      0.903600
     11 OXT         3.3740   -1.1820   -0.9300 o         1 11C     -0.861800
     12 HN          0.9250    2.0960    0.5940 hn        1 11C      0.330300
     13 HNA         2.5260    1.9370    0.7850 hn        1 11C      0.330300
     14 HA          1.5900    0.5610   -1.4870 h1        1 11C      0.040700
     15 HB          0.6550   -1.3760   -0.2440 hc        1 11C      0.033200
     16 HBA         0.6450   -0.4310    1.2950 hc        1 11C      0.033200
     17 HAF        -0.9920    1.1930    0.3420 hc        1 11C      0.033200
     18 HAFA       -0.8760    0.3930   -1.2720 hc        1 11C      0.033200
     19 HAG        -1.8700   -1.6760   -0.3660 hc        1 11C      0.015700
     20 HAGA       -1.7930   -1.0230    1.3190 hc        1 11C      0.015700
@<TRIPOS>BOND
     1    1    3 1   
     2    1    4 1   
     3    1   11 1   
     4    2    4 1   
     5    2   12 1   
     6    2   13 1   
     7    4    5 1   
     8    4   14 1   
     9    5    8 1   
    10    5   15 1   
    11    5   16 1   
    12    6   10 1   
    13    7   10 1   
    14    8    9 1   
    15    8   17 1   
    16    8   18 1   
    17    9   10 1   
    18    9   19 1   
    19    9   20 1   
@<TRIPOS>SUBSTRUCTURE
     1 11C         1 TEMP              0 ****  ****    0 ROOT
