@<TRIPOS>MOLECULE
11C
   20    18     1     0     0
SMALL
bcc


@<TRIPOS>ATOM
      1 C          -2.3360   -0.5880   -1.2840 c1        1 11C      0.792000
      2 N          -0.3500   -1.7490   -1.9550 nh        1 11C     -0.494100
      3 O          -2.9650   -1.5700   -0.8100 o         1 11C     -0.830000
      4 CA         -0.8240   -0.5880   -1.2840 c2        1 11C      0.149200
      5 CB         -0.3210   -0.5880    0.1410 c3        1 11C     -0.165700
      6 OAB         1.4890    2.8870    2.3990 o         1 11C     -0.872300
      7 OAD         3.2260    1.7210    1.7840 o         1 11C     -0.872300
      8 CAF         0.5790    0.6090    0.3580 c3        1 11C     -0.065400
      9 CAG         1.1020    0.5970    1.7770 c3        1 11C     -0.181400
     10 CAI         1.9880    1.8020    1.9990 c         1 11C      0.903600
     11 OXT        -2.9650    0.3940   -1.7580 o         1 11C     -0.830000
     12 HN          0.3980   -1.5400   -2.4320 hn        1 11C      0.175200
     13 HNA        -0.9950   -2.0580   -2.5200 hn        1 11C      0.175200
     14 HA         -0.4990    0.2090   -1.7440 h4        1 11C     -0.049200
     15 HB          0.1830   -1.4070    0.3080 hc        1 11C      0.033200
     16 HBA        -1.0790   -0.5400    0.7540 hc        1 11C      0.033200
     17 HAF         0.0720    1.4290    0.2050 hc        1 11C      0.033200
     18 HAFA        1.3290    0.5700   -0.2660 hc        1 11C      0.033200
     19 HAG         1.6170   -0.2180    1.9270 hc        1 11C      0.015700
     20 HAGA        0.3510    0.6260    2.4010 hc        1 11C      0.015700
@<TRIPOS>BOND
     1    1    3 2   
     2    1   11 2   
     3    2    4 2   
     4    2   12 1   
     5    2   13 1   
     6    4    5 1   
     7    4   14 1   
     8    5    8 1   
     9    5   15 1   
    10    5   16 1   
    11    6   10 1   
    12    7   10 1   
    13    8    9 1   
    14    8   17 1   
    15    8   18 1   
    16    9   10 1   
    17    9   19 1   
    18    9   20 1   
@<TRIPOS>SUBSTRUCTURE
     1 11C         1 TEMP              0 ****  ****    0 ROOT
