@<TRIPOS>MOLECULE
11D
   63    64     1     0     0
SMALL
bcc


@<TRIPOS>ATOM
      1 C1          5.5480    1.1100   -1.7960 ca        1 11D     -0.039000
      2 C2          5.4430    1.0470   -0.3800 ca        1 11D     -0.063000
      3 C3          4.8140   -0.0830    0.2100 ca        1 11D      0.073000
      4 C4          4.2180   -1.0790   -0.6220 ca        1 11D     -0.370500
      5 C5          4.3360   -0.9620   -1.9940 ca        1 11D      0.004000
      6 C6          5.0150    0.1190   -2.5860 ca        1 11D     -0.178000
      7 C7          5.9830    2.0870    0.4660 ca        1 11D      0.140600
      8 C8          5.9350    1.9250    1.8450 ca        1 11D     -0.187000
      9 C9          5.3640    0.7710    2.4160 ca        1 11D     -0.084000
     10 C10         4.8070   -0.2030    1.6290 ca        1 11D     -0.170000
     11 N11         6.5950    3.2230   -0.1450 nh        1 11D     -0.644000
     12 C12         5.6590    4.1650   -0.7210 c3        1 11D      0.165600
     13 C13         7.6370    3.8570    0.6280 c3        1 11D      0.165600
     14 S14         3.3430   -2.4100   -0.0210 sy        1 11D      1.512200
     15 O15         3.0040   -3.2300   -1.1240 o         1 11D     -0.658800
     16 O16         4.0700   -3.0400    1.0140 o         1 11D     -0.658800
     17 N17         2.0300   -1.7290    0.6130 n3        1 11D     -0.921100
     18 C18         0.8430   -1.4000   -0.1260 c3        1 11D      0.222800
     19 C19        -0.4510   -1.5370    0.6760 c3        1 11D     -0.090400
     20 C20        -1.6280   -1.0920   -0.1660 c3        1 11D     -0.079400
     21 C21        -2.9190   -1.1570    0.6230 c3        1 11D     -0.078400
     22 C22        -4.0860   -0.6460   -0.1940 c3        1 11D     -0.079400
     23 C23        -5.3720   -0.6690    0.6050 c3        1 11D     -0.078400
     24 C24        -6.5270   -0.1020   -0.1930 c3        1 11D     -0.079400
     25 C25        -7.8090   -0.0990    0.6120 c3        1 11D     -0.078400
     26 C26        -8.9510    0.5180   -0.1700 c3        1 11D     -0.065400
     27 C27       -10.2370    0.5230    0.6190 c3        1 11D     -0.194400
     28 C28       -11.3260    1.3450   -0.0920 c         1 11D      0.907600
     29 O29       -11.0190    2.4810   -0.5590 o         1 11D     -0.853300
     30 O30       -12.4880    0.8500   -0.1580 o         1 11D     -0.853300
     31 H1          6.0770    1.9530   -2.2690 ha        1 11D      0.149000
     32 H5          3.8920   -1.7340   -2.6530 ha        1 11D      0.165000
     33 H6          5.1090    0.1620   -3.6820 ha        1 11D      0.141000
     34 H8          6.3450    2.6920    2.5210 ha        1 11D      0.136000
     35 H9          5.3660    0.6660    3.5120 ha        1 11D      0.136000
     36 H10         4.3900   -1.1090    2.1000 ha        1 11D      0.154000
     37 H12         5.1810    4.8290    0.0500 h1        1 11D      0.038033
     38 H12A        6.2200    4.8100   -1.4490 h1        1 11D      0.038033
     39 H12B        4.8510    3.6140   -1.2680 h1        1 11D      0.038033
     40 H13         8.3210    3.0740    1.0470 h1        1 11D      0.038033
     41 H13A        8.2210    4.5200   -0.0630 h1        1 11D      0.038033
     42 H13B        7.2450    4.4860    1.4740 h1        1 11D      0.038033
     43 HN17        1.9920   -1.4660    1.5690 hn        1 11D      0.448800
     44 H18         0.9180   -0.3340   -0.4970 h1        1 11D      0.048200
     45 H18A        0.7840   -2.0760   -1.0290 h1        1 11D      0.048200
     46 H19        -0.5940   -2.6010    0.9970 hc        1 11D      0.046700
     47 H19A       -0.3960   -0.9100    1.6050 hc        1 11D      0.046700
     48 H20        -1.4610   -0.0410   -0.5230 hc        1 11D      0.042200
     49 H20A       -1.7100   -1.7420   -1.0760 hc        1 11D      0.042200
     50 H21        -3.1150   -2.2150    0.9400 hc        1 11D      0.038700
     51 H21A       -2.8200   -0.5450    1.5580 hc        1 11D      0.038700
     52 H22        -3.8760    0.4030   -0.5340 hc        1 11D      0.038700
     53 H22A       -4.2050   -1.2740   -1.1160 hc        1 11D      0.038700
     54 H23        -5.6060   -1.7220    0.9120 hc        1 11D      0.034700
     55 H23A       -5.2390   -0.0730    1.5470 hc        1 11D      0.034700
     56 H24        -6.2850    0.9460   -0.5120 hc        1 11D      0.036700
     57 H24A       -6.6710   -0.7070   -1.1260 hc        1 11D      0.036700
     58 H25        -8.0740   -1.1490    0.9020 hc        1 11D      0.026700
     59 H25A       -7.6530    0.4760    1.5620 hc        1 11D      0.026700
     60 H26        -8.6990    1.5750   -0.4520 hc        1 11D      0.043700
     61 H26A       -9.1000   -0.0510   -1.1250 hc        1 11D      0.043700
     62 H27       -10.6030   -0.5220    0.7760 hc        1 11D      0.018700
     63 H27A      -10.0660    0.9830    1.6260 hc        1 11D      0.018700
@<TRIPOS>BOND
     1    1    2 ar  
     2    1    6 ar  
     3    1   31 1   
     4    2    3 ar  
     5    2    7 ar  
     6    3    4 ar  
     7    3   10 ar  
     8    4    5 ar  
     9    4   14 1   
    10    5    6 ar  
    11    5   32 1   
    12    6   33 1   
    13    7    8 ar  
    14    7   11 1   
    15    8    9 ar  
    16    8   34 1   
    17    9   10 ar  
    18    9   35 1   
    19   10   36 1   
    20   11   12 1   
    21   11   13 1   
    22   12   37 1   
    23   12   38 1   
    24   12   39 1   
    25   13   40 1   
    26   13   41 1   
    27   13   42 1   
    28   14   15 2   
    29   14   16 2   
    30   14   17 1   
    31   17   18 1   
    32   17   43 1   
    33   18   19 1   
    34   18   44 1   
    35   18   45 1   
    36   19   20 1   
    37   19   46 1   
    38   19   47 1   
    39   20   21 1   
    40   20   48 1   
    41   20   49 1   
    42   21   22 1   
    43   21   50 1   
    44   21   51 1   
    45   22   23 1   
    46   22   52 1   
    47   22   53 1   
    48   23   24 1   
    49   23   54 1   
    50   23   55 1   
    51   24   25 1   
    52   24   56 1   
    53   24   57 1   
    54   25   26 1   
    55   25   58 1   
    56   25   59 1   
    57   26   27 1   
    58   26   60 1   
    59   26   61 1   
    60   27   28 1   
    61   27   62 1   
    62   27   63 1   
    63   28   29 1   
    64   28   30 1   
@<TRIPOS>SUBSTRUCTURE
     1 11D         1 TEMP              0 ****  ****    0 ROOT
