@<TRIPOS>MOLECULE
11D
   64    65     1     0     0
SMALL
bcc


@<TRIPOS>ATOM
      1 C1          0.0000    0.0000    0.0000 ca        1 11D      0.043000
      2 C2          1.4040    0.0000    0.0000 ca        1 11D     -0.061000
      3 C3          2.0990    0.0000    1.2340 ca        1 11D      0.054000
      4 C4          1.3700   -0.0000    2.4350 ca        1 11D     -0.217500
      5 C5          0.0090   -0.0000    2.3970 ca        1 11D      0.080000
      6 C6         -0.6740   -0.0010    1.1840 ca        1 11D     -0.157000
      7 C7          2.1360   -0.0010   -1.2070 ca        1 11D      0.082600
      8 C8          3.5140   -0.0010   -1.1630 ca        1 11D     -0.149000
      9 C9          4.1860   -0.0010    0.0560 ca        1 11D     -0.006000
     10 C10         3.5050   -0.0010    1.2350 ca        1 11D     -0.203000
     11 N11         1.4720   -0.0010   -2.4320 nh        1 11D     -0.422000
     12 C12         1.8250    1.1860   -3.2220 c3        1 11D      0.182100
     13 C13         1.7520   -1.2340   -3.1810 c3        1 11D      0.182100
     14 S14         2.2130   -0.0010    3.9820 sy        1 11D      0.924200
     15 O15         3.1820   -1.0370    3.9120 o         1 11D     -0.523800
     16 O16         1.2090    0.0570    4.9870 o         1 11D     -0.523800
     17 N17         3.0560    1.4220    4.0820 ny        1 11D     -0.183900
     18 C18         2.3380    2.6980    4.1150 c3        1 11D      0.066800
     19 C19         3.2790    3.7990    4.6060 c3        1 11D     -0.044400
     20 C20         2.5290    5.1330    4.6400 c3        1 11D     -0.018400
     21 C21         3.4700    6.2350    5.1320 c3        1 11D     -0.026400
     22 C22         2.7210    7.5680    5.1660 c3        1 11D     -0.027400
     23 C23         3.6620    8.6700    5.6580 c3        1 11D     -0.029400
     24 C24         2.9120   10.0030    5.6920 c3        1 11D     -0.028400
     25 C25         3.8530   11.1050    6.1820 c3        1 11D     -0.035400
     26 C26         3.1030   12.4380    6.2170 c3        1 11D     -0.016400
     27 C27         4.0440   13.5400    6.7080 c3        1 11D     -0.128400
     28 C28         3.3050   14.8530    6.7420 c         1 11D      0.978600
     29 O29         3.9360   15.9680    7.1440 o         1 11D     -0.854300
     30 O30         2.1450   14.9030    6.4080 o         1 11D     -0.854300
     31 H1         -0.5420    0.1100   -0.9320 ha        1 11D      0.135000
     32 H5         -0.5500   -0.0010    3.3250 ha        1 11D      0.130000
     33 H6         -1.7570   -0.0020    1.1810 ha        1 11D      0.128000
     34 H8          4.0790   -0.0020   -2.0870 ha        1 11D      0.127000
     35 H9          5.2700   -0.0020    0.0670 ha        1 11D      0.111000
     36 H10         4.0450   -0.0710    2.1720 ha        1 11D      0.110000
     37 H12         1.8680    2.0520   -2.5720 h1        1 11D      0.010867
     38 H12A        2.7910    1.0360   -3.6880 h1        1 11D      0.010867
     39 H12B        1.0760    1.3460   -3.9880 h1        1 11D      0.010867
     40 H13         2.7610   -1.1980   -3.5730 h1        1 11D      0.010867
     41 H13A        1.6510   -2.0880   -2.5220 h1        1 11D      0.010867
     42 H13B        1.0490   -1.3260   -4.0010 h1        1 11D      0.010867
     43 HN17        3.6780    1.4520    3.2990 hn        1 11D      0.321800
     44 H18         1.9870    2.9400    3.1190 hx        1 11D      0.077700
     45 H18A        1.4920    2.6190    4.7870 hx        1 11D      0.077700
     46 H19         3.6310    3.5570    5.6020 hc        1 11D      0.029700
     47 H19A        4.1250    3.8780    3.9340 hc        1 11D      0.029700
     48 H20         2.1780    5.3750    3.6450 hc        1 11D      0.025200
     49 H20A        1.6830    5.0540    5.3120 hc        1 11D      0.025200
     50 H21         4.3160    6.3130    4.4600 hc        1 11D      0.017700
     51 H21A        3.8210    5.9920    6.1280 hc        1 11D      0.017700
     52 H22         2.3700    7.8110    4.1710 hc        1 11D      0.017700
     53 H22A        1.8750    7.4900    5.8380 hc        1 11D      0.017700
     54 H23         4.0130    8.4270    6.6530 hc        1 11D      0.013200
     55 H23A        4.5080    8.7480    4.9860 hc        1 11D      0.013200
     56 H24         2.5600   10.2450    4.6960 hc        1 11D      0.015200
     57 H24A        2.0660    9.9240    6.3650 hc        1 11D      0.015200
     58 H25         4.6980   11.1830    5.5100 hc        1 11D      0.006700
     59 H25A        4.2040   10.8630    7.1780 hc        1 11D      0.006700
     60 H26         2.2570   12.3590    6.8890 hc        1 11D      0.022700
     61 H26A        2.7510   12.6810    5.2210 hc        1 11D      0.022700
     62 H27         4.3940   13.2980    7.7040 hc        1 11D      0.008700
     63 H27A        4.8900   13.6190    6.0370 hc        1 11D      0.008700
     64 H172        3.6160    1.3760    4.9100 hn        1 11D      0.321800
@<TRIPOS>BOND
     1    1    2 ar  
     2    1    6 ar  
     3    1   31 1   
     4    2    3 ar  
     5    2    7 ar  
     6    3    4 ar  
     7    3   10 ar  
     8    4    5 ar  
     9    4   14 1   
    10    5    6 ar  
    11    5   32 1   
    12    6   33 1   
    13    7    8 ar  
    14    7   11 1   
    15    8    9 ar  
    16    8   34 1   
    17    9   10 ar  
    18    9   35 1   
    19   10   36 1   
    20   11   12 1   
    21   11   13 1   
    22   12   37 1   
    23   12   38 1   
    24   12   39 1   
    25   13   40 1   
    26   13   41 1   
    27   13   42 1   
    28   14   15 2   
    29   14   16 2   
    30   14   17 1   
    31   17   18 1   
    32   17   43 1   
    33   17   64 1   
    34   18   19 1   
    35   18   44 1   
    36   18   45 1   
    37   19   20 1   
    38   19   46 1   
    39   19   47 1   
    40   20   21 1   
    41   20   48 1   
    42   20   49 1   
    43   21   22 1   
    44   21   50 1   
    45   21   51 1   
    46   22   23 1   
    47   22   52 1   
    48   22   53 1   
    49   23   24 1   
    50   23   54 1   
    51   23   55 1   
    52   24   25 1   
    53   24   56 1   
    54   24   57 1   
    55   25   26 1   
    56   25   58 1   
    57   25   59 1   
    58   26   27 1   
    59   26   60 1   
    60   26   61 1   
    61   27   28 1   
    62   27   62 1   
    63   27   63 1   
    64   28   29 1   
    65   28   30 1   
@<TRIPOS>SUBSTRUCTURE
     1 11D         1 TEMP              0 ****  ****    0 ROOT
