@<TRIPOS>MOLECULE
11D
   63    64     1     0     0
SMALL
bcc


@<TRIPOS>ATOM
      1 C1          0.0910   -0.2000   -0.0860 ca        1 11D     -0.039000
      2 C2          1.5110   -0.2440   -0.0830 ca        1 11D     -0.063000
      3 C3          2.1950   -0.1920    1.1630 ca        1 11D      0.073000
      4 C4          1.4560   -0.0010    2.3710 ca        1 11D     -0.370500
      5 C5          0.0750    0.0500    2.3090 ca        1 11D      0.004000
      6 C6         -0.6130   -0.0670    1.0870 ca        1 11D     -0.178000
      7 C7          2.2680   -0.3670   -1.3070 ca        1 11D      0.140600
      8 C8          3.6490   -0.5000   -1.2350 ca        1 11D     -0.187000
      9 C9          4.3080   -0.5100    0.0100 ca        1 11D     -0.084000
     10 C10         3.6090   -0.3500    1.1790 ca        1 11D     -0.170000
     11 N11         1.5660   -0.3980   -2.5500 nh        1 11D     -0.644000
     12 C12         1.0600    0.8880   -2.9810 c3        1 11D      0.165600
     13 C13         2.2120   -1.1390   -3.6080 c3        1 11D      0.165600
     14 S14         2.1800    0.1880    3.9000 sy        1 11D      1.512200
     15 O15         1.1410    0.2400    4.8590 o         1 11D     -0.658800
     16 O16         3.1530   -0.8160    4.1020 o         1 11D     -0.658800
     17 N17         2.9230    1.6100    3.7800 n3        1 11D     -0.921100
     18 C18         2.2990    2.8800    4.0210 c3        1 11D      0.222800
     19 C19         3.2310    3.9310    4.6240 c3        1 11D     -0.090400
     20 C20         2.5000    5.2490    4.7640 c3        1 11D     -0.079400
     21 C21         3.4170    6.3270    5.3020 c3        1 11D     -0.078400
     22 C22         2.7080    7.6630    5.3750 c3        1 11D     -0.079400
     23 C23         3.6330    8.7530    5.8720 c3        1 11D     -0.078400
     24 C24         2.9400   10.0990    5.8880 c3        1 11D     -0.079400
     25 C25         3.8690   11.1970    6.3590 c3        1 11D     -0.078400
     26 C26         3.1900   12.5500    6.3240 c3        1 11D     -0.065400
     27 C27         4.1040   13.6530    6.7960 c3        1 11D     -0.194400
     28 C28         3.4840   15.0400    6.5470 c         1 11D      0.907600
     29 O29         2.9560   15.2720    5.4200 o         1 11D     -0.853300
     30 O30         3.5500   15.8900    7.4810 o         1 11D     -0.853300
     31 H1         -0.4570   -0.2900   -1.0390 ha        1 11D      0.149000
     32 H5         -0.5120    0.1820    3.2390 ha        1 11D      0.165000
     33 H6         -1.7130   -0.0470    1.0840 ha        1 11D      0.141000
     34 H8          4.2580   -0.6060   -2.1460 ha        1 11D      0.136000
     35 H9          5.4010   -0.6430    0.0300 ha        1 11D      0.136000
     36 H10         4.1460   -0.3870    2.1410 ha        1 11D      0.154000
     37 H12         0.2620    0.7070   -3.7480 h1        1 11D      0.038200
     38 H12A        0.6150    1.4330   -2.1090 h1        1 11D      0.038200
     39 H12B        1.8570    1.5360   -3.4400 h1        1 11D      0.038200
     40 H13         2.5830   -2.1190   -3.2080 h1        1 11D      0.038200
     41 H13A        3.0750   -0.5900   -4.0760 h1        1 11D      0.038200
     42 H13B        1.4470   -1.3360   -4.4050 h1        1 11D      0.038200
     43 HN17        3.8700    1.6770    3.4910 hn        1 11D      0.448800
     44 H18         1.8920    3.2870    3.0470 h1        1 11D      0.048200
     45 H18A        1.4260    2.7240    4.7210 h1        1 11D      0.048200
     46 H19         3.5960    3.5900    5.6280 hc        1 11D      0.046700
     47 H19A        4.1310    4.0680    3.9690 hc        1 11D      0.046700
     48 H20         1.6220    5.1240    5.4510 hc        1 11D      0.042200
     49 H20A        2.0970    5.5650    3.7650 hc        1 11D      0.042200
     50 H21         4.3190    6.4180    4.6410 hc        1 11D      0.038700
     51 H21A        3.7820    6.0380    6.3220 hc        1 11D      0.038700
     52 H22         1.8210    7.5820    6.0580 hc        1 11D      0.038700
     53 H22A        2.3180    7.9370    4.3590 hc        1 11D      0.038700
     54 H23         4.5380    8.8070    5.2110 hc        1 11D      0.034700
     55 H23A        3.9920    8.5010    6.9040 hc        1 11D      0.034700
     56 H24         2.5670   10.3430    4.8590 hc        1 11D      0.036700
     57 H24A        2.0430   10.0520    6.5610 hc        1 11D      0.036700
     58 H25         4.2150   10.9750    7.4030 hc        1 11D      0.026700
     59 H25A        4.7820   11.2200    5.7080 hc        1 11D      0.026700
     60 H26         2.8540   12.7860    5.2780 hc        1 11D      0.043700
     61 H26A        2.2720   12.5240    6.9670 hc        1 11D      0.043700
     62 H27         4.3270   13.5360    7.8850 hc        1 11D      0.018700
     63 H27A        5.0750   13.6100    6.2390 hc        1 11D      0.018700
@<TRIPOS>BOND
     1    1    2 ar  
     2    1    6 ar  
     3    1   31 1   
     4    2    3 ar  
     5    2    7 ar  
     6    3    4 ar  
     7    3   10 ar  
     8    4    5 ar  
     9    4   14 1   
    10    5    6 ar  
    11    5   32 1   
    12    6   33 1   
    13    7    8 ar  
    14    7   11 1   
    15    8    9 ar  
    16    8   34 1   
    17    9   10 ar  
    18    9   35 1   
    19   10   36 1   
    20   11   12 1   
    21   11   13 1   
    22   12   37 1   
    23   12   38 1   
    24   12   39 1   
    25   13   40 1   
    26   13   41 1   
    27   13   42 1   
    28   14   15 2   
    29   14   16 2   
    30   14   17 1   
    31   17   18 1   
    32   17   43 1   
    33   18   19 1   
    34   18   44 1   
    35   18   45 1   
    36   19   20 1   
    37   19   46 1   
    38   19   47 1   
    39   20   21 1   
    40   20   48 1   
    41   20   49 1   
    42   21   22 1   
    43   21   50 1   
    44   21   51 1   
    45   22   23 1   
    46   22   52 1   
    47   22   53 1   
    48   23   24 1   
    49   23   54 1   
    50   23   55 1   
    51   24   25 1   
    52   24   56 1   
    53   24   57 1   
    54   25   26 1   
    55   25   58 1   
    56   25   59 1   
    57   26   27 1   
    58   26   60 1   
    59   26   61 1   
    60   27   28 1   
    61   27   62 1   
    62   27   63 1   
    63   28   29 1   
    64   28   30 1   
@<TRIPOS>SUBSTRUCTURE
     1 11D         1 TEMP              0 ****  ****    0 ROOT
