@<TRIPOS>MOLECULE
11D
   63    59     1     0     0
SMALL
bcc


@<TRIPOS>ATOM
      1 C1          0.9510   -5.1450   -3.8710 c1        1 11D     -0.113750
      2 C2         -0.1920   -5.2460   -3.0480 c1        1 11D     -0.056000
      3 C3         -0.6700   -4.1290   -2.3930 c1        1 11D      0.065000
      4 C4         -0.0120   -2.8790   -2.5470 c2        1 11D     -0.800000
      5 C5          1.1090   -2.7820   -3.3550 c1        1 11D      0.000000
      6 C6          1.5950   -3.9180   -4.0220 c1        1 11D     -0.113750
      7 C7         -0.8500   -6.4960   -2.8940 c2        1 11D      0.053000
      8 C8         -1.9770   -6.5950   -2.0820 c1        1 11D     -0.183000
      9 C9         -2.4620   -5.4640   -1.4180 c1        1 11D     -0.113750
     10 C10        -1.8140   -4.2300   -1.5700 c1        1 11D     -0.113750
     11 N11        -0.7160   -7.8500   -3.3710 n3        1 11D     -0.245000
     12 C12         0.1930   -8.7410   -2.7360 c3        1 11D     -0.110000
     13 C13        -1.4650   -8.2870   -4.5280 c3        1 11D     -0.110000
     14 S14        -0.5170   -1.4150   -1.6410 s4        1 11D      2.058800
     15 O15        -1.9460   -1.3540   -1.5040 o         1 11D     -0.543900
     16 O16        -0.1090   -1.4870   -0.2680 o         1 11D     -0.543900
     17 N17         0.0820   -0.0400   -2.3820 n2        1 11D     -0.893000
     18 C18        -0.6630    1.2060   -2.3170 c3        1 11D     -0.017000
     19 C19         0.2730    2.3410   -1.8590 c3        1 11D     -0.184000
     20 C20        -0.4680    3.2440   -0.8460 c3        1 11D     -0.159000
     21 C21         0.5590    3.9440    0.0670 c3        1 11D     -0.158000
     22 C22        -0.1700    4.5500    1.3020 c3        1 11D     -0.158000
     23 C23         0.8780    5.1020    2.3010 c3        1 11D     -0.157000
     24 C24         0.1790    5.4640    3.6350 c3        1 11D     -0.158000
     25 C25         1.2230    5.9870    4.6350 c3        1 11D     -0.157000
     26 C26         0.5660    6.2030    5.9910 c3        1 11D     -0.144000
     27 C27         1.6120    6.6860    6.9900 c3        1 11D     -0.223000
     28 C28         0.9350    7.0570    8.2920 c2        1 11D      0.327000
     29 O29         0.4860    8.2160    8.4560 o         1 11D     -0.587500
     30 O30         0.8630    6.2130    9.2300 o         1 11D     -0.587500
     31 H1          1.2880   -5.9310   -4.3330 ha        1 11D      0.146750
     32 H5          1.5630   -1.9190   -3.4620 ha        1 11D      0.143000
     33 H6          2.3840   -3.8490   -4.5900 ha        1 11D      0.146750
     34 H8         -2.4300   -7.4550   -1.9760 ha        1 11D      0.134000
     35 H9         -3.2490   -5.5340   -0.8520 ha        1 11D      0.146750
     36 H10        -2.1530   -3.4420   -1.1060 ha        1 11D      0.146750
     37 H12         0.9420   -8.9330   -3.3430 h1        1 11D      0.076667
     38 H12A        0.5370   -8.3260   -1.9130 h1        1 11D      0.076667
     39 H12B       -0.2720   -9.5800   -2.5120 h1        1 11D      0.076667
     40 H13        -2.0540   -9.0320   -4.2740 h1        1 11D      0.076667
     41 H13A       -0.8400   -8.5860   -5.2310 h1        1 11D      0.076667
     42 H13B       -2.0070   -7.5430   -4.8670 h1        1 11D      0.076667
     43 HN17        0.9100   -0.0590   -2.7850 hn        1 11D      0.246000
     44 H18        -1.4000    1.1130   -1.6810 h1        1 11D      0.098500
     45 H18A       -1.0230    1.4170   -3.2050 h1        1 11D      0.098500
     46 H19         1.0620    1.9600   -1.4370 hc        1 11D      0.089000
     47 H19A        0.5440    2.8760   -2.6380 hc        1 11D      0.089000
     48 H20        -1.0680    2.6990   -0.3030 hc        1 11D      0.076500
     49 H20A       -0.9870    3.9190   -1.3300 hc        1 11D      0.076500
     50 H21         1.0040    4.6560   -0.4300 hc        1 11D      0.078500
     51 H21A        1.2250    3.2910    0.3690 hc        1 11D      0.078500
     52 H22        -0.7050    3.8540    1.7410 hc        1 11D      0.077500
     53 H22A       -0.7600    5.2800    1.0090 hc        1 11D      0.077500
     54 H23         1.2970    5.9020    1.9240 hc        1 11D      0.074000
     55 H23A        1.5620    4.4220    2.4640 hc        1 11D      0.074000
     56 H24        -0.2580    4.6610    4.0060 hc        1 11D      0.076500
     57 H24A       -0.4930    6.1560    3.4740 hc        1 11D      0.076500
     58 H25         1.5870    6.8330    4.3120 hc        1 11D      0.065500
     59 H25A        1.9470    5.3330    4.7230 hc        1 11D      0.065500
     60 H26         0.1810    5.3580    6.3050 hc        1 11D      0.083500
     61 H26A       -0.1370    6.8690    5.9100 hc        1 11D      0.083500
     62 H27         2.2630    5.9700    7.1530 hc        1 11D      0.058000
     63 H27A        2.0700    7.4650    6.6290 hc        1 11D      0.058000
@<TRIPOS>BOND
     1    1    6 1   
     2    1   31 1   
     3    2    3 1   
     4    2    7 1   
     5    3    4 1   
     6    4    5 1   
     7    4   14 1   
     8    5   32 1   
     9    6   33 1   
    10    7    8 1   
    11    7   11 1   
    12    8   34 1   
    13    9   10 1   
    14    9   35 1   
    15   10   36 1   
    16   11   12 1   
    17   11   13 1   
    18   12   37 1   
    19   12   38 1   
    20   12   39 1   
    21   13   40 1   
    22   13   41 1   
    23   13   42 1   
    24   14   15 1   
    25   14   16 1   
    26   17   18 1   
    27   17   43 1   
    28   18   19 1   
    29   18   44 1   
    30   18   45 1   
    31   19   20 1   
    32   19   46 1   
    33   19   47 1   
    34   20   21 1   
    35   20   48 1   
    36   20   49 1   
    37   21   22 1   
    38   21   50 1   
    39   21   51 1   
    40   22   23 1   
    41   22   52 1   
    42   22   53 1   
    43   23   24 1   
    44   23   54 1   
    45   23   55 1   
    46   24   25 1   
    47   24   56 1   
    48   24   57 1   
    49   25   26 1   
    50   25   58 1   
    51   25   59 1   
    52   26   27 1   
    53   26   60 1   
    54   26   61 1   
    55   27   28 1   
    56   27   62 1   
    57   27   63 1   
    58   28   29 1   
    59   28   30 1   
@<TRIPOS>SUBSTRUCTURE
     1 11D         1 TEMP              0 ****  ****    0 ROOT
