@<TRIPOS>MOLECULE
11E
   25    26     1     0     0
SMALL
bcc


@<TRIPOS>ATOM
      1 O3          6.1710    0.2840   -0.1600 o         1 11E     -0.835800
      2 C9          4.9530    0.5210    0.0490 c         1 11E      0.905600
      3 O2          4.4420    1.6730    0.1640 o         1 11E     -0.835800
      4 C8          4.0210   -0.7230    0.1760 c3        1 11E     -0.067000
      5 N1          2.6470   -0.3760    0.4490 n         1 11E     -0.496900
      6 C7          1.6000   -0.9620   -0.2140 c         1 11E      0.640700
      7 O1          1.6820   -2.0770   -0.7820 o         1 11E     -0.643100
      8 C3          0.2700   -0.2680   -0.1470 ca        1 11E     -0.120600
      9 C2          0.1680    1.1290   -0.2840 ca        1 11E     -0.096000
     10 C4         -0.8720   -1.0490    0.0190 ca        1 11E     -0.046000
     11 C5         -2.1190   -0.4320    0.0640 ca        1 11E     -0.100100
     12 S1         -3.6560   -1.1160    0.2650 ss        1 11E     -0.082100
     13 C6         -2.2300    0.9920   -0.0730 ca        1 11E      0.109400
     14 C1         -1.0650    1.7620   -0.2480 ca        1 11E     -0.101000
     15 N2         -3.5400    1.4900   -0.0390 nc        1 11E     -0.588100
     16 C10        -4.3980    0.4820    0.1420 cd        1 11E      0.536100
     17 N3         -5.7790    0.5960    0.3320 nh        1 11E     -0.849800
     18 H2          4.0960   -1.3260   -0.7700 h1        1 11E      0.046700
     19 H3          4.3970   -1.3590    1.0240 h1        1 11E      0.046700
     20 H4          2.5410    0.5850    0.7210 hn        1 11E      0.320500
     21 H5          1.0800    1.7340   -0.4330 ha        1 11E      0.168000
     22 H6         -0.7730   -2.1430    0.1020 ha        1 11E      0.159000
     23 H7         -1.1380    2.8540   -0.3560 ha        1 11E      0.148000
     24 H8         -6.2890   -0.0360   -0.2510 hn        1 11E      0.390800
     25 H9         -6.1240    1.5320    0.2560 hn        1 11E      0.390800
@<TRIPOS>BOND
     1    1    2 1   
     2    2    3 1   
     3    2    4 1   
     4    4    5 1   
     5    4   18 1   
     6    4   19 1   
     7    5    6 1   
     8    5   20 1   
     9    6    7 2   
    10    6    8 1   
    11    8    9 ar  
    12    8   10 ar  
    13    9   14 ar  
    14    9   21 1   
    15   10   11 ar  
    16   10   22 1   
    17   11   12 1   
    18   11   13 ar  
    19   12   16 1   
    20   13   14 ar  
    21   13   15 1   
    22   14   23 1   
    23   15   16 2   
    24   16   17 1   
    25   17   24 1   
    26   17   25 1   
@<TRIPOS>SUBSTRUCTURE
     1 11E         1 TEMP              0 ****  ****    0 ROOT
