@<TRIPOS>MOLECULE
11E
   25    21     1     0     0
SMALL
bcc


@<TRIPOS>ATOM
      1 O3         -1.0030   -5.6120    0.3160 o         1 11E     -0.571500
      2 C9         -1.8400   -4.7260    0.0050 c2        1 11E      0.325000
      3 O2         -2.5960   -4.8950   -0.9880 o         1 11E     -0.571500
      4 C8         -1.9510   -3.4640    0.8330 c3        1 11E     -0.134000
      5 N1         -1.1410   -2.4460    0.2580 n         1 11E     -0.307000
      6 C7         -1.5910   -1.0990    0.2540 c2        1 11E      0.315000
      7 O1         -2.7140   -0.8330    0.6340 o         1 11E     -0.401000
      8 C3         -0.6710    0.0040   -0.2220 c2        1 11E     -0.103000
      9 C2         -0.6310    0.4960   -1.5430 c2        1 11E     -0.082000
     10 C4          0.1150    0.5980    0.7690 c1        1 11E     -0.056000
     11 C5          0.9350    1.6730    0.4550 c1        1 11E     -0.178500
     12 S1          1.9020    2.5220    1.3030 s         1 11E      0.399000
     13 C6          0.9750    2.1700   -0.8800 c1        1 11E     -0.178500
     14 C1          0.1940    1.5790   -1.8630 c1        1 11E     -0.110000
     15 N2          1.9930    3.3830   -0.9310 n1        1 11E     -0.169000
     16 C10         2.5310    3.5750    0.3740 c1        1 11E     -0.133000
     17 N3          3.5270    4.5530    0.6290 n2        1 11E     -0.290000
     18 H2         -1.6470   -3.6460    1.7470 h1        1 11E      0.086500
     19 H3         -2.8850   -3.1680    0.8530 h1        1 11E      0.086500
     20 H4         -0.3260   -2.6550   -0.0940 hn        1 11E      0.232000
     21 H5         -1.1790    0.0790   -2.2360 ha        1 11E      0.154000
     22 H6          0.0780    0.2640    1.6860 ha        1 11E      0.172000
     23 H7          0.2210    1.9190   -2.7780 ha        1 11E      0.142000
     24 H8          3.8710    4.6460    1.4710 hn        1 11E      0.187000
     25 H9          3.8320    5.0830   -0.0510 hn        1 11E      0.187000
@<TRIPOS>BOND
     1    1    2 1   
     2    2    3 1   
     3    2    4 1   
     4    4    5 1   
     5    4   18 1   
     6    4   19 1   
     7    5    6 1   
     8    5   20 1   
     9    6    7 1   
    10    6    8 1   
    11    8    9 1   
    12    8   10 1   
    13    9   14 1   
    14    9   21 1   
    15   10   22 1   
    16   11   13 1   
    17   12   16 1   
    18   14   23 1   
    19   15   16 1   
    20   17   24 1   
    21   17   25 1   
@<TRIPOS>SUBSTRUCTURE
     1 11E         1 TEMP              0 ****  ****    0 ROOT
