@<TRIPOS>MOLECULE
11E
   26    27     1     0     0
SMALL
bcc


@<TRIPOS>ATOM
      1 O3          0.0210    0.0680   -0.1220 o         1 11E     -0.763800
      2 C9          1.2500    0.2230   -0.0480 c         1 11E      0.929600
      3 O2          1.9580    0.6650    0.9000 o         1 11E     -0.763800
      4 C8          2.0690   -0.1940   -1.3470 c3        1 11E     -0.078200
      5 N1          3.5140   -0.2480   -1.0090 ny        1 11E     -0.651800
      6 C7          4.4700    0.1600   -2.0740 c         1 11E      0.557700
      7 O1          4.0130    0.5000   -3.1640 o         1 11E     -0.458100
      8 C3          5.8980    0.0950   -1.7340 ca        1 11E     -0.217600
      9 C2          6.3710    0.0610   -0.4040 ca        1 11E     -0.085000
     10 C4          6.8000    0.0920   -2.8040 ca        1 11E      0.014000
     11 C5          8.1640    0.0310   -2.5490 ca        1 11E     -0.140100
     12 S1          9.4610    0.0020   -3.6330 ss        1 11E     -0.040100
     13 C6          8.6510   -0.0140   -1.1960 ca        1 11E      0.184400
     14 C1          7.7240    0.0060   -0.1290 ca        1 11E     -0.100000
     15 N2         10.0330   -0.0600   -1.0600 nc        1 11E     -0.617100
     16 C10        10.6050   -0.0670   -2.2830 cd        1 11E      0.623100
     17 N3         11.9460   -0.1980   -2.5270 nv        1 11E     -0.883800
     18 H2          1.8890    0.5820   -2.1360 hx        1 11E      0.095200
     19 H3          1.7260   -1.1920   -1.7140 hx        1 11E      0.095200
     20 H4          3.6120    0.3950   -0.1760 hn        1 11E      0.469300
     21 H5          5.6740    0.0970    0.4500 ha        1 11E      0.146000
     22 H6          6.4210    0.1400   -3.8400 ha        1 11E      0.166000
     23 H7          8.0880   -0.0160    0.9110 ha        1 11E      0.171000
     24 H8         12.5750   -0.1490   -1.7580 hn        1 11E      0.440800
     25 H9         12.2800    0.1200   -3.4060 hn        1 11E      0.440800
     26 H12         3.7570   -1.1890   -0.6930 hn        1 11E      0.469300
@<TRIPOS>BOND
     1    1    2 1   
     2    2    3 1   
     3    2    4 1   
     4    4    5 1   
     5    4   18 1   
     6    4   19 1   
     7    5    6 1   
     8    5   20 1   
     9    5   26 1   
    10    6    7 2   
    11    6    8 1   
    12    8    9 ar  
    13    8   10 ar  
    14    9   14 ar  
    15    9   21 1   
    16   10   11 ar  
    17   10   22 1   
    18   11   12 1   
    19   11   13 ar  
    20   12   16 1   
    21   13   14 ar  
    22   13   15 1   
    23   14   23 1   
    24   15   16 2   
    25   16   17 1   
    26   17   24 1   
    27   17   25 1   
@<TRIPOS>SUBSTRUCTURE
     1 11E         1 TEMP              0 ****  ****    0 ROOT
