@<TRIPOS>MOLECULE
11E
   26    27     1     0     0
SMALL
bcc


@<TRIPOS>ATOM
      1 O3          0.0210   -0.0500   -0.1230 o         1 11E     -0.763800
      2 C9          1.2500   -0.2000   -0.0440 c         1 11E      0.929600
      3 O2          1.9590   -0.6130    0.9170 o         1 11E     -0.763800
      4 C8          2.0680    0.1820   -1.3540 c3        1 11E     -0.078200
      5 N1          3.5140    0.2500   -1.0180 n4        1 11E     -0.651800
      6 C7          4.4700   -0.1860   -2.0700 c         1 11E      0.557700
      7 O1          4.0150   -0.5570   -3.1510 o         1 11E     -0.458100
      8 C3          5.8990   -0.1090   -1.7310 ca        1 11E     -0.217600
      9 C2          6.3700   -0.0370   -0.4030 ca        1 11E     -0.085000
     10 C4          6.8010   -0.1340   -2.8010 ca        1 11E      0.014000
     11 C5          8.1640   -0.0640   -2.5470 ca        1 11E     -0.140100
     12 S1          9.4620   -0.0630   -3.6310 ss        1 11E     -0.040100
     13 C6          8.6500    0.0190   -1.1950 ca        1 11E      0.184400
     14 C1          7.7230    0.0270   -0.1290 ca        1 11E     -0.100000
     15 N2         10.0330    0.0720   -1.0610 nc        1 11E     -0.617100
     16 C10        10.6050    0.0450   -2.2830 cd        1 11E      0.623100
     17 N3         11.9460    0.1720   -2.5300 nh        1 11E     -0.883800
     18 H2          1.8910   -0.6160   -2.1210 hx        1 11E      0.095200
     19 H3          1.7220    1.1690   -1.7490 hx        1 11E      0.095200
     20 H4          3.6130   -0.3690   -0.1670 hn        1 11E      0.469300
     21 H5          5.6730   -0.0510    0.4510 ha        1 11E      0.146000
     22 H6          6.4220   -0.2110   -3.8350 ha        1 11E      0.166000
     23 H7          8.0860    0.0790    0.9100 ha        1 11E      0.171000
     24 H8         12.5750    0.1460   -1.7590 hn        1 11E      0.440800
     25 H9         12.2810   -0.1700   -3.3990 hn        1 11E      0.440800
     26 H12         3.7530    1.2000   -0.7290 hn        1 11E      0.469300
@<TRIPOS>BOND
     1    1    2 1   
     2    2    3 1   
     3    2    4 1   
     4    4    5 1   
     5    4   18 1   
     6    4   19 1   
     7    5    6 1   
     8    5   20 1   
     9    5   26 1   
    10    6    7 2   
    11    6    8 1   
    12    8    9 ar  
    13    8   10 ar  
    14    9   14 ar  
    15    9   21 1   
    16   10   11 ar  
    17   10   22 1   
    18   11   12 1   
    19   11   13 ar  
    20   12   16 1   
    21   13   14 ar  
    22   13   15 1   
    23   14   23 1   
    24   15   16 2   
    25   16   17 1   
    26   17   24 1   
    27   17   25 1   
@<TRIPOS>SUBSTRUCTURE
     1 11E         1 TEMP              0 ****  ****    0 ROOT
