@<TRIPOS>MOLECULE
11E
   27    28     1     0     0
SMALL
bcc


@<TRIPOS>ATOM
      1 O3         -0.8000   -0.2640   -2.1770 o         1 11E     -0.767800
      2 C9          0.0190   -1.1560   -2.5350 c         1 11E      0.924600
      3 O2         -0.1840   -2.2390   -3.1070 o         1 11E     -0.767800
      4 C8          1.5390   -0.7910   -2.2590 c3        1 11E     -0.072200
      5 N1          1.6910    0.6950   -2.2140 n4        1 11E     -0.654800
      6 C7          1.9180    1.2690   -3.5730 c         1 11E      0.561700
      7 O1          2.9770    1.8590   -3.7590 o         1 11E     -0.432100
      8 C3          0.8500    1.0360   -4.5720 ca        1 11E     -0.112600
      9 C2         -0.4860    1.3920   -4.2860 ca        1 11E     -0.037000
     10 C4          1.2030    0.4200   -5.7690 ca        1 11E     -0.025000
     11 C5          0.1940    0.0980   -6.6790 ca        1 11E     -0.097100
     12 S1          0.2860   -0.7420   -8.1330 ss        1 11E      0.171900
     13 C6         -1.1770    0.4430   -6.3880 ca        1 11E      0.114400
     14 C1         -1.5000    1.1140   -5.1880 ca        1 11E     -0.021000
     15 N2         -2.0900    0.0210   -7.3480 nc        1 11E     -0.451100
     16 C10        -1.4270   -0.6330   -8.3150 cd        1 11E      0.286100
     17 N3         -2.1380   -1.2390   -9.4320 n4        1 11E     -0.746600
     18 H2          2.1980   -1.2250   -3.0510 hx        1 11E      0.097200
     19 H3          1.8190   -1.2070   -1.2560 hx        1 11E      0.097200
     20 H4          0.7700    1.0410   -1.8470 hn        1 11E      0.471300
     21 H5         -0.7520    1.8480   -3.3150 ha        1 11E      0.187000
     22 H6          2.2550    0.1690   -5.9840 ha        1 11E      0.172000
     23 H7         -2.5480    1.3710   -4.9560 ha        1 11E      0.193000
     24 H8         -3.0930   -0.8540   -9.5080 hn        1 11E      0.478800
     25 H9         -2.2060   -2.2550   -9.2740 hn        1 11E      0.478800
     26 H12         2.4490    0.9740   -1.5870 hn        1 11E      0.471300
     27 H33        -1.6290   -1.0520  -10.3030 hn        1 11E      0.478800
@<TRIPOS>BOND
     1    1    2 1   
     2    2    3 1   
     3    2    4 1   
     4    4    5 1   
     5    4   18 1   
     6    4   19 1   
     7    5    6 1   
     8    5   20 1   
     9    5   26 1   
    10    6    7 2   
    11    6    8 1   
    12    8    9 ar  
    13    8   10 ar  
    14    9   14 ar  
    15    9   21 1   
    16   10   11 ar  
    17   10   22 1   
    18   11   12 1   
    19   11   13 ar  
    20   12   16 1   
    21   13   14 ar  
    22   13   15 1   
    23   14   23 1   
    24   15   16 2   
    25   16   17 1   
    26   17   24 1   
    27   17   25 1   
    28   17   27 1   
@<TRIPOS>SUBSTRUCTURE
     1 11E         1 TEMP              0 ****  ****    0 ROOT
