@<TRIPOS>MOLECULE
11F
   49    51     1     0     0
SMALL
bcc


@<TRIPOS>ATOM
      1 C1K        -4.9480    1.0230    1.4760 ca        1 11F     -0.111500
      2 C1I        -6.1080    1.7940    1.5080 ca        1 11F     -0.135000
      3 C1H        -6.6410    2.3080    0.3260 ca        1 11F     -0.127000
      4 C1J        -6.0120    2.0430   -0.8900 ca        1 11F     -0.135000
      5 C1L        -4.8530    1.2700   -0.9270 ca        1 11F     -0.111500
      6 C1V        -4.3080    0.7550    0.2570 cp        1 11F     -0.029000
      7 C1Z        -3.0780   -0.0350    0.2410 cp        1 11F     -0.058000
      8 C1Y        -2.8290   -1.0400   -0.7220 ca        1 11F      0.135100
      9 C1O        -1.6410   -1.7830   -0.6960 ca        1 11F     -0.199000
     10 O1R        -3.8060   -1.2230   -1.6830 os        1 11F     -0.324900
     11 C1A        -3.7020   -2.4000   -2.4750 c3        1 11F      0.111700
     12 C1N        -2.0950    0.1990    1.2110 ca        1 11F     -0.096000
     13 C1M        -0.9130   -0.5340    1.2380 ca        1 11F     -0.155000
     14 C1W        -0.6810   -1.5310    0.2860 ca        1 11F     -0.042300
     15 C2A         0.5870   -2.3400    0.3150 c3        1 11F      0.069700
     16 C1C         0.6320   -3.2110    1.5650 c3        1 11F     -0.085100
     17 C1G         1.7480   -1.4950    0.2290 c1        1 11F     -0.154100
     18 C1F         2.7230   -0.8020    0.1380 cg        1 11F     -0.081000
     19 C5          3.8490    0.0180    0.0270 ca        1 11F     -0.343600
     20 C6          5.1660   -0.4960    0.1350 ca        1 11F      0.537600
     21 C1B         5.3410   -1.9610    0.3850 c3        1 11F     -0.157400
     22 N1          6.2620    0.2760    0.0170 nb        1 11F     -0.792000
     23 C2          6.0480    1.6270   -0.2430 ca        1 11F      0.915900
     24 N1D         7.1740    2.4180   -0.4830 nh        1 11F     -0.932500
     25 N3          4.8150    2.2430   -0.3400 nb        1 11F     -0.832000
     26 C4          3.7150    1.4370   -0.1980 ca        1 11F      0.747200
     27 N1E         2.4640    2.0170   -0.2250 nh        1 11F     -0.954500
     28 H1K        -4.5360    0.6150    2.4110 ha        1 11F      0.138500
     29 H1I        -6.6040    1.9960    2.4680 ha        1 11F      0.130000
     30 H1H        -7.5560    2.9180    0.3530 ha        1 11F      0.130000
     31 H1J        -6.4310    2.4440   -1.8250 ha        1 11F      0.130000
     32 H1L        -4.3660    1.0500   -1.8900 ha        1 11F      0.138500
     33 H1O        -1.4560   -2.5640   -1.4480 ha        1 11F      0.139000
     34 H1A        -2.8240   -2.3300   -3.1640 h1        1 11F      0.045033
     35 H1AA       -3.6260   -3.3110   -1.8340 h1        1 11F      0.045033
     36 H1AB       -4.6580   -2.4050   -3.0580 h1        1 11F      0.045033
     37 H1N        -2.2660    0.9840    1.9650 ha        1 11F      0.140000
     38 H1M        -0.1540   -0.3290    2.0090 ha        1 11F      0.142000
     39 H2A         0.5970   -3.0280   -0.5860 hc        1 11F      0.065700
     40 H1C         1.5670   -3.8210    1.5720 hc        1 11F      0.043367
     41 H1CA        0.6090   -2.5790    2.4850 hc        1 11F      0.043367
     42 H1CB       -0.2480   -3.8970    1.5790 hc        1 11F      0.043367
     43 H1B         5.1160   -2.5170   -0.5590 hc        1 11F      0.061033
     44 H1BA        6.3790   -2.2150    0.7110 hc        1 11F      0.061033
     45 H1BB        4.6220   -2.2920    1.1750 hc        1 11F      0.061033
     46 HN1D        8.0500    2.0540   -0.1890 hn        1 11F      0.430300
     47 HN1A        7.0560    3.4020   -0.4310 hn        1 11F      0.430300
     48 HN1E        2.3640    2.9570   -0.5220 hn        1 11F      0.438300
     49 HN1B        1.6820    1.4120   -0.3050 hn        1 11F      0.438300
@<TRIPOS>BOND
     1    1    2 ar  
     2    1    6 ar  
     3    1   28 1   
     4    2    3 ar  
     5    2   29 1   
     6    3    4 ar  
     7    3   30 1   
     8    4    5 ar  
     9    4   31 1   
    10    5    6 ar  
    11    5   32 1   
    12    6    7 1   
    13    7    8 ar  
    14    7   12 ar  
    15    8    9 ar  
    16    8   10 1   
    17    9   14 ar  
    18    9   33 1   
    19   10   11 1   
    20   11   34 1   
    21   11   35 1   
    22   11   36 1   
    23   12   13 ar  
    24   12   37 1   
    25   13   14 ar  
    26   13   38 1   
    27   14   15 1   
    28   15   16 1   
    29   15   17 1   
    30   15   39 1   
    31   16   40 1   
    32   16   41 1   
    33   16   42 1   
    34   17   18 3   
    35   18   19 1   
    36   19   20 ar  
    37   19   26 ar  
    38   20   21 1   
    39   20   22 ar  
    40   21   43 1   
    41   21   44 1   
    42   21   45 1   
    43   22   23 ar  
    44   23   24 1   
    45   23   25 ar  
    46   24   46 1   
    47   24   47 1   
    48   25   26 ar  
    49   26   27 1   
    50   27   48 1   
    51   27   49 1   
@<TRIPOS>SUBSTRUCTURE
     1 11F         1 TEMP              0 ****  ****    0 ROOT
