@<TRIPOS>MOLECULE
11F
   49    51     1     0     0
SMALL
bcc


@<TRIPOS>ATOM
      1 C1K         0.0770    0.3380    0.3940 ca        1 11F     -0.111500
      2 C1I         1.4680    0.3320    0.4800 ca        1 11F     -0.135000
      3 C1H         2.0940    0.0180    1.6860 ca        1 11F     -0.127000
      4 C1J         1.3240   -0.2950    2.8050 ca        1 11F     -0.135000
      5 C1L        -0.0670   -0.2940    2.7230 ca        1 11F     -0.111500
      6 C1V        -0.7050    0.0260    1.5170 cp        1 11F     -0.029000
      7 C1Z        -2.1620    0.0600    1.4180 cp        1 11F     -0.058000
      8 C1Y        -2.9900   -0.9310    1.9960 ca        1 11F      0.135100
      9 C1O        -4.3840   -0.8680    1.8690 ca        1 11F     -0.199000
     10 O1R        -2.3450   -1.9340    2.6960 os        1 11F     -0.324900
     11 C1A        -3.1290   -3.0720    3.0350 c3        1 11F      0.111700
     12 C1N        -2.7830    1.1090    0.7270 ca        1 11F     -0.096000
     13 C1M        -4.1680    1.1770    0.6030 ca        1 11F     -0.153000
     14 C1W        -4.9750    0.1870    1.1700 ca        1 11F     -0.043300
     15 C2A        -6.4710    0.2420    1.0290 c3        1 11F      0.069700
     16 C1C        -6.8740    0.0490   -0.4280 c3        1 11F     -0.085100
     17 C1G        -7.0020    1.4720    1.5550 c1        1 11F     -0.154100
     18 C1F        -7.4570    2.4860    2.0080 cg        1 11F     -0.081000
     19 C5         -7.9710    3.6680    2.5440 ca        1 11F     -0.343600
     20 C6         -9.1920    4.2300    2.0910 ca        1 11F      0.537600
     21 C1B        -9.9470    3.5190    1.0120 c3        1 11F     -0.157400
     22 N1         -9.6960    5.3760    2.5860 nb        1 11F     -0.792000
     23 C2         -8.9430    6.0150    3.5680 ca        1 11F      0.915900
     24 N1D        -9.3940    7.2610    4.0080 nv        1 11F     -0.932500
     25 N3         -7.7590    5.5480    4.1060 nb        1 11F     -0.832000
     26 C4         -7.2770    4.3710    3.5960 ca        1 11F      0.747200
     27 N1E        -6.1310    3.8350    4.1440 nv        1 11F     -0.954500
     28 H1K        -0.4120    0.5800   -0.5620 ha        1 11F      0.138500
     29 H1I         2.0710    0.5740   -0.4060 ha        1 11F      0.130000
     30 H1H         3.1920    0.0160    1.7530 ha        1 11F      0.130000
     31 H1J         1.8140   -0.5470    3.7570 ha        1 11F      0.130000
     32 H1L        -0.6740   -0.5550    3.6040 ha        1 11F      0.138500
     33 H1O        -5.0200   -1.6430    2.3200 ha        1 11F      0.139000
     34 H1A        -3.8850   -2.8070    3.8130 h1        1 11F      0.045033
     35 H1AA       -2.3760   -3.7900    3.4490 h1        1 11F      0.045033
     36 H1AB       -3.6280   -3.5000    2.1320 h1        1 11F      0.045033
     37 H1N        -2.1570    1.8960    0.2780 ha        1 11F      0.140000
     38 H1M        -4.6310    2.0130    0.0580 ha        1 11F      0.142000
     39 H2A        -6.9220   -0.6080    1.6280 hc        1 11F      0.065700
     40 H1C        -6.5000   -0.9360   -0.7960 hc        1 11F      0.043367
     41 H1CA       -6.4420    0.8570   -1.0650 hc        1 11F      0.043367
     42 H1CB       -7.9860    0.0720   -0.5240 hc        1 11F      0.043367
     43 H1B       -10.9930    3.8940    0.9070 hc        1 11F      0.061033
     44 H1BA       -9.4140    3.6700    0.0400 hc        1 11F      0.061033
     45 H1BB       -9.9740    2.4240    1.2380 hc        1 11F      0.061033
     46 HN1D      -10.3390    7.4920    3.8130 hn        1 11F      0.430300
     47 HN1A       -9.0130    7.6080    4.8560 hn        1 11F      0.430300
     48 HN1E       -5.5790    4.3800    4.7590 hn        1 11F      0.438300
     49 HN1B       -5.6960    3.0900    3.6560 hn        1 11F      0.438300
@<TRIPOS>BOND
     1    1    2 ar  
     2    1    6 ar  
     3    1   28 1   
     4    2    3 ar  
     5    2   29 1   
     6    3    4 ar  
     7    3   30 1   
     8    4    5 ar  
     9    4   31 1   
    10    5    6 ar  
    11    5   32 1   
    12    6    7 1   
    13    7    8 ar  
    14    7   12 ar  
    15    8    9 ar  
    16    8   10 1   
    17    9   14 ar  
    18    9   33 1   
    19   10   11 1   
    20   11   34 1   
    21   11   35 1   
    22   11   36 1   
    23   12   13 ar  
    24   12   37 1   
    25   13   14 ar  
    26   13   38 1   
    27   14   15 1   
    28   15   16 1   
    29   15   17 1   
    30   15   39 1   
    31   16   40 1   
    32   16   41 1   
    33   16   42 1   
    34   17   18 3   
    35   18   19 1   
    36   19   20 ar  
    37   19   26 ar  
    38   20   21 1   
    39   20   22 ar  
    40   21   43 1   
    41   21   44 1   
    42   21   45 1   
    43   22   23 ar  
    44   23   24 1   
    45   23   25 ar  
    46   24   46 1   
    47   24   47 1   
    48   25   26 ar  
    49   26   27 1   
    50   27   48 1   
    51   27   49 1   
@<TRIPOS>SUBSTRUCTURE
     1 11F         1 TEMP              0 ****  ****    0 ROOT
