@<TRIPOS>MOLECULE
11F
   51    53     1     0     0
SMALL
bcc


@<TRIPOS>ATOM
      1 C1K         0.3070   -0.3150    0.3760 ca        1 11F     -0.103000
      2 C1I         1.6900   -0.4040    0.5160 ca        1 11F     -0.129000
      3 C1H         2.2680   -0.4020    1.7870 ca        1 11F     -0.102000
      4 C1J         1.4560   -0.3190    2.9180 ca        1 11F     -0.129000
      5 C1L         0.0710   -0.2360    2.7830 ca        1 11F     -0.103000
      6 C1V        -0.5150   -0.2290    1.5100 cp        1 11F     -0.071000
      7 C1Z        -1.9630   -0.1230    1.3460 cp        1 11F     -0.002000
      8 C1Y        -2.8780   -0.8390    2.1610 ca        1 11F      0.146100
      9 C1O        -4.2600   -0.7210    1.9630 ca        1 11F     -0.190000
     10 O1R        -2.3340   -1.6100    3.1620 os        1 11F     -0.308900
     11 C1A        -3.1590   -2.6470    3.6920 c3        1 11F      0.106700
     12 C1N        -2.4870    0.7040    0.3450 ca        1 11F     -0.100000
     13 C1M        -3.8600    0.8250    0.1460 ca        1 11F     -0.157000
     14 C1W        -4.7490    0.1120    0.9520 ca        1 11F     -0.105300
     15 C2A        -6.2320    0.2160    0.7380 c3        1 11F      0.015700
     16 C1C        -6.6280   -0.2200   -0.6660 c3        1 11F     -0.094100
     17 C1G        -6.6770    1.5580    1.0240 c1        1 11F      0.187900
     18 C1F        -7.0480    2.6820    1.2720 cg        1 11F     -0.367000
     19 C5         -7.3730    3.9780    1.6310 ca        1 11F     -0.003600
     20 C6         -6.5920    4.7060    2.6220 ca        1 11F      0.538600
     21 C1B        -5.4270    4.0220    3.2500 c3        1 11F     -0.184400
     22 N1         -6.9040    5.9630    2.9700 nb        1 11F     -0.638000
     23 C2         -7.9990    6.5330    2.3450 ca        1 11F      0.725900
     24 N1D        -8.3160    7.9320    2.7550 n4        1 11F     -0.813300
     25 N3         -8.8010    5.9650    1.4110 nb        1 11F     -0.658000
     26 C4         -8.4670    4.6790    1.0670 ca        1 11F      0.458200
     27 N1E        -9.3130    4.0220    0.0520 n4        1 11F     -0.813300
     28 H1K        -0.1410   -0.3300   -0.6290 ha        1 11F      0.136000
     29 H1I         2.3280   -0.4800   -0.3780 ha        1 11F      0.144500
     30 H1H         3.3610   -0.4730    1.8950 ha        1 11F      0.147000
     31 H1J         1.9080   -0.3240    3.9210 ha        1 11F      0.144500
     32 H1L        -0.5660   -0.1880    3.6800 ha        1 11F      0.136000
     33 H1O        -4.9570   -1.2960    2.5900 ha        1 11F      0.143000
     34 H1A        -3.5990   -3.2670    2.8750 h1        1 11F      0.054700
     35 H1AA       -3.9600   -2.2090    4.3360 h1        1 11F      0.054700
     36 H1AB       -2.4440   -3.2510    4.3080 h1        1 11F      0.054700
     37 H1N        -1.7920    1.2640   -0.3030 ha        1 11F      0.156000
     38 H1M        -4.2350    1.4690   -0.6630 ha        1 11F      0.124000
     39 H2A        -6.7590   -0.4690    1.4780 hc        1 11F      0.115700
     40 H1C        -6.1380    0.4200   -1.4390 hc        1 11F      0.062367
     41 H1CA       -7.7350   -0.1770   -0.7950 hc        1 11F      0.062367
     42 H1CB       -6.2910   -1.2760   -0.8250 hc        1 11F      0.062367
     43 H1B        -4.8630    4.6870    3.9540 hc        1 11F      0.111033
     44 H1BA       -5.7900    3.1250    3.8180 hc        1 11F      0.111033
     45 H1BB       -4.7260    3.6720    2.4460 hc        1 11F      0.111033
     46 HN1D       -9.1410    8.2850    2.2490 hn        1 11F      0.497467
     47 HN1A       -7.5030    8.5340    2.5510 hn        1 11F      0.497467
     48 HN1E       -8.9390    3.0770   -0.1270 hn        1 11F      0.490133
     49 HN1B      -10.2840    3.9470    0.3920 hn        1 11F      0.490133
     50 H1D3       -8.5020    7.9500    3.7710 hn        1 11F      0.497467
     51 H1E3       -9.3070    4.5650   -0.8240 hn        1 11F      0.490133
@<TRIPOS>BOND
     1    1    2 ar  
     2    1    6 ar  
     3    1   28 1   
     4    2    3 ar  
     5    2   29 1   
     6    3    4 ar  
     7    3   30 1   
     8    4    5 ar  
     9    4   31 1   
    10    5    6 ar  
    11    5   32 1   
    12    6    7 1   
    13    7    8 ar  
    14    7   12 ar  
    15    8    9 ar  
    16    8   10 1   
    17    9   14 ar  
    18    9   33 1   
    19   10   11 1   
    20   11   34 1   
    21   11   35 1   
    22   11   36 1   
    23   12   13 ar  
    24   12   37 1   
    25   13   14 ar  
    26   13   38 1   
    27   14   15 1   
    28   15   16 1   
    29   15   17 1   
    30   15   39 1   
    31   16   40 1   
    32   16   41 1   
    33   16   42 1   
    34   17   18 3   
    35   18   19 1   
    36   19   20 ar  
    37   19   26 ar  
    38   20   21 1   
    39   20   22 ar  
    40   21   43 1   
    41   21   44 1   
    42   21   45 1   
    43   22   23 ar  
    44   23   24 1   
    45   23   25 ar  
    46   24   46 1   
    47   24   47 1   
    48   24   50 1   
    49   25   26 ar  
    50   26   27 1   
    51   27   48 1   
    52   27   49 1   
    53   27   51 1   
@<TRIPOS>SUBSTRUCTURE
     1 11F         1 TEMP              0 ****  ****    0 ROOT
