@<TRIPOS>MOLECULE
11F
   49    41     1     0     0
SMALL
bcc


@<TRIPOS>ATOM
      1 C1K         4.3550   -0.7080    0.6750 c1        1 11F     -0.098500
      2 C1I         5.7350   -0.6970    0.5430 c1        1 11F     -0.129750
      3 C1H         6.5060    0.0830    1.3910 c1        1 11F     -0.129750
      4 C1J         5.8980    0.8520    2.3700 c1        1 11F     -0.129750
      5 C1L         4.5180    0.8410    2.5030 c1        1 11F     -0.129750
      6 C1V         3.7460    0.0620    1.6550 c1        1 11F     -0.044000
      7 C1Z         2.3620    0.1380    1.7140 c1        1 11F     -0.044000
      8 C1Y         1.6440   -0.8250    2.4070 c1        1 11F      0.090000
      9 C1O         0.2580   -0.7830    2.4170 c1        1 11F     -0.199000
     10 O1R         2.3220   -1.8370    3.1080 os        1 11F     -0.208000
     11 C1A         1.9380   -3.1440    2.7390 c3        1 11F     -0.078000
     12 C1N         1.6940    1.1430    1.0320 c1        1 11F     -0.098500
     13 C1M         0.3080    1.1850    1.0430 c1        1 11F     -0.154000
     14 C1W        -0.4100    0.2230    1.7350 c1        1 11F     -0.035000
     15 C2A        -1.9200    0.2010    1.6500 c3        1 11F      0.050000
     16 C1C        -2.4810    1.4350    2.3220 c3        1 11F     -0.203000
     17 C1G        -2.3430    0.1830    0.1960 c1        1 11F     -0.183000
     18 C1F        -2.6770    0.1690   -0.9530 c1        1 11F     -0.084000
     19 C5         -3.1000    0.1500   -2.4080 c1        1 11F     -0.213000
     20 C6         -4.1620    0.9030   -2.8200 c2        1 11F      0.116000
     21 C1B        -4.9330    1.7340   -1.8190 c3        1 11F     -0.181000
     22 N1         -4.5000    0.9320   -4.1170 n1        1 11F     -0.267000
     23 C2         -3.7830    0.2100   -5.0250 c1        1 11F      0.200000
     24 N1D        -4.1270    0.2610   -6.4020 n3        1 11F     -0.332000
     25 N3         -2.7230   -0.5410   -4.6160 n1        1 11F     -0.310000
     26 C4         -2.3830   -0.5720   -3.3180 c1        1 11F      0.232000
     27 N1E        -1.3080   -1.3900   -2.8860 n3        1 11F     -0.359000
     28 H1K         3.8120   -1.2570    0.0780 ha        1 11F      0.142000
     29 H1I         6.1630   -1.2380   -0.1470 ha        1 11F      0.130500
     30 H1H         7.4780    0.0910    1.2970 ha        1 11F      0.130500
     31 H1J         6.4410    1.4010    2.9670 ha        1 11F      0.130500
     32 H1L         4.0900    1.3830    3.1930 ha        1 11F      0.130500
     33 H1O        -0.2470   -1.4610    2.9050 ha        1 11F      0.139000
     34 H1A         0.9970   -3.1430    2.4620 h1        1 11F      0.084333
     35 H1AA        2.4980   -3.4510    1.9930 h1        1 11F      0.084333
     36 H1AB        2.0530   -3.7480    3.5040 h1        1 11F      0.084333
     37 H1N         2.1990    1.8200    0.5450 ha        1 11F      0.142000
     38 H1M        -0.1620    1.8930    0.5630 ha        1 11F      0.141000
     39 H2A        -2.2600   -0.5960    2.0970 hc        1 11F      0.105000
     40 H1C        -3.4580    1.4350    2.2420 hc        1 11F      0.082667
     41 H1CA       -2.2310    1.4310    3.2700 hc        1 11F      0.082667
     42 H1CB       -2.1170    2.2360    1.8910 hc        1 11F      0.082667
     43 H1B        -4.5100    2.6140   -1.7310 hc        1 11F      0.100000
     44 H1BA       -5.8560    1.8450   -2.1290 hc        1 11F      0.100000
     45 H1BB       -4.9320    1.2830   -0.9500 hc        1 11F      0.100000
     46 HN1D       -4.7770    0.8350   -6.6900 hn        1 11F      0.226500
     47 HN1A       -3.6850   -0.2680   -7.0030 hn        1 11F      0.226500
     48 HN1E       -0.8790   -1.9330   -3.4820 hn        1 11F      0.237500
     49 HN1B       -1.0490   -1.3780   -2.0090 hn        1 11F      0.237500
@<TRIPOS>BOND
     1    1    6 1   
     2    1   28 1   
     3    2    3 1   
     4    2   29 1   
     5    3   30 1   
     6    4    5 1   
     7    4   31 1   
     8    5   32 1   
     9    7   12 1   
    10    8    9 1   
    11    8   10 1   
    12    9   33 1   
    13   10   11 1   
    14   11   34 1   
    15   11   35 1   
    16   11   36 1   
    17   12   37 1   
    18   13   14 1   
    19   13   38 1   
    20   14   15 1   
    21   15   16 1   
    22   15   17 1   
    23   15   39 1   
    24   16   40 1   
    25   16   41 1   
    26   16   42 1   
    27   17   18 1   
    28   19   20 1   
    29   19   26 1   
    30   20   21 1   
    31   20   22 1   
    32   21   43 1   
    33   21   44 1   
    34   21   45 1   
    35   23   24 1   
    36   23   25 1   
    37   24   46 1   
    38   24   47 1   
    39   26   27 1   
    40   27   48 1   
    41   27   49 1   
@<TRIPOS>SUBSTRUCTURE
     1 11F         1 TEMP              0 ****  ****    0 ROOT
