@<TRIPOS>MOLECULE
11F
   49    51     1     0     0
SMALL
bcc


@<TRIPOS>ATOM
      1 C1K        -0.0510    0.1030   -0.0510 ca        1 11F     -0.111000
      2 C1I         1.3360    0.0720   -0.1710 ca        1 11F     -0.135000
      3 C1H         2.1340   -0.1230    0.9560 ca        1 11F     -0.128000
      4 C1J         1.5380   -0.2920    2.2050 ca        1 11F     -0.135000
      5 C1L         0.1500   -0.2650    2.3310 ca        1 11F     -0.111000
      6 C1V        -0.6590   -0.0640    1.2040 cp        1 11F     -0.028000
      7 C1Z        -2.1140   -0.0060    1.3190 cp        1 11F     -0.058000
      8 C1Y        -2.8530   -0.9070    2.1200 ca        1 11F      0.134100
      9 C1O        -4.2500   -0.8250    2.1950 ca        1 11F     -0.199000
     10 O1R        -2.1180   -1.8450    2.8220 os        1 11F     -0.324900
     11 C1A        -2.8520   -2.9120    3.4110 c3        1 11F      0.112700
     12 C1N        -2.8230    0.9780    0.6170 ca        1 11F     -0.094000
     13 C1M        -4.2100    1.0650    0.6920 ca        1 11F     -0.149000
     14 C1W        -4.9310    0.1630    1.4780 ca        1 11F     -0.041300
     15 C2A        -6.4300    0.2340    1.5510 c3        1 11F      0.070700
     16 C1C        -7.0420   -0.1800    0.2180 c3        1 11F     -0.085100
     17 C1G        -6.8790    1.5460    1.9400 c1        1 11F     -0.155100
     18 C1F        -7.2580    2.6300    2.2840 cg        1 11F     -0.081000
     19 C5         -7.7080    3.8920    2.6800 ca        1 11F     -0.345600
     20 C6         -6.9530    4.7140    3.5570 ca        1 11F      0.540600
     21 C1B        -5.6390    4.2010    4.0570 c3        1 11F     -0.159400
     22 N1         -7.3670    5.9320    3.9520 nb        1 11F     -0.792000
     23 C2         -8.5890    6.3690    3.4470 ca        1 11F      0.918900
     24 N1D        -8.9850    7.6670    3.7710 nh        1 11F     -0.934500
     25 N3         -9.4240    5.6450    2.6170 nb        1 11F     -0.834000
     26 C4         -8.9680    4.4170    2.2130 ca        1 11F      0.748200
     27 N1E        -9.7280    3.6930    1.3190 nh        1 11F     -0.959500
     28 H1K        -0.6760    0.2510   -0.9440 ha        1 11F      0.138000
     29 H1I         1.8020    0.2000   -1.1590 ha        1 11F      0.129500
     30 H1H         3.2290   -0.1450    0.8590 ha        1 11F      0.129000
     31 H1J         2.1630   -0.4490    3.0960 ha        1 11F      0.129500
     32 H1L        -0.3190   -0.4120    3.3160 ha        1 11F      0.138000
     33 H1O        -4.8170   -1.5300    2.8190 ha        1 11F      0.137000
     34 H1A        -3.4890   -3.4280    2.6530 h1        1 11F      0.044367
     35 H1AA       -3.4770   -2.5350    4.2570 h1        1 11F      0.044367
     36 H1AB       -2.0520   -3.5980    3.7890 h1        1 11F      0.044367
     37 H1N        -2.2650    1.6980   -0.0020 ha        1 11F      0.140000
     38 H1M        -4.7440    1.8510    0.1370 ha        1 11F      0.143000
     39 H2A        -6.7880   -0.4970    2.3400 hc        1 11F      0.064700
     40 H1C        -8.1560   -0.1460    0.2800 hc        1 11F      0.042367
     41 H1CA       -6.7260   -1.2200   -0.0340 hc        1 11F      0.042367
     42 H1CB       -6.7060    0.5040   -0.5970 hc        1 11F      0.042367
     43 H1B        -5.2460    4.8030    4.9120 hc        1 11F      0.062700
     44 H1BA       -4.8960    4.2390    3.2210 hc        1 11F      0.062700
     45 H1BB       -5.7540    3.1380    4.3830 hc        1 11F      0.062700
     46 HN1D       -9.9340    7.9100    3.6110 hn        1 11F      0.431800
     47 HN1A       -8.5270    8.1040    4.5350 hn        1 11F      0.431800
     48 HN1E       -9.4860    2.7440    1.1750 hn        1 11F      0.437300
     49 HN1B      -10.6470    3.9890    1.0990 hn        1 11F      0.437300
@<TRIPOS>BOND
     1    1    2 ar  
     2    1    6 ar  
     3    1   28 1   
     4    2    3 ar  
     5    2   29 1   
     6    3    4 ar  
     7    3   30 1   
     8    4    5 ar  
     9    4   31 1   
    10    5    6 ar  
    11    5   32 1   
    12    6    7 1   
    13    7    8 ar  
    14    7   12 ar  
    15    8    9 ar  
    16    8   10 1   
    17    9   14 ar  
    18    9   33 1   
    19   10   11 1   
    20   11   34 1   
    21   11   35 1   
    22   11   36 1   
    23   12   13 ar  
    24   12   37 1   
    25   13   14 ar  
    26   13   38 1   
    27   14   15 1   
    28   15   16 1   
    29   15   17 1   
    30   15   39 1   
    31   16   40 1   
    32   16   41 1   
    33   16   42 1   
    34   17   18 3   
    35   18   19 1   
    36   19   20 ar  
    37   19   26 ar  
    38   20   21 1   
    39   20   22 ar  
    40   21   43 1   
    41   21   44 1   
    42   21   45 1   
    43   22   23 ar  
    44   23   24 1   
    45   23   25 ar  
    46   24   46 1   
    47   24   47 1   
    48   25   26 ar  
    49   26   27 1   
    50   27   48 1   
    51   27   49 1   
@<TRIPOS>SUBSTRUCTURE
     1 11F         1 TEMP              0 ****  ****    0 ROOT
