@<TRIPOS>MOLECULE
11G
   39    37     1     0     0
SMALL
bcc


@<TRIPOS>ATOM
      1 O18        -3.1340   -0.5170    1.0510 o         1 11G     -0.343000
      2 C8         -1.8990   -0.4420    1.0450 c1        1 11G      0.310000
      3 N7         -1.2120   -0.4530    2.2130 n2        1 11G     -0.259000
      4 C19        -1.9100   -0.6440    3.4550 c3        1 11G     -0.082000
      5 C2          0.1610    0.1330    2.2090 c1        1 11G     -0.066000
      6 C9         -1.1460   -0.6910   -0.2080 c3        1 11G      0.006000
      7 C16        -2.1340   -0.5920   -1.4960 c3        1 11G     -0.186000
      8 C17        -3.0920   -1.7450   -1.4860 c3        1 11G     -0.220000
      9 N10        -0.0330    0.1540   -0.3460 n3        1 11G     -0.243000
     10 C11         0.8560   -0.3980   -1.2950 c3        1 11G      0.034000
     11 C15         2.1440   -0.3160   -0.8520 c3        1 11G     -0.163500
     12 C14         2.7100    1.0660   -1.4530 c3        1 11G     -0.153000
     13 C13         1.6210    1.5490   -2.5390 c3        1 11G     -0.153000
     14 C12         0.7980    0.4760   -2.7190 c3        1 11G     -0.163500
     15 C3          0.7320    0.5260    0.9160 c1        1 11G      0.125000
     16 N4          1.8480    1.2560    0.8770 n1        1 11G     -0.183500
     17 C5          2.4800    1.6500    2.0820 c1        1 11G     -0.047500
     18 N6          1.9390    1.2770    3.3120 n1        1 11G     -0.183500
     19 C1          0.7740    0.5160    3.3630 c1        1 11G     -0.047500
     20 H1         -1.2760   -0.9550    4.1480 h1        1 11G      0.095000
     21 H2         -2.3130    0.2070    3.7390 h1        1 11G      0.095000
     22 H3         -2.6250   -1.3220    3.3330 h1        1 11G      0.095000
     23 H4         -0.8740   -1.5940   -0.2610 h1        1 11G      0.139000
     24 H5         -1.6050   -0.6170   -2.3100 hc        1 11G      0.095500
     25 H6         -2.6320    0.2420   -1.4580 hc        1 11G      0.095500
     26 H7         -3.8310   -1.5510   -2.0770 hc        1 11G      0.086000
     27 H8         -2.6300   -2.5610   -1.7940 hc        1 11G      0.086000
     28 H9         -3.4220   -1.8790   -0.5950 hc        1 11G      0.086000
     29 H10         0.6250   -1.3220   -1.4640 h1        1 11G      0.092000
     30 H11         2.6580   -1.0580   -1.1830 hc        1 11G      0.090000
     31 H12         2.1670   -0.2960    0.1090 hc        1 11G      0.090000
     32 H13         2.8010    1.7340   -0.7410 hc        1 11G      0.083750
     33 H14         3.5980    0.9100   -1.8980 hc        1 11G      0.083750
     34 H15         1.1040    2.3290   -2.1880 hc        1 11G      0.083750
     35 H16         2.0700    1.7890   -3.3990 hc        1 11G      0.083750
     36 H17         1.1230   -0.0800   -3.4700 hc        1 11G      0.090000
     37 H18        -0.1280    0.7820   -2.8950 hc        1 11G      0.090000
     38 H19         3.2860    2.1770    2.0510 ha        1 11G      0.180500
     39 H20         0.4000    0.2580    4.2220 ha        1 11G      0.180500
@<TRIPOS>BOND
     1    1    2 1   
     2    2    6 1   
     3    3    4 1   
     4    3    5 1   
     5    4   20 1   
     6    4   21 1   
     7    4   22 1   
     8    5   15 1   
     9    6    7 1   
    10    6    9 1   
    11    6   23 1   
    12    7    8 1   
    13    7   24 1   
    14    7   25 1   
    15    8   26 1   
    16    8   27 1   
    17    8   28 1   
    18    9   10 1   
    19    9   15 1   
    20   10   11 1   
    21   10   14 1   
    22   10   29 1   
    23   11   12 1   
    24   11   30 1   
    25   11   31 1   
    26   12   13 1   
    27   12   32 1   
    28   12   33 1   
    29   13   14 1   
    30   13   34 1   
    31   13   35 1   
    32   14   36 1   
    33   14   37 1   
    34   16   17 1   
    35   17   38 1   
    36   18   19 1   
    37   19   39 1   
@<TRIPOS>SUBSTRUCTURE
     1 11G         1 TEMP              0 ****  ****    0 ROOT
