@<TRIPOS>MOLECULE
11G
   39    41     1     0     0
SMALL
bcc


@<TRIPOS>ATOM
      1 O18         0.0210    0.1790    0.0130 o         1 11G     -0.618500
      2 C8          1.2620    0.1290    0.0450 c         1 11G      0.704500
      3 N7          1.9520    0.0380    1.2520 n         1 11G     -0.357000
      4 C19         1.2520    0.0160    2.5080 c3        1 11G      0.073300
      5 C2          3.3500   -0.0660    1.2400 ca        1 11G     -0.195000
      6 C9          2.0850    0.1950   -1.2570 c3        1 11G      0.139500
      7 C16         2.2810    1.6780   -1.6250 c3        1 11G     -0.106400
      8 C17         1.0010    2.2900   -2.1300 c3        1 11G     -0.102100
      9 N10         3.3070   -0.5950   -1.1630 nh        1 11G     -0.733300
     10 C11         4.0160   -0.8470   -2.4180 c3        1 11G      0.216500
     11 C15         3.0920   -1.0810   -3.6350 c3        1 11G     -0.082900
     12 C14         3.9240   -1.8930   -4.6150 c3        1 11G     -0.080900
     13 C13         4.8970   -2.7090   -3.7770 c3        1 11G     -0.080900
     14 C12         4.9260   -2.0990   -2.3810 c3        1 11G     -0.082900
     15 C3          4.0680   -0.3330    0.0010 ca        1 11G      0.632200
     16 N4          5.4320   -0.3910    0.0020 nb        1 11G     -0.724000
     17 C5          6.0540   -0.2320    1.1970 ca        1 11G      0.629900
     18 N6          5.4790   -0.0020    2.4010 nb        1 11G     -0.693000
     19 C1          4.1350    0.0830    2.4090 ca        1 11G      0.400200
     20 H1          1.5850   -0.8650    3.1190 h1        1 11G      0.055700
     21 H2          0.1470   -0.0610    2.3200 h1        1 11G      0.055700
     22 H3          1.4600    0.9590    3.0820 h1        1 11G      0.055700
     23 H4          1.4310   -0.2850   -2.0470 h1        1 11G      0.105700
     24 H5          2.6540    2.2420   -0.7310 hc        1 11G      0.054700
     25 H6          3.0690    1.7560   -2.4220 hc        1 11G      0.054700
     26 H7          0.1710    2.1390   -1.3940 hc        1 11G      0.046367
     27 H8          1.1400    3.3850   -2.2930 hc        1 11G      0.046367
     28 H9          0.6960    1.8240   -3.0990 hc        1 11G      0.046367
     29 H10         4.6700    0.0470   -2.6560 h1        1 11G      0.045700
     30 H11         2.7610   -0.1090   -4.0740 hc        1 11G      0.056200
     31 H12         2.1840   -1.6700   -3.3500 hc        1 11G      0.056200
     32 H13         4.4810   -1.2130   -5.3080 hc        1 11G      0.044950
     33 H14         3.2720   -2.5510   -5.2400 hc        1 11G      0.044950
     34 H15         5.9170   -2.6970   -4.2350 hc        1 11G      0.044950
     35 H16         4.5680   -3.7770   -3.7250 hc        1 11G      0.044950
     36 H17         5.9690   -1.8090   -2.1040 hc        1 11G      0.056200
     37 H18         4.5650   -2.8390   -1.6240 hc        1 11G      0.056200
     38 H19         7.1620   -0.2930    1.1730 h5        1 11G      0.056100
     39 H20         3.6710    0.2750    3.3940 h4        1 11G      0.033100
@<TRIPOS>BOND
     1    1    2 2   
     2    2    3 1   
     3    2    6 1   
     4    3    4 1   
     5    3    5 1   
     6    4   20 1   
     7    4   21 1   
     8    4   22 1   
     9    5   15 ar  
    10    5   19 ar  
    11    6    7 1   
    12    6    9 1   
    13    6   23 1   
    14    7    8 1   
    15    7   24 1   
    16    7   25 1   
    17    8   26 1   
    18    8   27 1   
    19    8   28 1   
    20    9   10 1   
    21    9   15 1   
    22   10   11 1   
    23   10   14 1   
    24   10   29 1   
    25   11   12 1   
    26   11   30 1   
    27   11   31 1   
    28   12   13 1   
    29   12   32 1   
    30   12   33 1   
    31   13   14 1   
    32   13   34 1   
    33   13   35 1   
    34   14   36 1   
    35   14   37 1   
    36   15   16 ar  
    37   16   17 ar  
    38   17   18 ar  
    39   17   38 1   
    40   18   19 ar  
    41   19   39 1   
@<TRIPOS>SUBSTRUCTURE
     1 11G         1 TEMP              0 ****  ****    0 ROOT
