@<TRIPOS>MOLECULE
11G
   39    41     1     0     0
SMALL
bcc


@<TRIPOS>ATOM
      1 O18        -1.8590   -2.5870    0.8980 o         1 11G     -0.618500
      2 C8         -1.4550   -1.4920    0.4730 c         1 11G      0.704500
      3 N7         -2.2550   -0.3520    0.5280 n         1 11G     -0.357000
      4 C19        -3.5890   -0.4070    1.0630 c3        1 11G      0.073300
      5 C2         -1.7390    0.8730    0.0850 ca        1 11G     -0.195000
      6 C9         -0.0530   -1.3630   -0.1570 c3        1 11G      0.139500
      7 C16        -0.1580   -1.7550   -1.6430 c3        1 11G     -0.106400
      8 C17        -0.3490   -3.2400   -1.8030 c3        1 11G     -0.102100
      9 N10         0.5380   -0.0560    0.1070 nh        1 11G     -0.733300
     10 C11         1.9660    0.0810   -0.1830 c3        1 11G      0.216500
     11 C15         2.8060   -1.1760    0.1420 c3        1 11G     -0.082900
     12 C14         4.2200   -0.6630    0.3640 c3        1 11G     -0.080900
     13 C13         4.0810    0.7580    0.8920 c3        1 11G     -0.080900
     14 C12         2.6580    1.2190    0.6060 c3        1 11G     -0.082900
     15 C3         -0.3180    1.0290   -0.1930 ca        1 11G      0.632200
     16 N4          0.1580    2.2190   -0.6620 nb        1 11G     -0.724000
     17 C5         -0.7380    3.2260   -0.8100 ca        1 11G      0.629900
     18 N6         -2.0680    3.1890   -0.5610 nb        1 11G     -0.693000
     19 C1         -2.5550    2.0120   -0.1210 ca        1 11G      0.400200
     20 H1         -3.7210    0.3820    1.8500 h1        1 11G      0.055700
     21 H2         -4.3400   -0.2370    0.2440 h1        1 11G      0.055700
     22 H3         -3.7680   -1.4180    1.5190 h1        1 11G      0.055700
     23 H4          0.5830   -2.1360    0.3720 h1        1 11G      0.105700
     24 H5         -1.0090   -1.2020   -2.1190 hc        1 11G      0.054700
     25 H6          0.7820   -1.4430   -2.1720 hc        1 11G      0.054700
     26 H7          0.5580   -3.7940   -1.4570 hc        1 11G      0.046367
     27 H8         -1.2250   -3.5960   -1.2060 hc        1 11G      0.046367
     28 H9         -0.5240   -3.4880   -2.8780 hc        1 11G      0.046367
     29 H10         2.0970    0.2990   -1.2880 h1        1 11G      0.045700
     30 H11         2.4470   -1.6750    1.0780 hc        1 11G      0.056200
     31 H12         2.7570   -1.9140   -0.6950 hc        1 11G      0.056200
     32 H13         4.7710   -1.3140    1.0850 hc        1 11G      0.044950
     33 H14         4.7900   -0.6670   -0.6000 hc        1 11G      0.044950
     34 H15         4.2830    0.7870    1.9920 hc        1 11G      0.044950
     35 H16         4.8230    1.4350    0.4000 hc        1 11G      0.044950
     36 H17         2.6670    2.1580   -0.0010 hc        1 11G      0.056200
     37 H18         2.1180    1.4350    1.5610 hc        1 11G      0.056200
     38 H19        -0.3230    4.1860   -1.1840 h5        1 11G      0.056100
     39 H20        -3.6420    1.9860    0.0760 h4        1 11G      0.033100
@<TRIPOS>BOND
     1    1    2 2   
     2    2    3 1   
     3    2    6 1   
     4    3    4 1   
     5    3    5 1   
     6    4   20 1   
     7    4   21 1   
     8    4   22 1   
     9    5   15 ar  
    10    5   19 ar  
    11    6    7 1   
    12    6    9 1   
    13    6   23 1   
    14    7    8 1   
    15    7   24 1   
    16    7   25 1   
    17    8   26 1   
    18    8   27 1   
    19    8   28 1   
    20    9   10 1   
    21    9   15 1   
    22   10   11 1   
    23   10   14 1   
    24   10   29 1   
    25   11   12 1   
    26   11   30 1   
    27   11   31 1   
    28   12   13 1   
    29   12   32 1   
    30   12   33 1   
    31   13   14 1   
    32   13   34 1   
    33   13   35 1   
    34   14   36 1   
    35   14   37 1   
    36   15   16 ar  
    37   16   17 ar  
    38   17   18 ar  
    39   17   38 1   
    40   18   19 ar  
    41   19   39 1   
@<TRIPOS>SUBSTRUCTURE
     1 11G         1 TEMP              0 ****  ****    0 ROOT
