@<TRIPOS>MOLECULE
11G
   39    41     1     0     0
SMALL
bcc


@<TRIPOS>ATOM
      1 O18         0.0220    0.1880    0.0130 o         1 11G     -0.618500
      2 C8          1.2630    0.1350    0.0450 c         1 11G      0.704500
      3 N7          1.9530    0.0430    1.2520 n         1 11G     -0.357000
      4 C19         1.2530    0.0240    2.5080 c3        1 11G      0.073300
      5 C2          3.3510   -0.0650    1.2390 ca        1 11G     -0.195000
      6 C9          2.0860    0.1980   -1.2570 c3        1 11G      0.139500
      7 C16         2.2870    1.6800   -1.6270 c3        1 11G     -0.106400
      8 C17         1.0070    2.2950   -2.1310 c3        1 11G     -0.102100
      9 N10         3.3060   -0.5960   -1.1630 nh        1 11G     -0.733300
     10 C11         4.0140   -0.8510   -2.4170 c3        1 11G      0.216500
     11 C15         3.0900   -1.0830   -3.6350 c3        1 11G     -0.082900
     12 C14         3.9190   -1.8970   -4.6140 c3        1 11G     -0.080900
     13 C13         4.8900   -2.7150   -3.7750 c3        1 11G     -0.080900
     14 C12         4.9200   -2.1050   -2.3800 c3        1 11G     -0.082900
     15 C3          4.0680   -0.3350    0.0010 ca        1 11G      0.632200
     16 N4          5.4310   -0.3960    0.0020 nb        1 11G     -0.724000
     17 C5          6.0550   -0.2370    1.1960 ca        1 11G      0.629900
     18 N6          5.4810   -0.0050    2.4010 nb        1 11G     -0.693000
     19 C1          4.1360    0.0840    2.4080 ca        1 11G      0.400200
     20 H1          0.1480   -0.0510    2.3200 h1        1 11G      0.055700
     21 H2          1.4640    0.9670    3.0820 h1        1 11G      0.055700
     22 H3          1.5850   -0.8580    3.1200 h1        1 11G      0.055700
     23 H4          1.4310   -0.2810   -2.0470 h1        1 11G      0.105700
     24 H5          2.6600    2.2440   -0.7330 hc        1 11G      0.054700
     25 H6          3.0740    1.7560   -2.4240 hc        1 11G      0.054700
     26 H7          1.1490    3.3900   -2.2950 hc        1 11G      0.046367
     27 H8          0.1780    2.1470   -1.3950 hc        1 11G      0.046367
     28 H9          0.7020    1.8290   -3.0990 hc        1 11G      0.046367
     29 H10         4.6710    0.0410   -2.6560 h1        1 11G      0.045700
     30 H11         2.7610   -0.1110   -4.0740 hc        1 11G      0.056200
     31 H12         2.1790   -1.6690   -3.3490 hc        1 11G      0.056200
     32 H13         4.4770   -1.2200   -5.3080 hc        1 11G      0.044950
     33 H14         3.2650   -2.5550   -5.2390 hc        1 11G      0.044950
     34 H15         4.5590   -3.7830   -3.7230 hc        1 11G      0.044950
     35 H16         5.9100   -2.7060   -4.2340 hc        1 11G      0.044950
     36 H17         5.9650   -1.8170   -2.1030 hc        1 11G      0.056200
     37 H18         4.5580   -2.8440   -1.6230 hc        1 11G      0.056200
     38 H19         7.1630   -0.3020    1.1720 h5        1 11G      0.056100
     39 H20         3.6740    0.2780    3.3930 h4        1 11G      0.033100
@<TRIPOS>BOND
     1    1    2 2   
     2    2    3 1   
     3    2    6 1   
     4    3    4 1   
     5    3    5 1   
     6    4   20 1   
     7    4   21 1   
     8    4   22 1   
     9    5   15 ar  
    10    5   19 ar  
    11    6    7 1   
    12    6    9 1   
    13    6   23 1   
    14    7    8 1   
    15    7   24 1   
    16    7   25 1   
    17    8   26 1   
    18    8   27 1   
    19    8   28 1   
    20    9   10 1   
    21    9   15 1   
    22   10   11 1   
    23   10   14 1   
    24   10   29 1   
    25   11   12 1   
    26   11   30 1   
    27   11   31 1   
    28   12   13 1   
    29   12   32 1   
    30   12   33 1   
    31   13   14 1   
    32   13   34 1   
    33   13   35 1   
    34   14   36 1   
    35   14   37 1   
    36   15   16 ar  
    37   16   17 ar  
    38   17   18 ar  
    39   17   38 1   
    40   18   19 ar  
    41   19   39 1   
@<TRIPOS>SUBSTRUCTURE
     1 11G         1 TEMP              0 ****  ****    0 ROOT
