@<TRIPOS>MOLECULE
11G
   39    41     1     0     0
SMALL
bcc


@<TRIPOS>ATOM
      1 O18         0.0220    0.1920    0.0080 o         1 11G     -0.618500
      2 C8          1.2630    0.1390    0.0410 c         1 11G      0.704500
      3 N7          1.9530    0.0470    1.2490 n         1 11G     -0.357000
      4 C19         1.2520    0.0290    2.5050 c3        1 11G      0.073300
      5 C2          3.3500   -0.0610    1.2370 ca        1 11G     -0.195000
      6 C9          2.0880    0.2010   -1.2610 c3        1 11G      0.139500
      7 C16         2.2880    1.6820   -1.6310 c3        1 11G     -0.106400
      8 C17         1.0090    2.2970   -2.1360 c3        1 11G     -0.102100
      9 N10         3.3070   -0.5930   -1.1640 nh        1 11G     -0.733300
     10 C11         4.0170   -0.8490   -2.4180 c3        1 11G      0.216500
     11 C15         3.0930   -1.0810   -3.6360 c3        1 11G     -0.082900
     12 C14         3.9230   -1.8960   -4.6150 c3        1 11G     -0.080900
     13 C13         4.8940   -2.7140   -3.7750 c3        1 11G     -0.080900
     14 C12         4.9230   -2.1030   -2.3790 c3        1 11G     -0.082900
     15 C3          4.0690   -0.3310   -0.0010 ca        1 11G      0.632200
     16 N4          5.4320   -0.3930    0.0020 nb        1 11G     -0.724000
     17 C5          6.0540   -0.2330    1.1960 ca        1 11G      0.629900
     18 N6          5.4790   -0.0000    2.4000 nb        1 11G     -0.693000
     19 C1          4.1350    0.0880    2.4070 ca        1 11G      0.400200
     20 H1          1.4610    0.9730    3.0770 h1        1 11G      0.055700
     21 H2          0.1470   -0.0460    2.3160 h1        1 11G      0.055700
     22 H3          1.5820   -0.8520    3.1170 h1        1 11G      0.055700
     23 H4          1.4330   -0.2790   -2.0500 h1        1 11G      0.105700
     24 H5          2.6610    2.2470   -0.7370 hc        1 11G      0.054700
     25 H6          3.0760    1.7580   -2.4270 hc        1 11G      0.054700
     26 H7          1.1520    3.3920   -2.3010 hc        1 11G      0.046367
     27 H8          0.1790    2.1500   -1.4010 hc        1 11G      0.046367
     28 H9          0.7040    1.8310   -3.1050 hc        1 11G      0.046367
     29 H10         4.6730    0.0430   -2.6570 h1        1 11G      0.045700
     30 H11         2.7650   -0.1090   -4.0770 hc        1 11G      0.056200
     31 H12         2.1830   -1.6670   -3.3520 hc        1 11G      0.056200
     32 H13         3.2700   -2.5540   -5.2400 hc        1 11G      0.044950
     33 H14         4.4820   -1.2180   -5.3080 hc        1 11G      0.044950
     34 H15         5.9140   -2.7050   -4.2320 hc        1 11G      0.044950
     35 H16         4.5620   -3.7810   -3.7230 hc        1 11G      0.044950
     36 H17         4.5590   -2.8410   -1.6230 hc        1 11G      0.056200
     37 H18         5.9660   -1.8150   -2.1020 hc        1 11G      0.056200
     38 H19         7.1620   -0.2980    1.1730 h5        1 11G      0.056100
     39 H20         3.6710    0.2830    3.3910 h4        1 11G      0.033100
@<TRIPOS>BOND
     1    1    2 2   
     2    2    3 1   
     3    2    6 1   
     4    3    4 1   
     5    3    5 1   
     6    4   20 1   
     7    4   21 1   
     8    4   22 1   
     9    5   15 ar  
    10    5   19 ar  
    11    6    7 1   
    12    6    9 1   
    13    6   23 1   
    14    7    8 1   
    15    7   24 1   
    16    7   25 1   
    17    8   26 1   
    18    8   27 1   
    19    8   28 1   
    20    9   10 1   
    21    9   15 1   
    22   10   11 1   
    23   10   14 1   
    24   10   29 1   
    25   11   12 1   
    26   11   30 1   
    27   11   31 1   
    28   12   13 1   
    29   12   32 1   
    30   12   33 1   
    31   13   14 1   
    32   13   34 1   
    33   13   35 1   
    34   14   36 1   
    35   14   37 1   
    36   15   16 ar  
    37   16   17 ar  
    38   17   18 ar  
    39   17   38 1   
    40   18   19 ar  
    41   19   39 1   
@<TRIPOS>SUBSTRUCTURE
     1 11G         1 TEMP              0 ****  ****    0 ROOT
