@<TRIPOS>MOLECULE
11H
   30    32     1     0     0
SMALL
bcc


@<TRIPOS>ATOM
      1 O01         0.1000   -0.2770   -0.3160 o         1 11H     -0.744867
      2 S02         1.5080   -0.2020   -0.1730 s6        1 11H      1.457100
      3 O03         1.9410   -0.0650    1.1650 o         1 11H     -0.744867
      4 O04         2.1940   -1.2080   -0.8900 o         1 11H     -0.744867
      5 C05         1.9560    1.3260   -0.9690 ca        1 11H     -0.251500
      6 C06         1.0940    1.9000   -1.9000 ca        1 11H     -0.043000
      7 C07         1.4270    3.0890   -2.5500 ca        1 11H     -0.130000
      8 C08         2.6390    3.7300   -2.2730 ca        1 11H     -0.114600
      9 C09         2.9640    4.9880   -2.9800 c         1 11H      0.588300
     10 O10         2.2040    5.4490   -3.8490 o         1 11H     -0.558100
     11 C11         4.2200    5.6670   -2.6100 ca        1 11H     -0.166600
     12 C12         5.0960    5.1030   -1.6660 ca        1 11H     -0.114600
     13 C13         6.2750    5.7780   -1.3380 ca        1 11H     -0.130000
     14 C14         6.5810    6.9980   -1.9450 ca        1 11H     -0.043000
     15 C15         5.7260    7.5640   -2.8870 ca        1 11H     -0.251500
     16 C16         4.5460    6.8920   -3.2080 ca        1 11H      0.001000
     17 S17         6.1570    9.1110   -3.6560 s6        1 11H      1.457100
     18 O18         7.0950    9.6970   -2.7710 o         1 11H     -0.744867
     19 O19         6.7160    8.7590   -4.9050 o         1 11H     -0.744867
     20 O20         4.9430    9.8250   -3.7600 o         1 11H     -0.744867
     21 C21         4.8010    3.8110   -1.0060 c         1 11H      0.588300
     22 O22         5.6080    3.3000   -0.2120 o         1 11H     -0.558100
     23 C23         3.5150    3.1650   -1.3300 ca        1 11H     -0.166600
     24 C24         3.1610    1.9700   -0.6880 ca        1 11H      0.001000
     25 H1          0.1300    1.4050   -2.1120 ha        1 11H      0.151000
     26 H2          0.7430    3.5370   -3.2880 ha        1 11H      0.138000
     27 H3          6.9570    5.3340   -0.5960 ha        1 11H      0.138000
     28 H4          7.5070    7.5340   -1.6730 ha        1 11H      0.151000
     29 H5          3.8480    7.3370   -3.9400 ha        1 11H      0.162000
     30 H6          3.8490    1.5380    0.0610 ha        1 11H      0.162000
@<TRIPOS>BOND
     1    1    2 1   
     2    2    3 1   
     3    2    4 1   
     4    2    5 1   
     5    5    6 ar  
     6    5   24 ar  
     7    6    7 ar  
     8    6   25 1   
     9    7    8 ar  
    10    7   26 1   
    11    8    9 1   
    12    8   23 ar  
    13    9   10 2   
    14    9   11 1   
    15   11   12 ar  
    16   11   16 ar  
    17   12   13 ar  
    18   12   21 1   
    19   13   14 ar  
    20   13   27 1   
    21   14   15 ar  
    22   14   28 1   
    23   15   16 ar  
    24   15   17 1   
    25   16   29 1   
    26   17   18 1   
    27   17   19 1   
    28   17   20 1   
    29   21   22 2   
    30   21   23 1   
    31   23   24 ar  
    32   24   30 1   
@<TRIPOS>SUBSTRUCTURE
     1 11H         1 TEMP              0 ****  ****    0 ROOT
