@<TRIPOS>MOLECULE
11H
   30    32     1     0     0
SMALL
bcc


@<TRIPOS>ATOM
      1 O01         6.1320    1.0080   -0.5250 o         1 11H     -0.744867
      2 S02         5.4860   -0.1470   -0.0180 s6        1 11H      1.457100
      3 O03         5.5820   -1.2740   -0.8640 o         1 11H     -0.744867
      4 O04         5.8130   -0.4200    1.3290 o         1 11H     -0.744867
      5 C05         3.7580    0.2810   -0.0010 ca        1 11H     -0.251500
      6 C06         3.3770    1.6200   -0.0080 ca        1 11H     -0.043000
      7 C07         2.0290    1.9830    0.0210 ca        1 11H     -0.130000
      8 C08         1.0340    1.0020    0.0550 ca        1 11H     -0.114600
      9 C09        -0.3860    1.4200    0.0870 c         1 11H      0.588300
     10 O10        -0.6980    2.6210    0.1370 o         1 11H     -0.558100
     11 C11        -1.4050    0.3540    0.0550 ca        1 11H     -0.166600
     12 C12        -1.0340   -1.0020    0.0550 ca        1 11H     -0.114600
     13 C13        -2.0290   -1.9830    0.0210 ca        1 11H     -0.130000
     14 C14        -3.3770   -1.6200   -0.0090 ca        1 11H     -0.043000
     15 C15        -3.7580   -0.2810   -0.0020 ca        1 11H     -0.251500
     16 C16        -2.7630    0.6970    0.0250 ca        1 11H      0.001000
     17 S17        -5.4860    0.1470   -0.0210 s6        1 11H      1.457100
     18 O18        -6.1310   -1.0080   -0.5270 o         1 11H     -0.744867
     19 O19        -5.8140    0.4210    1.3260 o         1 11H     -0.744867
     20 O20        -5.5810    1.2740   -0.8670 o         1 11H     -0.744867
     21 C21         0.3860   -1.4190    0.0880 c         1 11H      0.588300
     22 O22         0.6980   -2.6210    0.1380 o         1 11H     -0.558100
     23 C23         1.4050   -0.3540    0.0560 ca        1 11H     -0.166600
     24 C24         2.7630   -0.6970    0.0270 ca        1 11H      0.001000
     25 H1          4.1590    2.3980   -0.0490 ha        1 11H      0.151000
     26 H2          1.7340    3.0440    0.0180 ha        1 11H      0.138000
     27 H3         -1.7340   -3.0440    0.0180 ha        1 11H      0.138000
     28 H4         -4.1590   -2.3980   -0.0500 ha        1 11H      0.151000
     29 H5         -3.0490    1.7650    0.0130 ha        1 11H      0.162000
     30 H6          3.0490   -1.7650    0.0150 ha        1 11H      0.162000
@<TRIPOS>BOND
     1    1    2 1   
     2    2    3 1   
     3    2    4 1   
     4    2    5 1   
     5    5    6 ar  
     6    5   24 ar  
     7    6    7 ar  
     8    6   25 1   
     9    7    8 ar  
    10    7   26 1   
    11    8    9 1   
    12    8   23 ar  
    13    9   10 2   
    14    9   11 1   
    15   11   12 ar  
    16   11   16 ar  
    17   12   13 ar  
    18   12   21 1   
    19   13   14 ar  
    20   13   27 1   
    21   14   15 ar  
    22   14   28 1   
    23   15   16 ar  
    24   15   17 1   
    25   16   29 1   
    26   17   18 1   
    27   17   19 1   
    28   17   20 1   
    29   21   22 2   
    30   21   23 1   
    31   23   24 ar  
    32   24   30 1   
@<TRIPOS>SUBSTRUCTURE
     1 11H         1 TEMP              0 ****  ****    0 ROOT
