@<TRIPOS>MOLECULE
11H
   30    22     1     0     0
SMALL
bcc


@<TRIPOS>ATOM
      1 O01        -3.2790    3.3550   -3.0360 o         1 11H     -1.069500
      2 S02        -3.6660    2.2530   -2.0780 ss        1 11H      2.870000
      3 O03        -5.1510    2.1540   -2.3280 o         1 11H     -1.069500
      4 O04        -3.3750    2.6420   -0.6490 os        1 11H     -1.064000
      5 C05        -2.8440    0.7350   -2.4790 c1        1 11H     -0.696000
      6 C06        -3.3770   -0.3670   -1.8170 c2        1 11H     -0.043000
      7 C07        -2.5880   -1.0970   -0.9370 c1        1 11H     -0.130000
      8 C08        -1.2540   -0.7250   -0.7170 c1        1 11H     -0.094000
      9 C09        -0.4110   -1.4770    0.3190 c1        1 11H      0.308000
     10 O10        -0.8750   -2.4410    0.8950 o         1 11H     -0.319000
     11 C11         1.0360   -1.0450    0.5900 c1        1 11H     -0.146000
     12 C12         1.5780    0.0210   -0.1000 c1        1 11H     -0.094000
     13 C13         2.8790    0.4550    0.1920 c1        1 11H     -0.130000
     14 C14         3.6220   -0.1870    1.1750 c1        1 11H     -0.043000
     15 C15         3.0750   -1.2620    1.8710 c1        1 11H     -0.696000
     16 C16         1.7860   -1.6930    1.5820 c2        1 11H      0.001000
     17 S17         3.0610   -0.9330    3.6140 ss        1 11H      2.870000
     18 O18         4.3600   -0.3090    4.0640 o         1 11H     -1.069500
     19 O19         1.8820   -0.0600    3.9710 os        1 11H     -1.064000
     20 O20         3.0570   -2.2140    4.4130 o         1 11H     -1.069500
     21 C21         0.7340    0.7710   -1.1360 c1        1 11H      0.308000
     22 O22         1.2340    1.6590   -1.7980 o         1 11H     -0.319000
     23 C23        -0.7250    0.3670   -1.3740 c2        1 11H     -0.146000
     24 C24        -1.5220    1.1040   -2.2620 c2        1 11H      0.001000
     25 H1         -4.3190   -0.5970   -1.9330 ha        1 11H      0.151000
     26 H2         -2.9620   -1.8700   -0.4720 ha        1 11H      0.138000
     27 H3          3.2630    1.2090   -0.2960 ha        1 11H      0.138000
     28 H4          4.5270    0.1150    1.3780 ha        1 11H      0.151000
     29 H5          1.4030   -2.4460    2.0700 ha        1 11H      0.162000
     30 H6         -1.1510    1.8810   -2.7210 ha        1 11H      0.162000
@<TRIPOS>BOND
     1    1    2 1   
     2    2    3 1   
     3    5    6 1   
     4    5   24 1   
     5    6    7 1   
     6    6   25 1   
     7    7   26 1   
     8    8   23 1   
     9    9   10 1   
    10   11   16 1   
    11   12   13 1   
    12   13   27 1   
    13   14   15 1   
    14   14   28 1   
    15   15   16 1   
    16   16   29 1   
    17   17   18 1   
    18   17   20 1   
    19   21   22 1   
    20   21   23 1   
    21   23   24 1   
    22   24   30 1   
@<TRIPOS>SUBSTRUCTURE
     1 11H         1 TEMP              0 ****  ****    0 ROOT
