@<TRIPOS>MOLECULE
11H
   30    32     1     0     0
SMALL
bcc


@<TRIPOS>ATOM
      1 O01         0.0990   -0.2750   -0.3140 o         1 11H     -0.744867
      2 S02         1.5070   -0.2000   -0.1700 s6        1 11H      1.457100
      3 O03         1.9390   -0.0630    1.1670 o         1 11H     -0.744867
      4 O04         2.1930   -1.2060   -0.8870 o         1 11H     -0.744867
      5 C05         1.9550    1.3270   -0.9670 ca        1 11H     -0.251500
      6 C06         1.0930    1.9010   -1.8970 ca        1 11H     -0.043000
      7 C07         1.4260    3.0900   -2.5480 ca        1 11H     -0.130000
      8 C08         2.6380    3.7300   -2.2720 ca        1 11H     -0.114600
      9 C09         2.9630    4.9890   -2.9790 c         1 11H      0.588300
     10 O10         2.2030    5.4500   -3.8470 o         1 11H     -0.558100
     11 C11         4.2200    5.6670   -2.6100 ca        1 11H     -0.166600
     12 C12         5.0960    5.1030   -1.6660 ca        1 11H     -0.114600
     13 C13         6.2760    5.7770   -1.3400 ca        1 11H     -0.130000
     14 C14         6.5830    6.9960   -1.9480 ca        1 11H     -0.043000
     15 C15         5.7270    7.5620   -2.8890 ca        1 11H     -0.251500
     16 C16         4.5470    6.8910   -3.2090 ca        1 11H      0.001000
     17 S17         6.1590    9.1080   -3.6600 s6        1 11H      1.457100
     18 O18         7.0990    9.6940   -2.7760 o         1 11H     -0.744867
     19 O19         6.7150    8.7560   -4.9100 o         1 11H     -0.744867
     20 O20         4.9460    9.8250   -3.7610 o         1 11H     -0.744867
     21 C21         4.8010    3.8120   -1.0060 c         1 11H      0.588300
     22 O22         5.6080    3.3000   -0.2120 o         1 11H     -0.558100
     23 C23         3.5150    3.1660   -1.3290 ca        1 11H     -0.166600
     24 C24         3.1600    1.9710   -0.6870 ca        1 11H      0.001000
     25 H1          0.1290    1.4060   -2.1090 ha        1 11H      0.151000
     26 H2          0.7420    3.5380   -3.2850 ha        1 11H      0.138000
     27 H3          6.9580    5.3330   -0.5990 ha        1 11H      0.138000
     28 H4          7.5090    7.5320   -1.6770 ha        1 11H      0.151000
     29 H5          3.8480    7.3360   -3.9410 ha        1 11H      0.162000
     30 H6          3.8480    1.5380    0.0620 ha        1 11H      0.162000
@<TRIPOS>BOND
     1    1    2 1   
     2    2    3 1   
     3    2    4 1   
     4    2    5 1   
     5    5    6 ar  
     6    5   24 ar  
     7    6    7 ar  
     8    6   25 1   
     9    7    8 ar  
    10    7   26 1   
    11    8    9 1   
    12    8   23 ar  
    13    9   10 2   
    14    9   11 1   
    15   11   12 ar  
    16   11   16 ar  
    17   12   13 ar  
    18   12   21 1   
    19   13   14 ar  
    20   13   27 1   
    21   14   15 ar  
    22   14   28 1   
    23   15   16 ar  
    24   15   17 1   
    25   16   29 1   
    26   17   18 1   
    27   17   19 1   
    28   17   20 1   
    29   21   22 2   
    30   21   23 1   
    31   23   24 ar  
    32   24   30 1   
@<TRIPOS>SUBSTRUCTURE
     1 11H         1 TEMP              0 ****  ****    0 ROOT
