@<TRIPOS>MOLECULE
11J
   36    38     1     0     0
SMALL
bcc


@<TRIPOS>ATOM
      1 I          -1.3700   -1.3540   -3.2220 i         1 11J     -0.121900
      2 N           0.2760   -0.5140   -0.0740 n         1 11J     -0.461100
      3 O          -1.4840    1.0010   -0.0220 o         1 11J     -0.564100
      4 C1         -2.2710   -1.9310   -1.5050 ca        1 11J      0.045900
      5 C2         -2.0140   -1.3170   -0.2770 ca        1 11J     -0.111600
      6 C3         -2.6800   -1.7440    0.8780 ca        1 11J     -0.097000
      7 C4         -3.6000   -2.7880    0.8080 ca        1 11J     -0.115000
      8 C5         -3.8570   -3.4050   -0.4160 ca        1 11J     -0.117000
      9 C6         -3.1970   -2.9760   -1.5670 ca        1 11J     -0.103000
     10 C7         -1.0650   -0.1620   -0.1350 c         1 11J      0.676700
     11 C8          1.3800    0.3510    0.0180 ca        1 11J      0.067600
     12 C9          2.6750   -0.2100   -0.0890 ca        1 11J     -0.172000
     13 C10         3.8120    0.5960    0.0100 cp        1 11J     -0.012000
     14 C11         3.6710    1.9750    0.2160 ca        1 11J     -0.145000
     15 C12         2.4000    2.5300    0.3240 ca        1 11J     -0.106000
     16 C13         1.2570    1.7400    0.2280 ca        1 11J     -0.152000
     17 C14         5.1430   -0.0010   -0.1040 cp        1 11J     -0.039000
     18 C15         6.1460    0.6420   -0.8440 ca        1 11J     -0.118000
     19 C16         7.4130    0.0740   -0.9530 ca        1 11J     -0.131000
     20 C17         7.6950   -1.1380   -0.3220 ca        1 11J     -0.127000
     21 C18         6.7040   -1.7820    0.4180 ca        1 11J     -0.131000
     22 C19         5.4340   -1.2190    0.5260 ca        1 11J     -0.118000
     23 HN          0.4970   -1.4750   -0.2240 hn        1 11J      0.321500
     24 H3         -2.4810   -1.2410    1.8380 ha        1 11J      0.151000
     25 H4         -4.1230   -3.1200    1.7170 ha        1 11J      0.143000
     26 H5         -4.5830   -4.2300   -0.4770 ha        1 11J      0.142000
     27 H6         -3.4140   -3.4670   -2.5290 ha        1 11J      0.150000
     28 H9          2.8040   -1.2900   -0.2610 ha        1 11J      0.134000
     29 H11         4.5640    2.6110    0.2990 ha        1 11J      0.137000
     30 H12         2.2890    3.6130    0.4880 ha        1 11J      0.136000
     31 H13         0.2660    2.2140    0.3140 ha        1 11J      0.173000
     32 H15         5.9250    1.5960   -1.3460 ha        1 11J      0.135000
     33 H16         8.1920    0.5830   -1.5390 ha        1 11J      0.131500
     34 H17         8.6970   -1.5840   -0.4080 ha        1 11J      0.132000
     35 H18         6.9240   -2.7360    0.9190 ha        1 11J      0.131500
     36 H19         4.6560   -1.7260    1.1170 ha        1 11J      0.135000
@<TRIPOS>BOND
     1    1    4 1   
     2    2   10 1   
     3    2   11 1   
     4    2   23 1   
     5    3   10 2   
     6    4    5 ar  
     7    4    9 ar  
     8    5    6 ar  
     9    5   10 1   
    10    6    7 ar  
    11    6   24 1   
    12    7    8 ar  
    13    7   25 1   
    14    8    9 ar  
    15    8   26 1   
    16    9   27 1   
    17   11   12 ar  
    18   11   16 ar  
    19   12   13 ar  
    20   12   28 1   
    21   13   14 ar  
    22   13   17 1   
    23   14   15 ar  
    24   14   29 1   
    25   15   16 ar  
    26   15   30 1   
    27   16   31 1   
    28   17   18 ar  
    29   17   22 ar  
    30   18   19 ar  
    31   18   32 1   
    32   19   20 ar  
    33   19   33 1   
    34   20   21 ar  
    35   20   34 1   
    36   21   22 ar  
    37   21   35 1   
    38   22   36 1   
@<TRIPOS>SUBSTRUCTURE
     1 11J         1 TEMP              0 ****  ****    0 ROOT
