@<TRIPOS>MOLECULE
11J
   36    30     1     0     0
SMALL
bcc


@<TRIPOS>ATOM
      1 I          -1.2660    2.7920   -4.4000 i         1 11J      0.163000
      2 N           0.1690    0.8140   -1.2130 n         1 11J     -0.316000
      3 O          -1.5720   -0.0300   -2.4240 o         1 11J     -0.325000
      4 C1          0.1530    1.2630   -4.6980 c2        1 11J     -0.240000
      5 C2          0.3900    0.3330   -3.6980 c2        1 11J     -0.091000
      6 C3          1.3250   -0.6700   -3.8930 c1        1 11J     -0.097000
      7 C4          2.0250   -0.7430   -5.0870 c1        1 11J     -0.123625
      8 C5          1.7880    0.1870   -6.0860 c1        1 11J     -0.123625
      9 C6          0.8520    1.1900   -5.8910 c1        1 11J     -0.103000
     10 C7         -0.4260    0.3690   -2.4230 c2        1 11J      0.350000
     11 C8         -0.5780    0.7930   -0.0030 c2        1 11J      0.075000
     12 C9         -0.0870    0.1150    1.1030 c2        1 11J     -0.172000
     13 C10        -0.7700    0.1680    2.3080 c1        1 11J     -0.012000
     14 C11        -1.9430    0.8990    2.4090 c1        1 11J     -0.123625
     15 C12        -2.4340    1.5770    1.3050 c1        1 11J     -0.123625
     16 C13        -1.7520    1.5230    0.0980 c1        1 11J     -0.151000
     17 C14        -0.3100   -0.5560    3.3960 c1        1 11J     -0.039000
     18 C15        -0.6920   -1.8790    3.5580 c1        1 11J     -0.123625
     19 C16        -0.1870   -2.6210    4.6130 c1        1 11J     -0.123625
     20 C17         0.7000   -2.0420    5.5060 c1        1 11J     -0.123625
     21 C18         1.0830   -0.7200    5.3440 c1        1 11J     -0.123625
     22 C19         0.5770    0.0230    4.2890 c1        1 11J     -0.119000
     23 HN          1.0220    1.1410   -1.2170 hn        1 11J      0.235000
     24 H3          1.4920   -1.3250   -3.1890 ha        1 11J      0.151000
     25 H4          2.6840   -1.4490   -5.2250 ha        1 11J      0.136250
     26 H5          2.2810    0.1350   -6.9280 ha        1 11J      0.136250
     27 H6          0.6850    1.8460   -6.5950 ha        1 11J      0.150000
     28 H9          0.7390   -0.4000    1.0320 ha        1 11J      0.134000
     29 H11        -2.4240    0.9370    3.2580 ha        1 11J      0.136250
     30 H12        -3.2610    2.0910    1.3760 ha        1 11J      0.136250
     31 H13        -2.0980    2.0010   -0.6790 ha        1 11J      0.173000
     32 H15        -1.3180   -2.2870    2.9290 ha        1 11J      0.136250
     33 H16        -0.4560   -3.5520    4.7270 ha        1 11J      0.136250
     34 H17         1.0570   -2.5650    6.2490 ha        1 11J      0.136250
     35 H18         1.7080   -0.3120    5.9730 ha        1 11J      0.136250
     36 H19         0.8470    0.9540    4.1740 ha        1 11J      0.134000
@<TRIPOS>BOND
     1    1    4 1   
     2    2   10 1   
     3    2   11 1   
     4    2   23 1   
     5    3   10 1   
     6    4    5 1   
     7    4    9 1   
     8    5    6 1   
     9    5   10 1   
    10    6   24 1   
    11    7    8 1   
    12    7   25 1   
    13    8   26 1   
    14    9   27 1   
    15   11   12 1   
    16   11   16 1   
    17   12   13 1   
    18   12   28 1   
    19   14   15 1   
    20   14   29 1   
    21   15   30 1   
    22   16   31 1   
    23   17   22 1   
    24   18   19 1   
    25   18   32 1   
    26   19   33 1   
    27   20   21 1   
    28   20   34 1   
    29   21   35 1   
    30   22   36 1   
@<TRIPOS>SUBSTRUCTURE
     1 11J         1 TEMP              0 ****  ****    0 ROOT
