@<TRIPOS>MOLECULE
11J
   36    38     1     0     0
SMALL
bcc


@<TRIPOS>ATOM
      1 I           0.8020   -1.9570    1.1520 i         1 11J     -0.121900
      2 N           2.4810    0.1530    3.6130 n         1 11J     -0.461100
      3 O           1.3890    1.7810    2.3680 o         1 11J     -0.564100
      4 C1          2.3940   -0.8720    0.5340 ca        1 11J      0.045900
      5 C2          2.8350    0.2700    1.2080 ca        1 11J     -0.111600
      6 C3          3.9310    0.9940    0.7260 ca        1 11J     -0.097000
      7 C4          4.5930    0.5750   -0.4270 ca        1 11J     -0.115000
      8 C5          4.1580   -0.5660   -1.1010 ca        1 11J     -0.117000
      9 C6          3.0620   -1.2840   -0.6230 ca        1 11J     -0.103000
     10 C7          2.1470    0.7990    2.4330 c         1 11J      0.676700
     11 C8          1.9690    0.4070    4.8980 ca        1 11J      0.067600
     12 C9          2.3380   -0.4700    5.9460 ca        1 11J     -0.172000
     13 C10         1.8750   -0.2620    7.2470 cp        1 11J     -0.012000
     14 C11         1.0330    0.8260    7.5200 ca        1 11J     -0.145000
     15 C12         0.6690    1.6910    6.4930 ca        1 11J     -0.106000
     16 C13         1.1240    1.4970    5.1910 ca        1 11J     -0.152000
     17 C14         2.2660   -1.1780    8.3190 cp        1 11J     -0.039000
     18 C15         1.3240   -1.6000    9.2680 ca        1 11J     -0.118000
     19 C16         1.6970   -2.4730   10.2880 ca        1 11J     -0.131000
     20 C17         3.0110   -2.9320   10.3740 ca        1 11J     -0.127000
     21 C18         3.9540   -2.5140    9.4350 ca        1 11J     -0.131000
     22 C19         3.5850   -1.6430    8.4110 ca        1 11J     -0.118000
     23 HN          3.0640   -0.6520    3.5380 hn        1 11J      0.321500
     24 H3          4.2590    1.9020    1.2560 ha        1 11J      0.151000
     25 H4          5.4530    1.1470   -0.8050 ha        1 11J      0.143000
     26 H5          4.6760   -0.9000   -2.0120 ha        1 11J      0.142000
     27 H6          2.7240   -2.1790   -1.1690 ha        1 11J      0.150000
     28 H9          2.9910   -1.3350    5.7480 ha        1 11J      0.134000
     29 H11         0.6700    0.9950    8.5440 ha        1 11J      0.137000
     30 H12         0.0110    2.5460    6.7070 ha        1 11J      0.136000
     31 H13         0.8130    2.2000    4.4010 ha        1 11J      0.173000
     32 H15         0.2850   -1.2440    9.2000 ha        1 11J      0.135000
     33 H16         0.9500   -2.8020   11.0260 ha        1 11J      0.131500
     34 H17         3.3040   -3.6190   11.1800 ha        1 11J      0.132000
     35 H18         4.9920   -2.8710    9.5020 ha        1 11J      0.131500
     36 H19         4.3330   -1.3110    7.6760 ha        1 11J      0.135000
@<TRIPOS>BOND
     1    1    4 1   
     2    2   10 1   
     3    2   11 1   
     4    2   23 1   
     5    3   10 2   
     6    4    5 ar  
     7    4    9 ar  
     8    5    6 ar  
     9    5   10 1   
    10    6    7 ar  
    11    6   24 1   
    12    7    8 ar  
    13    7   25 1   
    14    8    9 ar  
    15    8   26 1   
    16    9   27 1   
    17   11   12 ar  
    18   11   16 ar  
    19   12   13 ar  
    20   12   28 1   
    21   13   14 ar  
    22   13   17 1   
    23   14   15 ar  
    24   14   29 1   
    25   15   16 ar  
    26   15   30 1   
    27   16   31 1   
    28   17   18 ar  
    29   17   22 ar  
    30   18   19 ar  
    31   18   32 1   
    32   19   20 ar  
    33   19   33 1   
    34   20   21 ar  
    35   20   34 1   
    36   21   22 ar  
    37   21   35 1   
    38   22   36 1   
@<TRIPOS>SUBSTRUCTURE
     1 11J         1 TEMP              0 ****  ****    0 ROOT
