@<TRIPOS>MOLECULE
11J
   37    39     1     0     0
SMALL
bcc


@<TRIPOS>ATOM
      1 I           4.0580    2.7750    1.9350 i         1 11J     -0.100900
      2 N           1.3530    1.5640    3.5310 n4        1 11J     -0.548200
      3 O           0.2830    0.9400    1.5700 o         1 11J     -0.400100
      4 C1          3.8060    0.7880    1.6440 ca        1 11J      0.039900
      5 C2          2.5670    0.1480    1.8000 ca        1 11J     -0.160600
      6 C3          2.4380   -1.2220    1.5310 ca        1 11J     -0.060000
      7 C4          3.5510   -1.9590    1.1250 ca        1 11J     -0.104000
      8 C5          4.7840   -1.3290    0.9770 ca        1 11J     -0.071000
      9 C6          4.9070    0.0410    1.2310 ca        1 11J     -0.087000
     10 C7          1.3370    0.8610    2.1800 c         1 11J      0.579700
     11 C8          1.0090    0.6460    4.6220 ca        1 11J     -0.054400
     12 C9          1.9870    0.2890    5.5640 ca        1 11J     -0.105000
     13 C10         1.6450   -0.5620    6.6230 cp        1 11J      0.015000
     14 C11         0.3310   -1.0460    6.7220 ca        1 11J     -0.075000
     15 C12        -0.6300   -0.6870    5.7790 ca        1 11J     -0.101000
     16 C13        -0.3070    0.1600    4.7210 ca        1 11J     -0.112000
     17 C14         2.6500   -0.9330    7.6160 cp        1 11J     -0.086000
     18 C15         2.3120   -0.9810    8.9760 ca        1 11J     -0.108000
     19 C16         3.2700   -1.3340    9.9240 ca        1 11J     -0.122000
     20 C17         4.5700   -1.6470    9.5240 ca        1 11J     -0.098000
     21 C18         4.9110   -1.6040    8.1720 ca        1 11J     -0.122000
     22 C19         3.9590   -1.2470    7.2200 ca        1 11J     -0.108000
     23 HN          0.6570    2.3240    3.5200 hn        1 11J      0.465300
     24 H3          1.4560   -1.7150    1.6300 ha        1 11J      0.164000
     25 H4          3.4460   -3.0370    0.9150 ha        1 11J      0.171000
     26 H5          5.6670   -1.9050    0.6510 ha        1 11J      0.171000
     27 H6          5.8890    0.5270    1.0910 ha        1 11J      0.175000
     28 H9          3.0190    0.6710    5.4980 ha        1 11J      0.158000
     29 H11         0.0610   -1.7200    7.5530 ha        1 11J      0.171000
     30 H12        -1.6600   -1.0740    5.8660 ha        1 11J      0.170000
     31 H13        -1.0770    0.4350    3.9810 ha        1 11J      0.163000
     32 H15         1.2890   -0.7310    9.2980 ha        1 11J      0.132000
     33 H16         2.9990   -1.3660   10.9910 ha        1 11J      0.148500
     34 H17         5.3250   -1.9280   10.2750 ha        1 11J      0.151000
     35 H18         5.9350   -1.8560    7.8550 ha        1 11J      0.148500
     36 H19         4.2320   -1.2260    6.1550 ha        1 11J      0.132000
     37 HN3         2.2880    1.9670    3.6960 hn        1 11J      0.465300
@<TRIPOS>BOND
     1    1    4 1   
     2    2   10 1   
     3    2   11 1   
     4    2   23 1   
     5    2   37 1   
     6    3   10 2   
     7    4    5 ar  
     8    4    9 ar  
     9    5    6 ar  
    10    5   10 1   
    11    6    7 ar  
    12    6   24 1   
    13    7    8 ar  
    14    7   25 1   
    15    8    9 ar  
    16    8   26 1   
    17    9   27 1   
    18   11   12 ar  
    19   11   16 ar  
    20   12   13 ar  
    21   12   28 1   
    22   13   14 ar  
    23   13   17 1   
    24   14   15 ar  
    25   14   29 1   
    26   15   16 ar  
    27   15   30 1   
    28   16   31 1   
    29   17   18 ar  
    30   17   22 ar  
    31   18   19 ar  
    32   18   32 1   
    33   19   20 ar  
    34   19   33 1   
    35   20   21 ar  
    36   20   34 1   
    37   21   22 ar  
    38   21   35 1   
    39   22   36 1   
@<TRIPOS>SUBSTRUCTURE
     1 11J         1 TEMP              0 ****  ****    0 ROOT
