@<TRIPOS>MOLECULE
11J
   36    38     1     0     0
SMALL
bcc


@<TRIPOS>ATOM
      1 I           0.8790   -2.0460    1.1660 i         1 11J     -0.121900
      2 N           2.4700    0.1460    3.6110 ns        1 11J     -0.461100
      3 O           1.3210    1.7230    2.3500 o         1 11J     -0.564100
      4 C1          2.4290   -0.9060    0.5400 ca        1 11J      0.045900
      5 C2          2.8250    0.2580    1.2050 ca        1 11J     -0.111600
      6 C3          3.8930    1.0200    0.7180 ca        1 11J     -0.097000
      7 C4          4.5720    0.6160   -0.4300 ca        1 11J     -0.115000
      8 C5          4.1830   -0.5460   -1.0950 ca        1 11J     -0.117000
      9 C6          3.1140   -1.3020   -0.6120 ca        1 11J     -0.103000
     10 C7          2.1150    0.7710    2.4240 c         1 11J      0.676700
     11 C8          1.9450    0.3910    4.8920 ca        1 11J      0.067600
     12 C9          2.3360   -0.4700    5.9460 ca        1 11J     -0.172000
     13 C10         1.8610   -0.2690    7.2440 cp        1 11J     -0.012000
     14 C11         0.9870    0.7940    7.5080 ca        1 11J     -0.145000
     15 C12         0.6020    1.6430    6.4750 ca        1 11J     -0.106000
     16 C13         1.0670    1.4570    5.1760 ca        1 11J     -0.152000
     17 C14         2.2750   -1.1680    8.3210 cp        1 11J     -0.039000
     18 C15         1.3420   -1.6130    9.2690 ca        1 11J     -0.118000
     19 C16         1.7360   -2.4700   10.2940 ca        1 11J     -0.131000
     20 C17         3.0630   -2.8890   10.3880 ca        1 11J     -0.127000
     21 C18         3.9970   -2.4490    9.4510 ca        1 11J     -0.131000
     22 C19         3.6070   -1.5940    8.4210 ca        1 11J     -0.118000
     23 HN          3.0820   -0.6380    3.5420 hn        1 11J      0.321500
     24 H3          4.1850    1.9440    1.2400 ha        1 11J      0.151000
     25 H4          5.4100    1.2180   -0.8120 ha        1 11J      0.143000
     26 H5          4.7140   -0.8680   -2.0030 ha        1 11J      0.142000
     27 H6          2.8120   -2.2140   -1.1500 ha        1 11J      0.150000
     28 H9          3.0150   -1.3150    5.7540 ha        1 11J      0.134000
     29 H11         0.6150    0.9580    8.5300 ha        1 11J      0.137000
     30 H12        -0.0830    2.4800    6.6830 ha        1 11J      0.136000
     31 H13         0.7380    2.1470    4.3810 ha        1 11J      0.173000
     32 H15         0.2930   -1.2880    9.1950 ha        1 11J      0.135000
     33 H16         0.9960   -2.8170   11.0310 ha        1 11J      0.131500
     34 H17         3.3720   -3.5640   11.1990 ha        1 11J      0.132000
     35 H18         5.0450   -2.7740    9.5240 ha        1 11J      0.131500
     36 H19         4.3480   -1.2430    7.6880 ha        1 11J      0.135000
@<TRIPOS>BOND
     1    1    4 1   
     2    2   10 1   
     3    2   11 1   
     4    2   23 1   
     5    3   10 2   
     6    4    5 ar  
     7    4    9 ar  
     8    5    6 ar  
     9    5   10 1   
    10    6    7 ar  
    11    6   24 1   
    12    7    8 ar  
    13    7   25 1   
    14    8    9 ar  
    15    8   26 1   
    16    9   27 1   
    17   11   12 ar  
    18   11   16 ar  
    19   12   13 ar  
    20   12   28 1   
    21   13   14 ar  
    22   13   17 1   
    23   14   15 ar  
    24   14   29 1   
    25   15   16 ar  
    26   15   30 1   
    27   16   31 1   
    28   17   18 ar  
    29   17   22 ar  
    30   18   19 ar  
    31   18   32 1   
    32   19   20 ar  
    33   19   33 1   
    34   20   21 ar  
    35   20   34 1   
    36   21   22 ar  
    37   21   35 1   
    38   22   36 1   
@<TRIPOS>SUBSTRUCTURE
     1 11J         1 TEMP              0 ****  ****    0 ROOT
