@<TRIPOS>MOLECULE
11K
   52    55     1     0     0
SMALL
bcc


@<TRIPOS>ATOM
      1 N1         -0.3680    1.2800    2.2480 na        1 11K     -0.015600
      2 N2          0.7720    1.2820    2.9330 nc        1 11K     -0.563800
      3 N3          2.6960   -0.2290    3.0650 ns        1 11K     -0.526400
      4 N4          6.5430    0.9940   11.4350 n3        1 11K     -0.723600
      5 OAA         2.8580   -2.3080    2.0620 o         1 11K     -0.594100
      6 CAB         4.4010   -2.0610    5.9120 ca        1 11K     -0.090000
      7 CAC         5.2160    0.0970    5.1910 ca        1 11K     -0.090000
      8 CAD         4.4790   -1.6600    7.2380 ca        1 11K     -0.179000
      9 CAE         5.3030    0.5190    6.5170 ca        1 11K     -0.179000
     10 CAF         0.6410   -0.6220    1.6050 cd        1 11K     -0.278300
     11 CAG         6.9990   -1.0850   12.6610 c3        1 11K     -0.096400
     12 CAH         6.7610    0.0210   13.6810 c3        1 11K     -0.096400
     13 CAI         5.4050    1.2630    9.2260 c3        1 11K      0.124400
     14 CAJ        -2.3850    1.0130   -0.1360 cx        1 11K     -0.128400
     15 CAK        -3.0560    0.2800    0.9850 cx        1 11K     -0.128400
     16 CAL         6.9340   -0.4100   11.2820 c3        1 11K      0.152800
     17 CAM         6.5170    1.3030   12.8690 c3        1 11K      0.152800
     18 CAN         5.3110    1.3560   10.7540 c3        1 11K      0.163800
     19 CAO         4.6950   -1.6380    3.4630 c3        1 11K     -0.104100
     20 OAS         4.9750   -0.0630    8.8860 os        1 11K     -0.335900
     21 CAT         3.3300   -1.4370    2.8140 c         1 11K      0.670100
     22 CAU         4.7650   -1.1880    4.8760 ca        1 11K     -0.137300
     23 CAV         4.9330   -0.3610    7.5410 ca        1 11K      0.137100
     24 CAW         1.4400    0.1210    2.5690 cd        1 11K      0.419200
     25 CAX        -0.5150    0.1560    1.4240 cc        1 11K     -0.064600
     26 CAY        -1.6600   -0.1110    0.5640 cx        1 11K     -0.059400
     27 HN3         3.0980    0.3760    3.7490 hn        1 11K      0.333500
     28 HAB         4.0480   -3.0760    5.6700 ha        1 11K      0.138000
     29 HAC         5.5140    0.7860    4.3860 ha        1 11K      0.138000
     30 HAD         4.1940   -2.3370    8.0560 ha        1 11K      0.147000
     31 HAE         5.6620    1.5330    6.7400 ha        1 11K      0.147000
     32 HAF         0.9020   -1.5700    1.1460 ha        1 11K      0.195000
     33 HAG         7.9940   -1.5670   12.8120 hc        1 11K      0.046700
     34 HAGA        6.2190   -1.8810   12.7440 hc        1 11K      0.046700
     35 HAH         7.6460    0.1490   14.3500 hc        1 11K      0.046700
     36 HAHA        5.8780   -0.2090   14.3250 hc        1 11K      0.046700
     37 HAI         6.4460    1.4300    8.8470 h1        1 11K      0.051200
     38 HAIA        4.7040    2.0060    8.7620 h1        1 11K      0.051200
     39 HAJ        -2.7310    0.8480   -1.1720 hc        1 11K      0.074700
     40 HAJA       -2.0510    2.0530    0.0210 hc        1 11K      0.074700
     41 HAK        -3.2060    0.7920    1.9520 hc        1 11K      0.074700
     42 HAKA       -3.8850   -0.4130    0.7580 hc        1 11K      0.074700
     43 HAL         6.2360   -0.9680   10.6000 h1        1 11K      0.050200
     44 HALA        7.9540   -0.4100   10.8070 h1        1 11K      0.050200
     45 HAM         7.3440    2.0420   13.0530 h1        1 11K      0.050200
     46 HAMA        5.5510    1.7840   13.1840 h1        1 11K      0.050200
     47 HAN         4.4290    0.7370   11.0890 h1        1 11K      0.047200
     48 HANA        5.0960    2.4350   11.0030 h1        1 11K      0.047200
     49 HAO         4.9300   -2.7350    3.3930 hc        1 11K      0.083200
     50 HAOA        5.4490   -1.0880    2.8370 hc        1 11K      0.083200
     51 HAY        -1.5330   -1.0680    0.0150 hc        1 11K      0.103700
     52 HN1        -1.0110    2.0280    2.3530 hn        1 11K      0.319700
@<TRIPOS>BOND
     1    1    2 1   
     2    1   25 1   
     3    1   52 1   
     4    2   24 2   
     5    3   21 1   
     6    3   24 1   
     7    3   27 1   
     8    4   16 1   
     9    4   17 1   
    10    4   18 1   
    11    5   21 2   
    12    6    8 ar  
    13    6   22 ar  
    14    6   28 1   
    15    7    9 ar  
    16    7   22 ar  
    17    7   29 1   
    18    8   23 ar  
    19    8   30 1   
    20    9   23 ar  
    21    9   31 1   
    22   10   24 1   
    23   10   25 2   
    24   10   32 1   
    25   11   12 1   
    26   11   16 1   
    27   11   33 1   
    28   11   34 1   
    29   12   17 1   
    30   12   35 1   
    31   12   36 1   
    32   13   18 1   
    33   13   20 1   
    34   13   37 1   
    35   13   38 1   
    36   14   15 1   
    37   14   26 1   
    38   14   39 1   
    39   14   40 1   
    40   15   26 1   
    41   15   41 1   
    42   15   42 1   
    43   16   43 1   
    44   16   44 1   
    45   17   45 1   
    46   17   46 1   
    47   18   47 1   
    48   18   48 1   
    49   19   21 1   
    50   19   22 1   
    51   19   49 1   
    52   19   50 1   
    53   20   23 1   
    54   25   26 1   
    55   26   51 1   
@<TRIPOS>SUBSTRUCTURE
     1 11K         1 TEMP              0 ****  ****    0 ROOT
