@<TRIPOS>MOLECULE
11K
   53    56     1     0     0
SMALL
bcc


@<TRIPOS>ATOM
      1 N1          0.6060   -1.2770    1.8980 na        1 11K      0.038400
      2 N2          1.5400   -0.6850    2.6130 nc        1 11K     -0.474800
      3 N3          1.7100    1.5150    3.7870 n4        1 11K     -0.627500
      4 N4          6.8180   -0.1780   11.3580 n3        1 11K     -0.726600
      5 OAA         2.8170    2.9510    2.3270 o         1 11K     -0.410100
      6 CAB         3.9800   -0.1150    5.5050 ca        1 11K     -0.081500
      7 CAC         5.0030    2.0730    5.6900 ca        1 11K     -0.081500
      8 CAD         4.1550   -0.3240    6.8620 ca        1 11K     -0.183000
      9 CAE         5.1880    1.8810    7.0560 ca        1 11K     -0.183000
     10 CAF        -0.3310    0.6920    2.4570 cd        1 11K     -0.245300
     11 CAG         6.7790   -2.6080   11.7030 c3        1 11K     -0.097400
     12 CAH         7.1060   -1.9490   13.0360 c3        1 11K     -0.097400
     13 CAI         5.6000    1.3260    9.7920 c3        1 11K      0.121400
     14 CAJ        -1.6760   -1.9170   -0.1090 cx        1 11K     -0.103900
     15 CAK        -2.0010   -0.4820   -0.3790 cx        1 11K     -0.103900
     16 CAL         6.6970   -1.4690   10.6750 c3        1 11K      0.154800
     17 CAM         7.1560   -0.4370   12.7620 c3        1 11K      0.154800
     18 CAN         5.6760    0.7010   11.1910 c3        1 11K      0.166800
     19 CAO         4.2430    1.2830    3.4430 c3        1 11K     -0.080100
     20 OAS         4.8830    0.3790    8.9760 os        1 11K     -0.318900
     21 CAT         2.9770    2.0110    3.0850 c         1 11K      0.565100
     22 CAU         4.3890    1.0890    4.9070 ca        1 11K     -0.225300
     23 CAV         4.7650    0.6810    7.6480 ca        1 11K      0.180100
     24 CAW         1.0060    0.5390    2.9850 cd        1 11K      0.319200
     25 CAX        -0.5620   -0.5080    1.7550 cc        1 11K     -0.007600
     26 CAY        -1.7560   -0.9420    1.0400 cx        1 11K     -0.118400
     27 HN3         1.9760    1.0940    4.6920 hn        1 11K      0.472800
     28 HAB         3.5410   -0.9140    4.8860 ha        1 11K      0.144000
     29 HAC         5.3580    3.0070    5.2250 ha        1 11K      0.144000
     30 HAD         3.8470   -1.2660    7.3410 ha        1 11K      0.165000
     31 HAE         5.6770    2.6650    7.6540 ha        1 11K      0.165000
     32 HAF        -1.0040    1.5360    2.5680 ha        1 11K      0.196000
     33 HAG         7.5690   -3.3410   11.4090 hc        1 11K      0.051450
     34 HAGA        5.8080   -3.1590   11.7560 hc        1 11K      0.051450
     35 HAH         8.0890   -2.3030   13.4300 hc        1 11K      0.051450
     36 HAHA        6.3280   -2.1830   13.8020 hc        1 11K      0.051450
     37 HAI         5.0100    2.2790    9.8340 h1        1 11K      0.056700
     38 HAIA        6.6130    1.5140    9.3520 h1        1 11K      0.056700
     39 HAJ        -0.6950   -2.3130   -0.4290 hc        1 11K      0.089200
     40 HAJA       -2.4720   -2.6810   -0.2000 hc        1 11K      0.089200
     41 HAK        -1.2490    0.1560   -0.8770 hc        1 11K      0.089200
     42 HAKA       -3.0320   -0.2030   -0.6630 hc        1 11K      0.089200
     43 HAL         7.5610   -1.5360    9.9580 h1        1 11K      0.049450
     44 HALA        5.7470   -1.5390   10.0780 h1        1 11K      0.049450
     45 HAM         8.2000   -0.0490   12.9160 h1        1 11K      0.049450
     46 HAMA        6.4790    0.1090   13.4730 h1        1 11K      0.049450
     47 HAN         5.7840    1.5600   11.9150 h1        1 11K      0.052700
     48 HANA        4.6910    0.1900   11.4000 h1        1 11K      0.052700
     49 HAO         5.0970    1.8940    3.0320 hc        1 11K      0.123200
     50 HAOA        4.2380    0.2920    2.9040 hc        1 11K      0.123200
     51 HAY        -2.6310   -1.0120    1.7230 hc        1 11K      0.119700
     52 HN1         0.7670   -2.1920    1.5230 hn        1 11K      0.356700
     53 H32         1.0690    2.3030    3.9460 hn        1 11K      0.472800
@<TRIPOS>BOND
     1    1    2 1   
     2    1   25 1   
     3    1   52 1   
     4    2   24 2   
     5    3   21 1   
     6    3   24 1   
     7    3   27 1   
     8    3   53 1   
     9    4   16 1   
    10    4   17 1   
    11    4   18 1   
    12    5   21 2   
    13    6    8 ar  
    14    6   22 ar  
    15    6   28 1   
    16    7    9 ar  
    17    7   22 ar  
    18    7   29 1   
    19    8   23 ar  
    20    8   30 1   
    21    9   23 ar  
    22    9   31 1   
    23   10   24 1   
    24   10   25 2   
    25   10   32 1   
    26   11   12 1   
    27   11   16 1   
    28   11   33 1   
    29   11   34 1   
    30   12   17 1   
    31   12   35 1   
    32   12   36 1   
    33   13   18 1   
    34   13   20 1   
    35   13   37 1   
    36   13   38 1   
    37   14   15 1   
    38   14   26 1   
    39   14   39 1   
    40   14   40 1   
    41   15   26 1   
    42   15   41 1   
    43   15   42 1   
    44   16   43 1   
    45   16   44 1   
    46   17   45 1   
    47   17   46 1   
    48   18   47 1   
    49   18   48 1   
    50   19   21 1   
    51   19   22 1   
    52   19   49 1   
    53   19   50 1   
    54   20   23 1   
    55   25   26 1   
    56   26   51 1   
@<TRIPOS>SUBSTRUCTURE
     1 11K         1 TEMP              0 ****  ****    0 ROOT
