@<TRIPOS>MOLECULE
11K
   52    55     1     0     0
SMALL
bcc


@<TRIPOS>ATOM
      1 N1         -0.3910    1.2820    2.2700 na        1 11K     -0.015600
      2 N2          0.7480    1.2950    2.9570 nc        1 11K     -0.563800
      3 N3          2.7060   -0.1750    3.0600 n         1 11K     -0.526400
      4 N4          6.5130    0.9540   11.4610 n3        1 11K     -0.723600
      5 OAA         2.9150   -2.2280    2.0130 o         1 11K     -0.594100
      6 CAB         4.4470   -2.0290    5.8700 ca        1 11K     -0.090000
      7 CAC         5.2140    0.1610    5.1970 ca        1 11K     -0.090000
      8 CAD         4.5140   -1.6550    7.2050 ca        1 11K     -0.179000
      9 CAE         5.2900    0.5570    6.5320 ca        1 11K     -0.179000
     10 CAF         0.6610   -0.5820    1.5880 cd        1 11K     -0.278300
     11 CAG         7.0120   -1.1400   12.6440 c3        1 11K     -0.096400
     12 CAH         6.7480   -0.0620   13.6860 c3        1 11K     -0.096400
     13 CAI         5.3720    1.2440    9.2560 c3        1 11K      0.124400
     14 CAJ        -2.4000    1.0220   -0.1210 cx        1 11K     -0.128400
     15 CAK        -3.0540    0.2490    0.9830 cx        1 11K     -0.128400
     16 CAL         6.9350   -0.4370   11.2780 c3        1 11K      0.152800
     17 CAM         6.4780    1.2320   12.9010 c3        1 11K      0.152800
     18 CAN         5.2750    1.3030   10.7860 c3        1 11K      0.163800
     19 CAO         4.7340   -1.5480    3.4310 c3        1 11K     -0.104100
     20 OAS         4.9720   -0.0830    8.8870 os        1 11K     -0.335900
     21 CAT         3.3660   -1.3630    2.7840 c         1 11K      0.670100
     22 CAU         4.7930   -1.1270    4.8540 ca        1 11K     -0.137300
     23 CAV         4.9380   -0.3530    7.5360 ca        1 11K      0.137100
     24 CAW         1.4420    0.1580    2.5700 cd        1 11K      0.419200
     25 CAX        -0.5110    0.1740    1.4220 cc        1 11K     -0.064600
     26 CAY        -1.6490   -0.1000    0.5550 cx        1 11K     -0.059400
     27 HN3         3.0930    0.4230    3.7580 hn        1 11K      0.333500
     28 HAB         4.1160   -3.0460    5.6060 ha        1 11K      0.138000
     29 HAC         5.4980    0.8740    4.4080 ha        1 11K      0.138000
     30 HAD         4.2430   -2.3560    8.0070 ha        1 11K      0.147000
     31 HAE         5.6260    1.5740    6.7770 ha        1 11K      0.147000
     32 HAF         0.9440   -1.5140    1.1090 ha        1 11K      0.195000
     33 HAG         6.2500   -1.9540   12.7080 hc        1 11K      0.046700
     34 HAGA        8.0180   -1.6030   12.7870 hc        1 11K      0.046700
     35 HAH         5.8680   -0.3250   14.3220 hc        1 11K      0.046700
     36 HAHA        7.6280    0.0710   14.3610 hc        1 11K      0.046700
     37 HAI         6.4100    1.4420    8.8830 h1        1 11K      0.051200
     38 HAIA        4.6560    1.9820    8.8070 h1        1 11K      0.051200
     39 HAJ        -2.0900    2.0660    0.0610 hc        1 11K      0.074700
     40 HAJA       -2.7410    0.8730   -1.1610 hc        1 11K      0.074700
     41 HAK        -3.8670   -0.4590    0.7380 hc        1 11K      0.074700
     42 HAKA       -3.2170    0.7340    1.9610 hc        1 11K      0.074700
     43 HAL         6.2510   -0.9960   10.5830 h1        1 11K      0.050200
     44 HALA        7.9550   -0.4050   10.8060 h1        1 11K      0.050200
     45 HAM         5.5030    1.6860   13.2240 h1        1 11K      0.050200
     46 HAMA        7.2900    1.9840   13.1030 h1        1 11K      0.050200
     47 HAN         5.0350    2.3710   11.0570 h1        1 11K      0.047200
     48 HANA        4.4060    0.6570   11.1060 h1        1 11K      0.047200
     49 HAO         5.4760   -0.9680    2.8180 hc        1 11K      0.083200
     50 HAOA        4.9940   -2.6380    3.3380 hc        1 11K      0.083200
     51 HAY        -1.4990   -1.0420   -0.0160 hc        1 11K      0.103700
     52 HN1        -1.0500    2.0130    2.3910 hn        1 11K      0.319700
@<TRIPOS>BOND
     1    1    2 1   
     2    1   25 1   
     3    1   52 1   
     4    2   24 2   
     5    3   21 1   
     6    3   24 1   
     7    3   27 1   
     8    4   16 1   
     9    4   17 1   
    10    4   18 1   
    11    5   21 2   
    12    6    8 ar  
    13    6   22 ar  
    14    6   28 1   
    15    7    9 ar  
    16    7   22 ar  
    17    7   29 1   
    18    8   23 ar  
    19    8   30 1   
    20    9   23 ar  
    21    9   31 1   
    22   10   24 1   
    23   10   25 2   
    24   10   32 1   
    25   11   12 1   
    26   11   16 1   
    27   11   33 1   
    28   11   34 1   
    29   12   17 1   
    30   12   35 1   
    31   12   36 1   
    32   13   18 1   
    33   13   20 1   
    34   13   37 1   
    35   13   38 1   
    36   14   15 1   
    37   14   26 1   
    38   14   39 1   
    39   14   40 1   
    40   15   26 1   
    41   15   41 1   
    42   15   42 1   
    43   16   43 1   
    44   16   44 1   
    45   17   45 1   
    46   17   46 1   
    47   18   47 1   
    48   18   48 1   
    49   19   21 1   
    50   19   22 1   
    51   19   49 1   
    52   19   50 1   
    53   20   23 1   
    54   25   26 1   
    55   26   51 1   
@<TRIPOS>SUBSTRUCTURE
     1 11K         1 TEMP              0 ****  ****    0 ROOT
