@<TRIPOS>MOLECULE
11K
   52    55     1     0     0
SMALL
bcc


@<TRIPOS>ATOM
      1 N1          5.0340   -1.4100   -1.1470 na        1 11K     -0.015600
      2 N2          3.8480   -0.8120   -1.2160 nc        1 11K     -0.563800
      3 N3          2.7020    0.8850    0.1310 n         1 11K     -0.526400
      4 N4         -6.4230   -0.4230   -1.0420 n3        1 11K     -0.723600
      5 OAA         3.4500    1.7510    2.1420 o         1 11K     -0.594100
      6 CAB        -0.6290    0.9900    1.9360 ca        1 11K     -0.090000
      7 CAC        -0.4350    1.8510   -0.3130 ca        1 11K     -0.090000
      8 CAD        -1.7910    0.3150    1.5900 ca        1 11K     -0.179000
      9 CAE        -1.6010    1.1820   -0.6820 ca        1 11K     -0.179000
     10 CAF         5.0280   -0.0370    0.6310 cd        1 11K     -0.278300
     11 CAG        -7.7200   -0.4860    1.0430 c3        1 11K     -0.096400
     12 CAH        -8.4490   -1.3340    0.0090 c3        1 11K     -0.096400
     13 CAI        -3.9450   -0.2370   -1.3100 c3        1 11K      0.124400
     14 CAJ         8.1230   -1.8230   -0.8150 cx        1 11K     -0.128400
     15 CAK         7.5240   -2.9120    0.0210 cx        1 11K     -0.128400
     16 CAL        -6.5120    0.1240    0.3150 c3        1 11K      0.152800
     17 CAM        -7.6210   -1.2330   -1.2830 c3        1 11K      0.152800
     18 CAN        -5.1890   -1.1350   -1.3270 c3        1 11K      0.163800
     19 CAO         1.2930    2.4930    1.3800 c3        1 11K     -0.104100
     20 OAS        -3.4390   -0.2930    0.0310 os        1 11K     -0.335900
     21 CAT         2.5690    1.6670    1.2680 c         1 11K      0.670100
     22 CAU         0.0620    1.7610    0.9900 ca        1 11K     -0.137300
     23 CAV        -2.2790    0.4130    0.2710 ca        1 11K      0.137100
     24 CAW         3.7930    0.0540   -0.1330 cd        1 11K      0.419200
     25 CAX         5.8020   -0.9900   -0.0520 cc        1 11K     -0.064600
     26 CAY         7.1360   -1.4750    0.2730 cx        1 11K     -0.059400
     27 HN3         1.9140    0.8030   -0.4750 hn        1 11K      0.333500
     28 HAB        -0.2440    0.9180    2.9660 ha        1 11K      0.138000
     29 HAC         0.0930    2.4630   -1.0610 ha        1 11K      0.138000
     30 HAD        -2.3370   -0.2930    2.3240 ha        1 11K      0.147000
     31 HAE        -1.9730    1.2690   -1.7120 ha        1 11K      0.147000
     32 HAF         5.2710    0.5160    1.5330 ha        1 11K      0.195000
     33 HAG        -8.3810    0.3200    1.4430 hc        1 11K      0.046700
     34 HAGA       -7.3830   -1.1100    1.9060 hc        1 11K      0.046700
     35 HAH        -8.5260   -2.3970    0.3430 hc        1 11K      0.046700
     36 HAHA       -9.4850   -0.9550   -0.1650 hc        1 11K      0.046700
     37 HAI        -3.1740   -0.6540   -2.0100 h1        1 11K      0.051200
     38 HAIA       -4.1760    0.8240   -1.5820 h1        1 11K      0.051200
     39 HAJ         9.1830   -1.5500   -0.6670 hc        1 11K      0.074700
     40 HAJA        7.8200   -1.7240   -1.8720 hc        1 11K      0.074700
     41 HAK         6.7880   -3.5990   -0.4330 hc        1 11K      0.074700
     42 HAKA        8.1520   -3.4240    0.7710 hc        1 11K      0.074700
     43 HAL        -5.5680   -0.0490    0.9000 h1        1 11K      0.050200
     44 HALA       -6.6510    1.2350    0.2060 h1        1 11K      0.050200
     45 HAM        -8.2110   -0.7050   -2.0810 h1        1 11K      0.050200
     46 HAMA       -7.3720   -2.2600   -1.6650 h1        1 11K      0.050200
     47 HAN        -5.0090   -1.9960   -0.6190 h1        1 11K      0.047200
     48 HANA       -5.2770   -1.5520   -2.3700 h1        1 11K      0.047200
     49 HAO         1.2190    2.8340    2.4490 hc        1 11K      0.083200
     50 HAOA        1.4270    3.4080    0.7400 hc        1 11K      0.083200
     51 HAY         7.5260   -0.9850    1.1910 hc        1 11K      0.103700
     52 HN1         5.2920   -2.0790   -1.8320 hn        1 11K      0.319700
@<TRIPOS>BOND
     1    1    2 1   
     2    1   25 1   
     3    1   52 1   
     4    2   24 2   
     5    3   21 1   
     6    3   24 1   
     7    3   27 1   
     8    4   16 1   
     9    4   17 1   
    10    4   18 1   
    11    5   21 2   
    12    6    8 ar  
    13    6   22 ar  
    14    6   28 1   
    15    7    9 ar  
    16    7   22 ar  
    17    7   29 1   
    18    8   23 ar  
    19    8   30 1   
    20    9   23 ar  
    21    9   31 1   
    22   10   24 1   
    23   10   25 2   
    24   10   32 1   
    25   11   12 1   
    26   11   16 1   
    27   11   33 1   
    28   11   34 1   
    29   12   17 1   
    30   12   35 1   
    31   12   36 1   
    32   13   18 1   
    33   13   20 1   
    34   13   37 1   
    35   13   38 1   
    36   14   15 1   
    37   14   26 1   
    38   14   39 1   
    39   14   40 1   
    40   15   26 1   
    41   15   41 1   
    42   15   42 1   
    43   16   43 1   
    44   16   44 1   
    45   17   45 1   
    46   17   46 1   
    47   18   47 1   
    48   18   48 1   
    49   19   21 1   
    50   19   22 1   
    51   19   49 1   
    52   19   50 1   
    53   20   23 1   
    54   25   26 1   
    55   26   51 1   
@<TRIPOS>SUBSTRUCTURE
     1 11K         1 TEMP              0 ****  ****    0 ROOT
