@<TRIPOS>MOLECULE
11M
   54    54     1     0     0
SMALL
bcc


@<TRIPOS>ATOM
      1 C4         -0.6190   -0.1030    0.2210 c1        1 11M     -0.201000
      2 C5         -0.0780    0.4160   -0.7120 c1        1 11M     -0.175000
      3 C6          1.7250   -0.4430    2.5680 c2        1 11M      0.062000
      4 C8         -1.8090    2.0910    2.3030 c3        1 11M     -0.150000
      5 C10        -1.8250   -0.7470    3.7450 c3        1 11M     -0.167000
      6 C13        -3.0220   -1.8130    6.3030 c2        1 11M     -0.842000
      7 C15        -0.6940    1.2420    2.7870 c2        1 11M     -0.427000
      8 C22        -3.2760   -3.8180    8.5770 c2        1 11M     -0.742000
      9 C24         1.2380   -4.2790    8.1410 c1        1 11M      0.233000
     10 C26         0.7330   -2.8080   10.2190 c2        1 11M      0.184000
     11 C1          0.5260   -0.8750    3.0510 c2        1 11M     -0.463000
     12 C2         -0.7920   -0.2590    2.7090 c3        1 11M      0.090000
     13 C3         -1.2710   -0.7740    1.3210 c3        1 11M      0.145000
     14 O13        -2.6890   -0.7200    1.2200 oh        1 11M     -0.333000
     15 C11        -1.3240   -0.5190    5.1230 c2        1 11M      0.124000
     16 N22        -1.8590   -1.0090    6.2160 n         1 11M     -0.050000
     17 C14         0.4250    1.7650    3.2800 c1        1 11M      0.206000
     18 O61        -0.3910    0.0330    7.7570 o         1 11M     -0.216000
     19 C30         2.9390   -1.0420    2.9020 c2        1 11M     -0.611000
     20 N64         4.1910   -0.5570    2.4130 n4        1 11M      0.086000
     21 C39        -2.0490   -1.6230    8.4810 c2        1 11M     -0.690000
     22 C41        -1.6340   -2.3970    9.5530 c2        1 11M      0.216000
     23 C42        -2.3810   -3.6160    9.6230 c2        1 11M     -0.207000
     24 S44        -3.4590   -2.2440    7.7640 s4        1 11M      1.494000
     25 C25         0.9650   -3.5530    9.1580 c1        1 11M     -0.588000
     26 C27        -0.5290   -2.0660   10.4760 c3        1 11M     -0.177000
     27 C29        -4.9240   -5.0650    6.8980 c3        1 11M     -0.480000
     28 H4         -1.0420   -1.8840    1.2730 h1        1 11M      0.142000
     29 H5          0.3920    0.8770   -1.5440 ha        1 11M      0.228000
     30 H8         -2.9420    0.1790    0.9790 ho        1 11M      0.209000
     31 H8A        -1.8530    2.0510    1.1840 hc        1 11M      0.087667
     32 H10        -2.7860    1.7330    2.7120 hc        1 11M      0.087667
     33 H10A       -2.8020   -0.2050    3.6000 hc        1 11M      0.144000
     34 H13        -3.5350   -2.0430    5.3640 h5        1 11M      0.207000
     35 H13A        1.0450    1.6690    5.7360 ha        1 11M      0.002000
     36 H24        -2.1930   -4.3520   10.4140 ha        1 11M      0.176000
     37 H26        -0.8630   -2.2690   11.5360 hc        1 11M      0.155500
     38 H1          0.4820   -1.7850    3.6630 ha        1 11M      0.117000
     39 H11        -0.4180    0.1350    5.2430 h4        1 11M      0.227000
     40 H11A       -2.0270   -1.8400    3.5660 hc        1 11M      0.144000
     41 H14         1.0220    1.4570    6.3800 ha        1 11M      0.002000
     42 H14A       -1.6680    3.1570    2.6100 hc        1 11M      0.087667
     43 H30         3.0180   -1.9220    3.5460 hx        1 11M      0.167000
     44 H30A        1.7410    0.4250    1.8760 ha        1 11M      0.104000
     45 HN64        4.0570    0.2770    1.8380 hn        1 11M      0.205000
     46 HN6A        4.8080   -0.3210    3.1960 hn        1 11M      0.205000
     47 H25         1.5050   -2.6700   11.0050 ha        1 11M      0.151000
     48 H27        -0.2920   -0.9620   10.4050 hc        1 11M      0.155500
     49 H29        -4.2270   -5.0600    6.0270 h1        1 11M      0.137667
     50 H29A       -5.6080   -4.1900    6.8080 h1        1 11M      0.137667
     51 H29B       -5.5460   -5.9950    6.8300 h1        1 11M      0.137667
     52 C17        -1.3110   -0.7560    7.5960 c2        1 11M      0.395000
     53 H643        4.6560   -1.2750    1.8500 hn        1 11M      0.205000
     54 S59        -4.1130   -5.1680    8.4310 ss        1 11M      0.662000
@<TRIPOS>BOND
     1    1    2 1   
     2    1   13 1   
     3    2   29 1   
     4    3   11 1   
     5    3   19 1   
     6    3   44 1   
     7    4    7 1   
     8    4   31 1   
     9    4   32 1   
    10    4   42 1   
    11    5   12 1   
    12    5   15 1   
    13    5   33 1   
    14    5   40 1   
    15    6   16 1   
    16    6   24 1   
    17    6   34 1   
    18    7   12 1   
    19    7   17 1   
    20    8   23 1   
    21    8   24 1   
    22    8   54 1   
    23    9   25 1   
    24   10   25 1   
    25   10   26 1   
    26   10   47 1   
    27   11   12 1   
    28   11   38 1   
    29   12   13 1   
    30   13   14 1   
    31   13   28 1   
    32   14   30 1   
    33   15   16 1   
    34   15   39 1   
    35   16   52 1   
    36   18   52 1   
    37   19   20 1   
    38   19   43 1   
    39   20   45 1   
    40   20   46 1   
    41   20   53 1   
    42   21   22 1   
    43   21   24 1   
    44   21   52 1   
    45   22   23 1   
    46   22   26 1   
    47   23   36 1   
    48   26   37 1   
    49   26   48 1   
    50   27   49 1   
    51   27   50 1   
    52   27   51 1   
    53   27   54 1   
    54   35   41 1   
@<TRIPOS>SUBSTRUCTURE
     1 11M         1 TEMP              0 ****  ****    0 ROOT
