@<TRIPOS>MOLECULE
11M
   54    51     1     0     0
SMALL
bcc


@<TRIPOS>ATOM
      1 C4         -1.1150    3.5530    2.3750 c1        1 11M     -0.232000
      2 C5         -0.0360    3.9080    2.7490 c1        1 11M     -0.155000
      3 C6         -1.3860    0.4650    2.6760 c2        1 11M     -0.028000
      4 C8         -4.1580    2.9690   -0.5230 c3        1 11M     -0.151000
      5 C10         3.5480   -5.8840    5.6050 c2        1 11M     -0.199000
      6 C13         1.8200   -5.4450    8.0180 c1        1 11M     -0.188000
      7 C15        -2.9040    2.1660   -0.3620 c2        1 11M     -0.413000
      8 C22        -0.9030   -4.0960   10.3020 c2        1 11M     -0.643000
      9 C24        -0.2790    2.3130    8.3180 c1        1 11M      0.395000
     10 C26        -0.4210    0.7290    6.2950 c1        1 11M      0.395000
     11 C1         -1.9400    0.7690    1.3800 c2        1 11M     -0.203000
     12 C2         -2.3880    1.9840    0.9880 c2        1 11M      0.049000
     13 C3         -2.4320    3.2090    1.8790 c3        1 11M      0.156000
     14 O13        -3.3860    3.0550    2.9190 oh        1 11M     -0.289000
     15 C11         2.3920   -5.2100    5.6460 c2        1 11M     -0.119000
     16 N22         1.6440   -4.9310    6.8200 n         1 11M     -0.122000
     17 C14        -2.3440    1.6660   -1.4640 c1        1 11M      0.270000
     18 O61         0.3170   -3.3920    5.6500 o         1 11M     -0.439000
     19 C30        -1.0960   -0.8040    3.0320 c2        1 11M     -0.236000
     20 N64        -0.5340   -1.1660    4.3120 nz        1 11M     -0.078000
     21 C39        -0.1910   -3.8570    7.9610 c2        1 11M     -0.563000
     22 C41        -1.3570   -3.1140    8.2220 c2        1 11M      0.024000
     23 C42        -1.7570   -3.2490    9.5590 c2        1 11M     -0.201000
     24 S44         0.3280   -4.6880    9.3380 ss        1 11M      0.832000
     25 C25        -0.3520    1.5100    7.2850 c1        1 11M     -0.698000
     26 C27        -2.0870   -2.3130    7.2290 c3        1 11M     -0.164000
     27 C29         0.0240   -5.4410   12.4280 c3        1 11M     -0.415000
     28 H4         -2.8350    4.1000    1.2970 h1        1 11M      0.166000
     29 H5          0.9220    4.2370    3.0700 ha        1 11M      0.234000
     30 H8         -3.1370    2.2870    3.4460 ho        1 11M      0.192000
     31 H8A        -3.9080    4.0520   -0.6510 hc        1 11M      0.102000
     32 H10         4.0510   -6.0610    4.6430 ha        1 11M      0.140500
     33 H10A       -4.7360    2.6300   -1.4190 hc        1 11M      0.102000
     34 H13        -0.3770    0.7750   -0.7240 ha        1 11M      0.010500
     35 H13A       -4.8030    2.8500    0.3830 hc        1 11M      0.102000
     36 H24        -2.6420   -2.7630    9.9760 ha        1 11M      0.154000
     37 H26        -3.1060   -2.0420    7.6020 hc        1 11M      0.079000
     38 H1         -1.9930   -0.0780    0.6690 ha        1 11M      0.153000
     39 H11         1.9170   -4.8080    4.7280 h4        1 11M      0.169000
     40 H11A        4.0610   -6.2990    6.4830 ha        1 11M      0.140500
     41 H14        -0.2020    0.8260   -1.3810 ha        1 11M      0.010500
     42 H14A        2.6230   -6.1710    8.2110 ha        1 11M      0.137000
     43 H30        -1.2680   -1.6700    2.3640 hx        1 11M      0.186000
     44 H30A       -1.1960    1.3180    3.3570 ha        1 11M      0.144000
     45 HN64        0.4160   -1.5300    4.1840 hn        1 11M      0.268667
     46 HN6A       -0.5010   -0.3410    5.0150 hn        1 11M      0.268667
     47 H25        -1.5270   -1.3660    7.0090 hc        1 11M      0.079000
     48 H27        -2.1960   -2.8900    6.2740 hc        1 11M      0.079000
     49 H29         1.0410   -4.9940   12.3480 h1        1 11M      0.120000
     50 H29A        0.0240   -6.4110   11.8800 h1        1 11M      0.120000
     51 H29B       -0.1950   -5.6410   13.5050 h1        1 11M      0.120000
     52 C17         0.5200   -3.9820    6.7300 c2        1 11M      0.436000
     53 H643       -1.0860   -1.9240    4.7360 hn        1 11M      0.268667
     54 S59        -1.2340   -4.3600   11.8850 ss        1 11M      0.434000
@<TRIPOS>BOND
     1    1    2 1   
     2    1   13 1   
     3    2   29 1   
     4    3   11 1   
     5    3   19 1   
     6    3   44 1   
     7    4    7 1   
     8    4   31 1   
     9    4   33 1   
    10    4   35 1   
    11    5   15 1   
    12    5   32 1   
    13    5   40 1   
    14    6   16 1   
    15    6   42 1   
    16    7   12 1   
    17    7   17 1   
    18    8   23 1   
    19    8   24 1   
    20    8   54 1   
    21    9   25 1   
    22   10   25 1   
    23   11   12 1   
    24   11   38 1   
    25   12   13 1   
    26   13   14 1   
    27   13   28 1   
    28   14   30 1   
    29   15   16 1   
    30   15   39 1   
    31   16   52 1   
    32   18   52 1   
    33   19   20 1   
    34   19   43 1   
    35   20   45 1   
    36   20   46 1   
    37   20   53 1   
    38   21   22 1   
    39   21   24 1   
    40   21   52 1   
    41   22   23 1   
    42   22   26 1   
    43   23   36 1   
    44   26   37 1   
    45   26   47 1   
    46   26   48 1   
    47   27   49 1   
    48   27   50 1   
    49   27   51 1   
    50   27   54 1   
    51   34   41 1   
@<TRIPOS>SUBSTRUCTURE
     1 11M         1 TEMP              0 ****  ****    0 ROOT
