@<TRIPOS>MOLECULE
11M
   53    57     1     0     0
SMALL
bcc


@<TRIPOS>ATOM
      1 C4         -6.1110   -1.2840   -0.5410 ca        1 11M     -0.156000
      2 C5         -6.3540   -0.0450   -1.1450 ca        1 11M     -0.093000
      3 C6         -5.3780    0.9540   -1.1830 ca        1 11M     -0.130300
      4 C8         -3.0820   -2.4290    1.1130 c3        1 11M      0.122400
      5 C10        -1.4420   -1.0540   -0.2630 c3        1 11M     -0.096400
      6 C13        -0.9600   -0.5860    2.5510 c3        1 11M      0.068500
      7 C15        -2.6270   -1.0000    0.6940 c3        1 11M     -0.014700
      8 C22         4.2560   -0.4010   -0.5010 cc        1 11M     -0.133800
      9 C24         4.8190    1.9520   -1.3150 ca        1 11M     -0.095000
     10 C26         3.2810    3.6840   -0.5760 ca        1 11M     -0.118000
     11 C1         -4.1120    0.7410   -0.6050 ca        1 11M     -0.053000
     12 C2         -3.8550   -0.4740   -0.0010 ca        1 11M     -0.163300
     13 C3         -4.8580   -1.4750    0.0240 ca        1 11M      0.121100
     14 O13        -4.4490   -2.6340    0.6630 os        1 11M     -0.321900
     15 C11        -0.1500   -1.4630    0.4490 c3        1 11M      0.068500
     16 N22         0.1630   -0.6890    1.6330 n         1 11M     -0.448800
     17 C14        -2.2770   -0.1510    1.9090 c3        1 11M     -0.096400
     18 O61         0.8070    1.4490    2.2210 o         1 11M     -0.582100
     19 C30        -5.6690    2.2530   -1.8760 c3        1 11M      0.209100
     20 N64        -5.3280    3.4200   -1.0940 n3        1 11M     -0.917800
     21 C39         2.2240    0.3130    0.7010 cc        1 11M     -0.286600
     22 C41         2.8630    1.4080    0.0970 ca        1 11M      0.015000
     23 C42         4.0430    0.9890   -0.6190 ca        1 11M     -0.070000
     24 S44         3.0620   -1.0860    0.4090 ss        1 11M      0.268800
     25 C25         4.4400    3.2680   -1.2920 ca        1 11M     -0.134000
     26 C27         2.5070    2.7830    0.1050 ca        1 11M     -0.105000
     27 C29         5.4250   -2.8020   -0.8220 c3        1 11M     -0.103000
     28 H4         -6.8760   -2.0700   -0.5120 ha        1 11M      0.151000
     29 H5         -7.3400    0.1370   -1.6010 ha        1 11M      0.133000
     30 H8         -2.4730   -3.2290    0.6260 h1        1 11M      0.060200
     31 H8A        -3.0970   -2.5610    2.2230 h1        1 11M      0.060200
     32 H10        -1.6440   -1.7900   -1.0820 hc        1 11M      0.062700
     33 H10A       -1.3150   -0.0440   -0.7340 hc        1 11M      0.062700
     34 H13        -1.0930   -1.6090    3.0060 h1        1 11M      0.059450
     35 H13A       -0.7010    0.1380    3.3750 h1        1 11M      0.059450
     36 H24         5.7140    1.6180   -1.8600 ha        1 11M      0.138000
     37 H26         3.0200    4.7530   -0.5780 ha        1 11M      0.134000
     38 H1         -3.3480    1.5330   -0.6370 ha        1 11M      0.155000
     39 H11        -0.2460   -2.5380    0.7800 h1        1 11M      0.059450
     40 H11A        0.6990   -1.4010   -0.2890 h1        1 11M      0.059450
     41 H14        -3.0900   -0.2260    2.6760 hc        1 11M      0.062700
     42 H14A       -2.2050    0.9230    1.5910 hc        1 11M      0.062700
     43 H30        -5.0510    2.2960   -2.8210 h1        1 11M      0.032200
     44 H30A       -6.7550    2.2550   -2.1960 h1        1 11M      0.032200
     45 HN64       -5.7250    4.2400   -1.5070 hn        1 11M      0.352300
     46 HN6A       -5.6520    3.3340   -0.1510 hn        1 11M      0.352300
     47 H25         5.0280    4.0280   -1.8260 ha        1 11M      0.132000
     48 H27         1.6190    3.0900    0.6810 ha        1 11M      0.161000
     49 H29         5.4540   -2.9870    0.2760 h1        1 11M      0.075033
     50 H29A        4.4970   -3.2630   -1.2320 h1        1 11M      0.075033
     51 H29B        6.3080   -3.2990   -1.2910 h1        1 11M      0.075033
     52 C17         1.0240    0.4310    1.5340 c         1 11M      0.698300
     53 S59         5.5740   -1.1100   -1.2260 ss        1 11M     -0.057700
@<TRIPOS>BOND
     1    1    2 ar  
     2    1   13 ar  
     3    1   28 1   
     4    2    3 ar  
     5    2   29 1   
     6    3   11 ar  
     7    3   19 1   
     8    4    7 1   
     9    4   14 1   
    10    4   30 1   
    11    4   31 1   
    12    5    7 1   
    13    5   15 1   
    14    5   32 1   
    15    5   33 1   
    16    6   16 1   
    17    6   17 1   
    18    6   34 1   
    19    6   35 1   
    20    7   12 1   
    21    7   17 1   
    22    8   23 2   
    23    8   24 1   
    24    8   53 1   
    25    9   23 ar  
    26    9   25 ar  
    27    9   36 1   
    28   10   25 ar  
    29   10   26 ar  
    30   10   37 1   
    31   11   12 ar  
    32   11   38 1   
    33   12   13 ar  
    34   13   14 1   
    35   15   16 1   
    36   15   39 1   
    37   15   40 1   
    38   16   52 1   
    39   17   41 1   
    40   17   42 1   
    41   18   52 2   
    42   19   20 1   
    43   19   43 1   
    44   19   44 1   
    45   20   45 1   
    46   20   46 1   
    47   21   22 2   
    48   21   24 1   
    49   21   52 1   
    50   22   23 ar  
    51   22   26 ar  
    52   25   47 1   
    53   26   48 1   
    54   27   49 1   
    55   27   50 1   
    56   27   51 1   
    57   27   53 1   
@<TRIPOS>SUBSTRUCTURE
     1 11M         1 TEMP              0 ****  ****    0 ROOT
