@<TRIPOS>MOLECULE
11M
   53    49     1     0     0
SMALL
bcc


@<TRIPOS>ATOM
      1 C4          0.1880    0.8460   -5.7490 c1        1 11M     -0.114000
      2 C5          1.5860    0.8640   -5.7800 c1        1 11M     -0.114000
      3 C6          2.3180    0.8470   -4.5780 c1        1 11M     -0.124000
      4 C8         -2.0670    0.7720   -2.7610 c3        1 11M     -0.028000
      5 C10        -0.4460   -0.4530   -1.4150 c3        1 11M     -0.174000
      6 C13        -1.1600    2.0010   -0.0460 c3        1 11M     -0.046500
      7 C15        -0.7240    0.7880   -2.1910 c3        1 11M     -0.023000
      8 C17        -0.4160    0.7630    2.0590 c1        1 11M      0.368000
      9 C22        -1.8260   -0.9350    4.6610 c1        1 11M     -0.647000
     10 C24        -0.5110   -2.9430    5.6610 c1        1 11M     -0.114000
     11 C26         1.5810   -3.5530    4.4160 c1        1 11M     -0.114000
     12 C1          1.6470    0.8110   -3.3500 c1        1 11M     -0.071000
     13 C2          0.2470    0.7920   -3.3170 c1        1 11M     -0.156000
     14 C3         -0.4860    0.8100   -4.5210 c1        1 11M      0.076000
     15 O13        -1.9440    0.7460   -4.1790 os        1 11M     -0.203000
     16 C11        -1.1490   -0.4550   -0.0620 c3        1 11M     -0.046500
     17 N22        -0.8910    0.7700    0.7000 n2        1 11M     -0.306000
     18 C14        -0.4570    2.0230   -1.3980 c3        1 11M     -0.174000
     19 O61        -0.2210    1.8160    2.6400 o         1 11M     -0.340000
     20 C30         3.8280    0.6580   -4.7370 c3        1 11M     -0.035000
     21 N64         4.3980    1.8340   -5.3250 n3        1 11M     -0.350000
     22 C39        -0.2410   -0.5590    2.7980 c2        1 11M     -0.493000
     23 C41         0.2470   -1.7010    3.6050 c1        1 11M     -0.025000
     24 C42        -0.7400   -1.9340    4.7640 c1        1 11M     -0.028000
     25 S44        -1.5420   -0.0550    3.4350 ss        1 11M      0.824000
     26 C25         0.6410   -3.7750    5.5210 c1        1 11M     -0.114000
     27 C27         1.3490   -2.5030    3.4770 c1        1 11M     -0.114000
     28 S59        -3.4640   -0.8900    5.3550 s         1 11M      0.284000
     29 C29        -3.5400    0.3600    6.6150 c3        1 11M     -0.371000
     30 H4         -0.3220    0.8580   -6.5880 ha        1 11M      0.144333
     31 H5          2.0570    0.8900   -6.6420 ha        1 11M      0.144333
     32 H8         -2.5480   -0.0290   -2.4550 h1        1 11M      0.100000
     33 H8A        -2.5560    1.5790   -2.4840 h1        1 11M      0.100000
     34 H10         0.5230   -0.5270   -1.2700 hc        1 11M      0.101000
     35 H10A       -0.7520   -1.2300   -1.9350 hc        1 11M      0.101000
     36 H13        -2.1310    2.0820   -0.1890 h1        1 11M      0.101000
     37 H13A       -0.8510    2.7700    0.4860 h1        1 11M      0.101000
     38 H24        -1.1390   -3.0940    6.4010 ha        1 11M      0.144333
     39 H26         2.3710   -4.1260    4.3230 ha        1 11M      0.144333
     40 H1          2.1590    0.7980   -2.5110 ha        1 11M      0.136000
     41 H11        -0.8340   -1.2270    0.4590 h1        1 11M      0.101000
     42 H11A       -2.1170   -0.5420   -0.2070 h1        1 11M      0.101000
     43 H14        -0.7710    2.8040   -1.9080 hc        1 11M      0.101000
     44 H14A        0.5110    2.1050   -1.2520 hc        1 11M      0.101000
     45 H30         4.2340    0.5030   -3.8550 h1        1 11M      0.071500
     46 H30A        4.0030   -0.1160   -5.3190 h1        1 11M      0.071500
     47 HN64        4.8720    1.6030   -6.0760 hn        1 11M      0.147000
     48 HN6A        4.9590    2.2370   -4.7210 hn        1 11M      0.147000
     49 H25         0.8040   -4.4970    6.1630 ha        1 11M      0.144333
     50 H27         1.9780   -2.3570    2.7410 ha        1 11M      0.144333
     51 H29        -4.3010    0.1820    7.2050 h1        1 11M      0.108333
     52 H29A       -3.6490    1.2420    6.1960 h1        1 11M      0.108333
     53 H29B       -2.7060    0.3470    7.1420 h1        1 11M      0.108333
@<TRIPOS>BOND
     1    1    2 1   
     2    1   30 1   
     3    2   31 1   
     4    3   12 1   
     5    3   20 1   
     6    4    7 1   
     7    4   15 1   
     8    4   32 1   
     9    4   33 1   
    10    5    7 1   
    11    5   16 1   
    12    5   34 1   
    13    5   35 1   
    14    6   17 1   
    15    6   18 1   
    16    6   36 1   
    17    6   37 1   
    18    7   13 1   
    19    7   18 1   
    20    8   19 1   
    21    8   22 1   
    22    9   24 1   
    23    9   25 1   
    24   10   26 1   
    25   10   38 1   
    26   11   27 1   
    27   11   39 1   
    28   12   40 1   
    29   13   14 1   
    30   14   15 1   
    31   16   17 1   
    32   16   41 1   
    33   16   42 1   
    34   18   43 1   
    35   18   44 1   
    36   20   21 1   
    37   20   45 1   
    38   20   46 1   
    39   21   47 1   
    40   21   48 1   
    41   22   23 1   
    42   22   25 1   
    43   23   24 1   
    44   26   49 1   
    45   27   50 1   
    46   28   29 1   
    47   29   51 1   
    48   29   52 1   
    49   29   53 1   
@<TRIPOS>SUBSTRUCTURE
     1 11M         1 TEMP              0 ****  ****    0 ROOT
