@<TRIPOS>MOLECULE
11M
   54    51     1     0     0
SMALL
bcc


@<TRIPOS>ATOM
      1 C4          0.4240    2.5680    1.8210 c1        1 11M     -0.242000
      2 C5          0.7800    3.6160    2.2740 c1        1 11M     -0.137000
      3 C6          2.7110    0.9150    0.2050 c2        1 11M      0.064000
      4 C8         -3.9020    1.4320    3.6990 c3        1 11M     -0.272000
      5 C10        -2.2660   -4.7290    3.9310 c2        1 11M     -0.165000
      6 C13        -0.5010   -2.4460    4.1970 c1        1 11M     -0.066000
      7 C15         0.4120   -0.7050    2.6150 c1        1 11M     -0.147000
      8 C22        -3.4740   -3.7920    8.9570 c2        1 11M     -0.531000
      9 C24        -3.2640   -2.2730   15.6510 c1        1 11M      0.389500
     10 C26        -2.7820   -2.5260   13.1340 c1        1 11M      0.389500
     11 C1          2.1450    0.0290    1.1380 c2        1 11M     -0.318000
     12 C2          0.8810    0.1740    1.6900 c2        1 11M      0.151000
     13 C3         -0.0410    1.3120    1.2710 c3        1 11M      0.172000
     14 O13        -1.3940    1.0550    1.5990 oh        1 11M     -0.299000
     15 C11        -1.5430   -4.4090    5.0130 c2        1 11M     -0.114000
     16 N22        -0.8640   -3.1650    5.2000 n         1 11M     -0.026000
     17 C14        -0.0180   -1.5200    3.4500 c1        1 11M      0.038000
     18 O61         0.4850   -2.1250    6.7650 o         1 11M     -0.255000
     19 C30         3.9600    0.7110   -0.3130 c2        1 11M     -0.423000
     20 N64         4.5750    1.6010   -1.2690 n4        1 11M      0.029000
     21 C39        -1.5390   -3.0800    7.5980 c2        1 11M     -0.523000
     22 C41        -1.3980   -2.7050    8.9440 c2        1 11M      0.051000
     23 C42        -2.5140   -3.1170    9.7160 c2        1 11M     -0.191000
     24 S44        -2.9870   -3.9050    7.3610 ss        1 11M      0.603000
     25 C25        -3.0220   -2.3990   14.3880 c1        1 11M     -0.775000
     26 C27        -0.2520   -1.9760    9.5030 c3        1 11M     -0.187000
     27 C29        -5.7640   -5.0840    8.3780 c3        1 11M     -0.413000
     28 H4         -0.0580    1.3600    0.1370 h1        1 11M      0.143000
     29 H5          1.0900    4.5470    2.6820 ha        1 11M      0.236000
     30 H8         -1.4950    1.1160    2.5600 ho        1 11M      0.219000
     31 H8A        -3.7030    1.3150    2.6100 hc        1 11M      0.068500
     32 H10        -2.7420   -5.7170    3.8540 ha        1 11M      0.148000
     33 H10A       -4.5570    0.6040    4.0470 hc        1 11M      0.068500
     34 H13        -4.4090    2.4050    3.8800 hc        1 11M      0.068500
     35 H13A        2.4620   -0.9470    7.6400 ha        1 11M      0.001000
     36 H24        -2.6000   -2.9200   10.7940 ha        1 11M      0.200000
     37 H26        -0.3810   -1.8000   10.5990 hc        1 11M      0.108000
     38 H1          2.7520   -0.8350    1.4570 ha        1 11M      0.151000
     39 H11        -1.3740   -5.1130    5.8540 h4        1 11M      0.176000
     40 H11A       -2.4200   -4.0540    3.0770 ha        1 11M      0.148000
     41 H14        -2.9430    1.4050    4.2600 hc        1 11M      0.068500
     42 H14A        2.0850   -1.0300    8.1970 ha        1 11M      0.001000
     43 H30         2.1170    1.7990   -0.1000 ha        1 11M      0.123000
     44 H30A        4.5970   -0.1450   -0.0420 hx        1 11M      0.192000
     45 HN64        4.7880    1.0850   -2.1300 hn        1 11M      0.236333
     46 HN6A        3.9570    2.3850   -1.4960 hn        1 11M      0.236333
     47 H25         0.6940   -2.5540    9.3320 hc        1 11M      0.108000
     48 H27        -0.1330   -0.9890    8.9840 hc        1 11M      0.108000
     49 H29        -6.7090   -5.4510    8.8500 h1        1 11M      0.121333
     50 H29A       -6.0290   -4.3580    7.5750 h1        1 11M      0.121333
     51 H29B       -5.2420   -5.9510    7.9130 h1        1 11M      0.121333
     52 C17        -0.5660   -2.7460    6.5900 c2        1 11M      0.379000
     53 H643        5.4500    1.9690   -0.8810 hn        1 11M      0.236333
     54 S59        -4.8530   -4.3590    9.6770 ss        1 11M      0.408000
@<TRIPOS>BOND
     1    1    2 1   
     2    1   13 1   
     3    2   29 1   
     4    3   11 1   
     5    3   19 1   
     6    3   43 1   
     7    4   31 1   
     8    4   33 1   
     9    4   34 1   
    10    4   41 1   
    11    5   15 1   
    12    5   32 1   
    13    5   40 1   
    14    6   16 1   
    15    6   17 1   
    16    7   12 1   
    17    7   17 1   
    18    8   23 1   
    19    8   24 1   
    20    8   54 1   
    21    9   25 1   
    22   10   25 1   
    23   11   12 1   
    24   11   38 1   
    25   12   13 1   
    26   13   14 1   
    27   13   28 1   
    28   14   30 1   
    29   15   16 1   
    30   15   39 1   
    31   16   52 1   
    32   18   52 1   
    33   19   20 1   
    34   19   44 1   
    35   20   45 1   
    36   20   46 1   
    37   20   53 1   
    38   21   22 1   
    39   21   24 1   
    40   21   52 1   
    41   22   23 1   
    42   22   26 1   
    43   23   36 1   
    44   26   37 1   
    45   26   47 1   
    46   26   48 1   
    47   27   49 1   
    48   27   50 1   
    49   27   51 1   
    50   27   54 1   
    51   35   42 1   
@<TRIPOS>SUBSTRUCTURE
     1 11M         1 TEMP              0 ****  ****    0 ROOT
