@<TRIPOS>MOLECULE
11N
   51    52     1     0     0
SMALL
bcc


@<TRIPOS>ATOM
      1 C4         -0.1080    1.3210    0.2030 c2        1 11N     -0.244000
      2 C5          1.2340    2.0250    0.3320 c3        1 11N      0.073000
      3 C6          1.9460    1.2530    1.3440 c1        1 11N     -0.384000
      4 C7         -1.8890   -0.2760    0.7790 c2        1 11N      0.089000
      5 C8         -1.0700   -1.2110    3.9720 c3        1 11N     -0.087000
      6 C10        -2.0180   -1.6690    0.7570 c2        1 11N     -0.512000
      7 C13        -4.3150   -0.0030    0.2620 c3        1 11N      0.005000
      8 C15         1.9800    2.0060   -1.0100 c3        1 11N     -0.130000
      9 C20        -7.1230   -3.5420   -1.5930 c2        1 11N      0.116000
     10 C22        -9.3480   -4.5890   -1.7660 c3        1 11N     -0.020000
     11 C24       -11.5600   -4.7520   -0.3340 c1        1 11N     -0.186000
     12 C26        -8.8050   -3.2670    0.2470 c2        1 11N     -0.003000
     13 C1          1.4780    0.3890    2.0720 c1        1 11N     -0.021000
     14 C2          0.2210   -0.3440    2.1730 c3        1 11N      0.171000
     15 C3         -0.5660    0.3220    0.9930 c2        1 11N      0.017000
     16 O15        -0.4130   -0.0790    3.4080 os        1 11N     -0.240000
     17 C11        -3.3650   -2.2170    0.8350 c3        1 11N      0.005000
     18 N22        -4.2910   -1.4540   -0.1200 n4        1 11N     -0.077000
     19 C14        -2.9740    0.5420    0.5800 c2        1 11N     -0.512000
     20 N33         3.4480    2.1720   -0.7980 n4        1 11N     -0.064000
     21 O37        -6.3600   -1.7940    0.8690 o         1 11N     -0.353000
     22 C19        -5.9740   -2.8560   -1.2730 c2        1 11N     -0.420000
     23 C41        -8.3610   -3.7460   -0.9940 c2        1 11N     -0.307000
     24 C23       -10.5750   -4.7130   -1.0330 c1        1 11N     -0.089000
     25 C25        -9.9730   -3.4520    0.8280 c1        1 11N     -0.065000
     26 H4         -0.7450    1.7180   -0.6020 ha        1 11N      0.160000
     27 H6          1.0730    3.0880    0.6680 hc        1 11N      0.137000
     28 H8         -1.8050   -1.6390    3.2440 h1        1 11N      0.093333
     29 H8A        -1.5890   -0.7900    4.8700 h1        1 11N      0.093333
     30 H10        -0.3180   -1.9800    4.2740 h1        1 11N      0.093333
     31 H10A       -1.1790   -2.3480    0.6290 ha        1 11N      0.128500
     32 H13        -3.8780   -1.5200   -1.0530 hn        1 11N      0.224000
     33 H13A       -4.7680    0.5500   -0.6110 hx        1 11N      0.099750
     34 H15         1.6150    2.8370   -1.6760 hx        1 11N      0.149000
     35 H15A        1.8130    1.0170   -1.5250 hx        1 11N      0.149000
     36 H20        -7.0380   -4.0620   -2.5790 ha        1 11N      0.123000
     37 H26        -8.1090   -2.6380    0.8720 ha        1 11N      0.265000
     38 H1          0.3270   -1.4460    1.9730 h1        1 11N      0.143000
     39 H11        -3.8440   -2.0720    1.8470 hx        1 11N      0.099750
     40 H11A       -3.4070   -3.3040    0.5540 hx        1 11N      0.099750
     41 H14        -5.0060    0.1110    1.1490 hx        1 11N      0.099750
     42 H14A       -2.9350    1.6260    0.7140 ha        1 11N      0.128500
     43 HN33        3.6570    3.1320   -0.5130 hn        1 11N      0.258333
     44 HN3A        3.7410    1.5400   -0.0310 hn        1 11N      0.258333
     45 H19        -5.1690   -2.9460   -2.0270 ha        1 11N      0.132000
     46 H23        -8.9140   -5.6120   -1.9530 hc        1 11N      0.120000
     47 H25       -10.7710   -3.4130    1.5350 ha        1 11N      0.241000
     48 C17        -5.6720   -2.0600   -0.1320 c2        1 11N      0.316000
     49 H22        -9.5530   -4.1170   -2.7690 hc        1 11N      0.120000
     50 H333        3.9630    1.9490   -1.6510 hn        1 11N      0.258333
     51 H24       -12.4730   -4.8480    0.2050 ha        1 11N      0.245000
@<TRIPOS>BOND
     1    1    2 1   
     2    1   15 1   
     3    1   26 1   
     4    2    3 1   
     5    2    8 1   
     6    2   27 1   
     7    3   13 1   
     8    4    6 1   
     9    4   15 1   
    10    4   19 1   
    11    5   16 1   
    12    5   28 1   
    13    5   29 1   
    14    5   30 1   
    15    6   17 1   
    16    6   31 1   
    17    7   18 1   
    18    7   19 1   
    19    7   33 1   
    20    7   41 1   
    21    8   20 1   
    22    8   34 1   
    23    8   35 1   
    24    9   22 1   
    25    9   23 1   
    26    9   36 1   
    27   10   23 1   
    28   10   24 1   
    29   10   46 1   
    30   10   49 1   
    31   11   24 1   
    32   11   51 1   
    33   12   23 1   
    34   12   25 1   
    35   12   37 1   
    36   13   14 1   
    37   14   15 1   
    38   14   16 1   
    39   14   38 1   
    40   17   18 1   
    41   17   39 1   
    42   17   40 1   
    43   18   32 1   
    44   18   48 1   
    45   19   42 1   
    46   20   43 1   
    47   20   44 1   
    48   20   50 1   
    49   21   48 1   
    50   22   45 1   
    51   22   48 1   
    52   25   47 1   
@<TRIPOS>SUBSTRUCTURE
     1 11N         1 TEMP              0 ****  ****    0 ROOT
