@<TRIPOS>MOLECULE
11N
   51    53     1     0     0
SMALL
bcc


@<TRIPOS>ATOM
      1 C4         -0.6150   -1.5380    0.3370 c2        1 11N      0.038000
      2 C5          0.8530   -1.7340    0.4300 c3        1 11N     -0.157000
      3 C6          1.5500   -0.9040    1.4410 c2        1 11N      0.048000
      4 C7         -2.6960   -0.2660    1.2720 c3        1 11N     -0.024000
      5 C8         -2.6540    0.8350    2.3650 c3        1 11N     -0.038000
      6 C10        -3.5440   -1.4520    1.7210 c3        1 11N     -0.181500
      7 C13        -4.7210    0.5610   -0.0030 c3        1 11N     -0.039000
      8 C15         1.5100   -1.5360   -0.9760 c3        1 11N     -0.029000
      9 C20        -8.1050   -2.5740    0.6340 c2        1 11N     -0.046000
     10 C22       -10.0520   -1.4580    1.6110 c2        1 11N     -0.159000
     11 C24        -4.8360   -3.3200   -3.3110 c3        1 11N     -0.200000
     12 C26        -2.6670   -2.9030   -1.7510 c1        1 11N      0.181000
     13 C1          0.9180   -0.0130    2.2540 c2        1 11N     -0.215000
     14 C2         -0.4890    0.1260    2.1040 c2        1 11N      0.302000
     15 C3         -1.2420   -0.6590    1.1530 c2        1 11N     -0.224000
     16 O15        -1.2460    0.9730    2.8050 os        1 11N     -0.121000
     17 C11        -5.0410   -1.1220    1.7120 c3        1 11N     -0.039000
     18 N22        -5.5060   -0.5590    0.4670 n         1 11N     -0.313000
     19 C14        -3.2160    0.2860   -0.0510 c3        1 11N     -0.181500
     20 N33         1.3980   -0.1850   -1.4300 n3        1 11N     -0.395000
     21 O37        -6.2700   -0.9920   -1.6540 o         1 11N     -0.365000
     22 C19        -6.9150   -2.5590    0.0220 c2        1 11N     -0.239000
     23 C41        -8.8760   -1.3970    0.9810 c2        1 11N     -0.177000
     24 C23        -4.9180   -4.2410   -2.1850 c1        1 11N      0.325000
     25 C25        -3.7520   -3.3370   -2.2610 c2        1 11N     -0.664000
     26 H4         -1.1690   -2.1320   -0.4270 ha        1 11N      0.223000
     27 H6          1.0310   -2.8250    0.7010 hc        1 11N      0.182000
     28 H8         -2.9380    1.8480    1.9860 h1        1 11N      0.146000
     29 H8A        -3.2180    0.5660    3.2920 h1        1 11N      0.146000
     30 H10        -3.2550   -1.7670    2.7560 hc        1 11N      0.106000
     31 H10A       -3.3400   -2.3130    1.0290 hc        1 11N      0.106000
     32 H13        -2.9930   -0.4640   -0.8590 hc        1 11N      0.106000
     33 H13A       -5.0700    0.8580   -1.0340 h1        1 11N      0.112750
     34 H15         1.0010   -2.2690   -1.6650 h1        1 11N      0.104000
     35 H15A        2.5890   -1.8450   -0.8700 h1        1 11N      0.104000
     36 H20        -8.5620   -3.5470    0.8970 ha        1 11N      0.140000
     37 H26        -8.4440   -0.4250    0.6810 ha        1 11N      0.135000
     38 H1          1.4490    0.6010    3.0000 ha        1 11N      0.197000
     39 H11        -5.2490   -0.3670    2.5250 h1        1 11N      0.112750
     40 H11A       -5.6190   -2.0590    1.9550 h1        1 11N      0.112750
     41 H14        -4.9130    1.4250    0.6960 h1        1 11N      0.112750
     42 H14A       -2.6860    1.2390   -0.3100 hc        1 11N      0.106000
     43 HN33        0.7260   -0.0700   -2.1570 hn        1 11N      0.184000
     44 HN3A        2.6460   -1.0380    1.5080 ha        1 11N      0.175000
     45 H19        -6.3890   -3.4920   -0.2490 ha        1 11N      0.158000
     46 H23       -10.6270   -0.5550    1.8570 ha        1 11N      0.124500
     47 H25        -5.4880   -2.4120   -3.3400 hc        1 11N      0.185000
     48 C17        -6.2200   -1.3380   -0.4560 c2        1 11N      0.339000
     49 H22       -10.5180   -2.4050    1.9180 ha        1 11N      0.124500
     50 H333        2.2740    0.2180   -1.6830 hn        1 11N      0.184000
     51 H24        -4.5690   -3.6620   -4.3330 hc        1 11N      0.185000
@<TRIPOS>BOND
     1    1    2 1   
     2    1   15 1   
     3    1   26 1   
     4    2    3 1   
     5    2    8 1   
     6    2   27 1   
     7    3   13 1   
     8    3   44 1   
     9    4    5 1   
    10    4    6 1   
    11    4   15 1   
    12    4   19 1   
    13    5   16 1   
    14    5   28 1   
    15    5   29 1   
    16    6   17 1   
    17    6   30 1   
    18    6   31 1   
    19    7   18 1   
    20    7   19 1   
    21    7   33 1   
    22    7   41 1   
    23    8   20 1   
    24    8   34 1   
    25    8   35 1   
    26    9   22 1   
    27    9   23 1   
    28    9   36 1   
    29   10   23 1   
    30   10   46 1   
    31   10   49 1   
    32   11   24 1   
    33   11   25 1   
    34   11   47 1   
    35   11   51 1   
    36   12   25 1   
    37   13   14 1   
    38   13   38 1   
    39   14   15 1   
    40   14   16 1   
    41   17   18 1   
    42   17   39 1   
    43   17   40 1   
    44   18   48 1   
    45   19   32 1   
    46   19   42 1   
    47   20   43 1   
    48   20   50 1   
    49   21   48 1   
    50   22   45 1   
    51   22   48 1   
    52   23   37 1   
    53   24   25 1   
@<TRIPOS>SUBSTRUCTURE
     1 11N         1 TEMP              0 ****  ****    0 ROOT
