@<TRIPOS>MOLECULE
11N
   50    53     1     0     0
SMALL
bcc


@<TRIPOS>ATOM
      1 C4         -3.3190    1.0270   -0.3060 ca        1 11N     -0.054000
      2 C5         -4.5430    1.7130   -0.1970 ca        1 11N     -0.131300
      3 C6         -5.5930    1.1780    0.5530 ca        1 11N     -0.093000
      4 C7         -2.0180   -1.1430    0.4190 c3        1 11N     -0.014700
      5 C8         -2.5950   -2.2730    1.3200 c3        1 11N      0.122400
      6 C10        -0.8070   -0.4820    1.0650 c3        1 11N     -0.093900
      7 C13        -0.3970   -2.5460   -0.9270 c3        1 11N      0.080000
      8 C15        -4.7090    3.0470   -0.8650 c3        1 11N      0.209100
      9 C20         3.6580    0.1360   -0.8710 ce        1 11N     -0.037200
     10 C22         5.6660    1.5380   -1.1140 ca        1 11N     -0.108500
     11 C24         7.0500    2.1070    0.7830 ca        1 11N     -0.117000
     12 C26         5.0870    0.7310    1.0910 ca        1 11N     -0.108500
     13 C1         -5.4680   -0.0460    1.2210 ca        1 11N     -0.156000
     14 C2         -4.2540   -0.7080    1.1010 ca        1 11N      0.122100
     15 C3         -3.1770   -0.1840    0.3430 ca        1 11N     -0.164300
     16 O15        -3.9580   -1.9250    1.6910 os        1 11N     -0.320900
     17 C11         0.4240   -1.3920    1.0470 c3        1 11N      0.080000
     18 N22         0.7360   -1.9470   -0.2500 n         1 11N     -0.454800
     19 C14        -1.6480   -1.6680   -0.9630 c3        1 11N     -0.093900
     20 N33        -4.3040    3.0590   -2.2520 n3        1 11N     -0.917800
     21 O37         1.8540   -1.6730   -2.2390 o         1 11N     -0.600100
     22 C19         2.9650   -0.8570   -0.2950 cf        1 11N     -0.230200
     23 C41         4.8090    0.7990   -0.2820 ca        1 11N     -0.076800
     24 C23         6.7800    2.1830   -0.5840 ca        1 11N     -0.133000
     25 C25         6.2010    1.3820    1.6180 ca        1 11N     -0.133000
     26 H4         -2.4960    1.4540   -0.9000 ha        1 11N      0.153000
     27 H6         -6.5450    1.7260    0.6280 ha        1 11N      0.133000
     28 H8         -2.6600   -3.2520    0.7840 h1        1 11N      0.061200
     29 H8A        -2.0320   -2.3820    2.2800 h1        1 11N      0.061200
     30 H10        -0.5860    0.4720    0.5180 hc        1 11N      0.060950
     31 H10A       -1.0360   -0.2190    2.1300 hc        1 11N      0.060950
     32 H13        -0.1060   -2.8070   -1.9840 h1        1 11N      0.059700
     33 H13A       -0.6390   -3.5020   -0.3800 h1        1 11N      0.059700
     34 H15        -5.7810    3.3860   -0.7300 h1        1 11N      0.031700
     35 H15A       -4.0590    3.7970   -0.3240 h1        1 11N      0.031700
     36 H20         3.3670    0.4940   -1.8780 ha        1 11N      0.147000
     37 H24         7.9290    2.6190    1.2000 ha        1 11N      0.134000
     38 H26         4.4210    0.1660    1.7600 ha        1 11N      0.134500
     39 H1         -6.2910   -0.4650    1.8120 ha        1 11N      0.151000
     40 H11         1.2990   -0.8080    1.4470 h1        1 11N      0.059700
     41 H11A        0.2400   -2.2610    1.7440 h1        1 11N      0.059700
     42 H14        -2.4940   -2.2720   -1.3810 hc        1 11N      0.060950
     43 H14A       -1.4830   -0.7940   -1.6470 hc        1 11N      0.060950
     44 HN33       -4.6650    2.2670   -2.7440 hn        1 11N      0.352300
     45 HN3A       -4.6210    3.8980   -2.6970 hn        1 11N      0.352300
     46 H19         3.2360   -1.2850    0.6820 ha        1 11N      0.143000
     47 H23         7.4480    2.7550   -1.2450 ha        1 11N      0.134500
     48 H25         6.4090    1.3230    2.6960 ha        1 11N      0.134500
     49 C17         1.8190   -1.4850   -1.0050 c         1 11N      0.654300
     50 H22         5.4570    1.6000   -2.1930 ha        1 11N      0.134500
@<TRIPOS>BOND
     1    1    2 ar  
     2    1   15 ar  
     3    1   26 1   
     4    2    3 ar  
     5    2    8 1   
     6    3   13 ar  
     7    3   27 1   
     8    4    5 1   
     9    4    6 1   
    10    4   15 1   
    11    4   19 1   
    12    5   16 1   
    13    5   28 1   
    14    5   29 1   
    15    6   17 1   
    16    6   30 1   
    17    6   31 1   
    18    7   18 1   
    19    7   19 1   
    20    7   32 1   
    21    7   33 1   
    22    8   20 1   
    23    8   34 1   
    24    8   35 1   
    25    9   22 2   
    26    9   23 1   
    27    9   36 1   
    28   10   23 ar  
    29   10   24 ar  
    30   10   50 1   
    31   11   24 ar  
    32   11   25 ar  
    33   11   37 1   
    34   12   23 ar  
    35   12   25 ar  
    36   12   38 1   
    37   13   14 ar  
    38   13   39 1   
    39   14   15 ar  
    40   14   16 1   
    41   17   18 1   
    42   17   40 1   
    43   17   41 1   
    44   18   49 1   
    45   19   42 1   
    46   19   43 1   
    47   20   44 1   
    48   20   45 1   
    49   21   49 2   
    50   22   46 1   
    51   22   49 1   
    52   24   47 1   
    53   25   48 1   
@<TRIPOS>SUBSTRUCTURE
     1 11N         1 TEMP              0 ****  ****    0 ROOT
