@<TRIPOS>MOLECULE
11N
   51    51     1     0     0
SMALL
bcc


@<TRIPOS>ATOM
      1 C4         -0.5020    0.5310    0.2960 c2        1 11N     -0.231200
      2 C5          0.9330    0.7540    0.7580 c3        1 11N      0.081600
      3 C6          1.0780   -0.1620    1.8780 c1        1 11N     -0.320100
      4 C7         -2.8070   -0.2980    0.3820 ce        1 11N     -0.125200
      5 C8         -2.1060    0.2370    3.8370 c3        1 11N      0.103700
      6 C10        -3.6460   -1.3190    0.6440 c2        1 11N     -0.109200
      7 C13        -4.7720    0.8970   -0.6210 c3        1 11N      0.084000
      8 C15         1.9180    0.4320   -0.3730 c3        1 11N      0.106800
      9 C20        -7.5680   -2.4010   -1.3880 c1        1 11N     -0.160100
     10 C22        -9.4790   -3.0700    0.2960 c3        1 11N      0.076800
     11 C24        -8.6510   -4.3920    2.4160 c1        1 11N     -0.130500
     12 C26        -5.2440   -5.0230   -0.9120 c1        1 11N     -0.166000
     13 C1          0.2040   -0.8110    2.4330 c1        1 11N     -0.031100
     14 C2         -1.1770   -1.1660    2.1380 c3        1 11N      0.254400
     15 C3         -1.4410   -0.2410    0.8990 ce        1 11N     -0.028200
     16 O15        -2.1060   -1.0240    3.1780 os        1 11N     -0.375600
     17 C11        -5.0450   -1.4020    0.1160 c3        1 11N      0.111200
     18 N22        -5.3840   -0.3910   -0.8550 n         1 11N     -0.466800
     19 C14        -3.2470    0.8380   -0.4840 c3        1 11N     -0.066200
     20 N33         3.2790    0.1490    0.1670 nz        1 11N     -0.834600
     21 O37        -5.9340    0.1730   -3.0010 o         1 11N     -0.591100
     22 C19        -6.5770   -2.0440   -2.3530 c3        1 11N     -0.064300
     23 C41        -8.4300   -2.7090   -0.6160 c1        1 11N     -0.093100
     24 C23        -9.0120   -3.7900    1.4480 c1        1 11N     -0.154100
     25 C25        -4.1990   -5.5780   -1.0820 c1        1 11N     -0.166000
     26 H4         -0.7500    1.1120   -0.6080 ha        1 11N      0.161000
     27 H6          1.0550    1.8280    1.0810 hc        1 11N      0.103700
     28 H8         -1.1100    0.4260    4.3090 h1        1 11N      0.054033
     29 H8A        -2.9020    0.1270    4.6170 h1        1 11N      0.054033
     30 H10        -2.3630    1.0530    3.1190 h1        1 11N      0.054033
     31 H10A       -3.3720   -2.1610    1.3010 ha        1 11N      0.147000
     32 H13        -2.7840    0.7280   -1.5010 hc        1 11N      0.056700
     33 H13A       -5.0380    1.5990   -1.4630 h1        1 11N      0.076200
     34 H15         1.9870    1.2980   -1.0910 hx        1 11N      0.115200
     35 H15A        1.5710   -0.4840   -0.9340 hx        1 11N      0.115200
     36 H20        -7.0500   -1.9930   -3.3770 hc        1 11N      0.096200
     37 H26        -6.1860   -4.5510   -0.7620 ha        1 11N      0.166500
     38 H1         -1.2780   -2.2480    1.8240 h1        1 11N      0.121700
     39 H11        -5.7460   -1.2970    1.0010 h1        1 11N      0.080700
     40 H11A       -5.2000   -2.4360   -0.3150 h1        1 11N      0.080700
     41 H14        -5.2060    1.3100    0.3360 h1        1 11N      0.076200
     42 H14A       -2.9010    1.8130   -0.0500 hc        1 11N      0.056700
     43 HN33        3.7010    1.0080    0.5320 hn        1 11N      0.466800
     44 HN3A        3.1940   -0.5230    0.9490 hn        1 11N      0.466800
     45 H19        -5.7690   -2.8300   -2.3930 hc        1 11N      0.096200
     46 H23       -10.2420   -3.7020   -0.2530 hc        1 11N      0.089700
     47 H25        -3.2780   -6.0810   -1.2380 ha        1 11N      0.166500
     48 C17        -5.9350   -0.6860   -2.0990 c         1 11N      0.667100
     49 H22       -10.0110   -2.1290    0.6340 hc        1 11N      0.089700
     50 H333        3.8800   -0.2420   -0.5620 hn        1 11N      0.466800
     51 H24        -8.3420   -4.9310    3.2760 ha        1 11N      0.170500
@<TRIPOS>BOND
     1    1    2 1   
     2    1   15 2   
     3    1   26 1   
     4    2    3 1   
     5    2    8 1   
     6    2   27 1   
     7    3   13 3   
     8    4    6 2   
     9    4   15 1   
    10    4   19 1   
    11    5   16 1   
    12    5   28 1   
    13    5   29 1   
    14    5   30 1   
    15    6   17 1   
    16    6   31 1   
    17    7   18 1   
    18    7   19 1   
    19    7   33 1   
    20    7   41 1   
    21    8   20 1   
    22    8   34 1   
    23    8   35 1   
    24    9   22 1   
    25    9   23 3   
    26   10   23 1   
    27   10   24 1   
    28   10   46 1   
    29   10   49 1   
    30   11   24 3   
    31   11   51 1   
    32   12   25 3   
    33   12   37 1   
    34   13   14 1   
    35   14   15 1   
    36   14   16 1   
    37   14   38 1   
    38   17   18 1   
    39   17   39 1   
    40   17   40 1   
    41   18   48 1   
    42   19   32 1   
    43   19   42 1   
    44   20   43 1   
    45   20   44 1   
    46   20   50 1   
    47   21   48 2   
    48   22   36 1   
    49   22   45 1   
    50   22   48 1   
    51   25   47 1   
@<TRIPOS>SUBSTRUCTURE
     1 11N         1 TEMP              0 ****  ****    0 ROOT
