@<TRIPOS>MOLECULE
11N
   50    45     1     0     0
SMALL
bcc


@<TRIPOS>ATOM
      1 C4          2.9790    1.2140   -0.6260 c1        1 11N     -0.066000
      2 C5          4.3500    1.4970   -0.7310 c1        1 11N     -0.160000
      3 C6          5.0800    1.8840    0.4120 c1        1 11N     -0.123167
      4 C7          0.9080    1.1750    1.0120 c3        1 11N     -0.023000
      5 C8          0.7900    1.6000    2.4070 c3        1 11N     -0.028000
      6 C10         0.8660    0.0120    1.7130 c3        1 11N     -0.169500
      7 C13        -1.4430    1.3520    0.6740 c3        1 11N     -0.030500
      8 C15         5.0790    1.2570   -2.0540 c3        1 11N     -0.044000
      9 C17        -1.6900   -0.8540   -0.9250 c1        1 11N      0.341000
     10 C20        -2.2540   -3.2760   -1.2380 c1        1 11N     -0.067000
     11 C22        -4.4300   -2.4830   -2.2710 c1        1 11N     -0.123167
     12 C24        -6.4650   -2.3620   -0.9850 c1        1 11N     -0.123167
     13 C26        -4.4100   -3.0410    0.0740 c1        1 11N     -0.115000
     14 C1          4.4380    1.9880    1.6510 c1        1 11N     -0.123167
     15 C2          3.0680    1.7060    1.7580 c1        1 11N      0.077000
     16 C3          2.3350    1.3180    0.6140 c1        1 11N     -0.153000
     17 O15         2.1000    1.8720    2.8970 os        1 11N     -0.203000
     18 C11        -0.4810   -0.6870    1.5260 c3        1 11N     -0.030500
     19 N22        -1.2630   -0.1580    0.2630 n2        1 11N     -0.319000
     20 C14        -0.1050    2.0710    0.8540 c3        1 11N     -0.169500
     21 N33         6.0280    2.3030   -2.2710 n3        1 11N     -0.333000
     22 O37        -2.2910   -0.2540   -1.7990 o         1 11N     -0.367000
     23 C19        -1.2900   -2.3080   -1.1370 c2        1 11N     -0.200000
     24 C41        -3.7370   -2.8960   -1.1350 c1        1 11N     -0.071000
     25 C23        -5.7920   -2.2160   -2.1960 c1        1 11N     -0.123167
     26 C25        -5.7740   -2.7740    0.1490 c1        1 11N     -0.123167
     27 H4          2.4710    0.9450   -1.4220 ha        1 11N      0.138000
     28 H6          6.0400    2.0820    0.3380 ha        1 11N      0.141167
     29 H8          0.3790    0.8850    2.9380 h1        1 11N      0.102000
     30 H8A         0.2410    2.4090    2.4620 h1        1 11N      0.102000
     31 H10         1.0000    0.2050    2.6670 hc        1 11N      0.098250
     32 H10A        1.5850   -0.5810    1.3990 hc        1 11N      0.098250
     33 H13        -1.9430    1.3940    1.5190 h1        1 11N      0.100000
     34 H13A       -1.9600    1.8130   -0.0260 h1        1 11N      0.100000
     35 H15         4.4290    1.2470   -2.7880 h1        1 11N      0.097000
     36 H15A        5.5460    0.3930   -2.0180 h1        1 11N      0.097000
     37 H20        -1.9970   -4.2110   -1.3740 ha        1 11N      0.131000
     38 H22        -3.9570   -2.3800   -3.1220 ha        1 11N      0.141167
     39 H24        -7.4280   -2.1730   -0.9330 ha        1 11N      0.141167
     40 H26        -3.9220   -3.3330    0.8760 ha        1 11N      0.130000
     41 H1          4.9470    2.2580    2.4470 ha        1 11N      0.141167
     42 H11        -1.0330   -0.5370    2.3300 h1        1 11N      0.100000
     43 H11A       -0.3260   -1.6520    1.4220 h1        1 11N      0.100000
     44 H14        -0.1520    2.6470    1.6450 hc        1 11N      0.098250
     45 H14A        0.0740    2.6250    0.0600 hc        1 11N      0.098250
     46 HN33        5.6030    3.1140   -2.2290 hn        1 11N      0.142500
     47 HN3A        6.6780    2.2650   -1.6260 hn        1 11N      0.142500
     48 H19        -0.3440   -2.5510   -1.2030 ha        1 11N      0.148000
     49 H23        -6.2810   -1.9240   -2.9980 ha        1 11N      0.141167
     50 H25        -6.2490   -2.8770    1.0030 ha        1 11N      0.141167
@<TRIPOS>BOND
     1    1    2 1   
     2    1   27 1   
     3    2    8 1   
     4    3   14 1   
     5    3   28 1   
     6    4    5 1   
     7    4    6 1   
     8    4   16 1   
     9    4   20 1   
    10    5   17 1   
    11    5   29 1   
    12    5   30 1   
    13    6   18 1   
    14    6   31 1   
    15    6   32 1   
    16    7   19 1   
    17    7   20 1   
    18    7   33 1   
    19    7   34 1   
    20    8   21 1   
    21    8   35 1   
    22    8   36 1   
    23    9   22 1   
    24    9   23 1   
    25   10   23 1   
    26   10   37 1   
    27   11   25 1   
    28   11   38 1   
    29   12   26 1   
    30   12   39 1   
    31   13   24 1   
    32   13   40 1   
    33   14   41 1   
    34   15   16 1   
    35   15   17 1   
    36   18   19 1   
    37   18   42 1   
    38   18   43 1   
    39   20   44 1   
    40   20   45 1   
    41   21   46 1   
    42   21   47 1   
    43   23   48 1   
    44   25   49 1   
    45   26   50 1   
@<TRIPOS>SUBSTRUCTURE
     1 11N         1 TEMP              0 ****  ****    0 ROOT
