@<TRIPOS>MOLECULE
11O
   53    51     1     0     0
SMALL
bcc


@<TRIPOS>ATOM
      1 C1         -4.6390   -1.6080   -7.9410 c1        1 11O      0.327000
      2 C2         -3.7040   -1.7800   -6.7470 c2        1 11O     -0.223000
      3 C3         -4.2340   -0.9630   -5.5610 c3        1 11O     -0.144000
      4 C4         -3.1030   -0.7490   -4.5410 c3        1 11O     -0.157000
      5 C5         -3.7010   -0.2750   -3.2040 c3        1 11O     -0.158000
      6 C6         -2.5680    0.2000   -2.2740 c3        1 11O     -0.159000
      7 C7         -3.0530    0.1610   -0.8130 c3        1 11O     -0.156000
      8 C8         -1.9260    0.6580    0.1160 c3        1 11O     -0.138000
      9 C9         -1.6000   -0.4280    1.1520 c2        1 11O     -0.135000
     10 C10        -0.7080   -0.1660    2.1650 c1        1 11O     -0.188000
     11 C11        -0.0440    1.1960    2.2610 c2        1 11O      0.076000
     12 C12         0.0630    1.6120    3.7340 cx        1 11O     -0.077000
     13 C13         1.3630    1.4300    4.3470 cx        1 11O     -0.026000
     14 C14         2.4570    0.8440    3.4350 c3        1 11O     -0.162000
     15 C15         3.7090    0.5190    4.2770 c3        1 11O     -0.155000
     16 C16         4.8490    0.0590    3.3480 c3        1 11O     -0.158000
     17 C17         6.1300   -0.1520    4.1730 c3        1 11O     -0.158000
     18 C18         7.2490   -0.6620    3.2580 c3        1 11O     -0.210000
     19 O19        -5.6870   -2.3060   -8.0270 o         1 11O     -0.588000
     20 O20        -4.3340   -0.8100   -8.8710 o         1 11O     -0.588000
     21 O21         1.2310    1.1320    1.7020 oh        1 11O     -0.328000
     22 O22         0.9080    2.7860    4.0040 os        1 11O     -0.282000
     23 H21        -3.6630   -2.7300   -6.4980 ha        1 11O      0.058000
     24 H22        -2.8050   -1.4640   -6.9870 ha        1 11O      0.058000
     25 H31        -4.9740   -1.4480   -5.1330 hc        1 11O      0.083500
     26 H32        -4.5550   -0.0910   -5.8810 hc        1 11O      0.083500
     27 H41        -2.4790   -0.0690   -4.8810 hc        1 11O      0.066000
     28 H42        -2.6220   -1.5950   -4.4030 hc        1 11O      0.066000
     29 H51        -4.3240    0.4690   -3.3690 hc        1 11O      0.076000
     30 H52        -4.1840   -1.0180   -2.7790 hc        1 11O      0.076000
     31 H61        -1.7900   -0.3910   -2.3770 hc        1 11O      0.075000
     32 H62        -2.3140    1.1200   -2.5110 hc        1 11O      0.075000
     33 H71        -3.8410    0.7430   -0.7130 hc        1 11O      0.080500
     34 H72        -3.2930   -0.7600   -0.5720 hc        1 11O      0.080500
     35 H81        -2.2190    1.4750    0.5780 hc        1 11O      0.083000
     36 H82        -1.1250    0.8530   -0.4170 hc        1 11O      0.083000
     37 H91        -2.0290   -1.3090    1.0910 ha        1 11O      0.135000
     38 H101       -0.5000   -0.8610    2.8280 ha        1 11O      0.138000
     39 H111       -0.5820    1.8570    1.7730 h4        1 11O      0.089000
     40 H121       -0.7090    1.4970    4.3300 h1        1 11O      0.132000
     41 H131        1.3550    1.2080    5.3050 h1        1 11O      0.124000
     42 H141        2.1250    0.0220    3.0120 hc        1 11O      0.107500
     43 H142        2.6910    1.4990    2.7410 hc        1 11O      0.107500
     44 H151        3.4980   -0.1990    4.9160 hc        1 11O      0.081000
     45 H152        3.9910    1.3230    4.7690 hc        1 11O      0.081000
     46 H161        5.0100    0.7460    2.6630 hc        1 11O      0.082000
     47 H162        4.5960   -0.7850    2.9130 hc        1 11O      0.082000
     48 H171        6.4020    0.7000    4.5800 hc        1 11O      0.077000
     49 H172        5.9590   -0.8130    4.8810 hc        1 11O      0.077000
     50 H181        7.0190   -1.5590    2.9270 hc        1 11O      0.071333
     51 H182        8.0910   -0.7060    3.7630 hc        1 11O      0.071333
     52 H183        7.3550   -0.0490    2.4970 hc        1 11O      0.071333
     53 H211        1.2580    1.6340    0.9630 ho        1 11O      0.215000
@<TRIPOS>BOND
     1    1   19 1   
     2    1   20 1   
     3    2    3 1   
     4    2   23 1   
     5    2   24 1   
     6    3    4 1   
     7    3   25 1   
     8    3   26 1   
     9    4    5 1   
    10    4   27 1   
    11    4   28 1   
    12    5    6 1   
    13    5   29 1   
    14    5   30 1   
    15    6    7 1   
    16    6   31 1   
    17    6   32 1   
    18    7    8 1   
    19    7   33 1   
    20    7   34 1   
    21    8    9 1   
    22    8   35 1   
    23    8   36 1   
    24    9   10 1   
    25    9   37 1   
    26   10   38 1   
    27   11   12 1   
    28   11   21 1   
    29   11   39 1   
    30   12   13 1   
    31   12   22 1   
    32   12   40 1   
    33   13   14 1   
    34   13   22 1   
    35   13   41 1   
    36   14   15 1   
    37   14   42 1   
    38   14   43 1   
    39   15   16 1   
    40   15   44 1   
    41   15   45 1   
    42   16   17 1   
    43   16   46 1   
    44   16   47 1   
    45   17   18 1   
    46   17   48 1   
    47   17   49 1   
    48   18   50 1   
    49   18   51 1   
    50   18   52 1   
    51   21   53 1   
@<TRIPOS>SUBSTRUCTURE
     1 11O         1 TEMP              0 ****  ****    0 ROOT
