@<TRIPOS>MOLECULE
11O
   53    53     1     0     0
SMALL
bcc


@<TRIPOS>ATOM
      1 C1          2.2900    1.5860   -7.6480 c         1 11O      0.907600
      2 C2          2.0950    0.6500   -6.4420 c3        1 11O     -0.194400
      3 C3          0.8130    0.9590   -5.7090 c3        1 11O     -0.065400
      4 C4          0.7060    0.1880   -4.4100 c3        1 11O     -0.078400
      5 C5         -0.5900    0.4950   -3.6900 c3        1 11O     -0.079400
      6 C6         -0.6850   -0.2540   -2.3770 c3        1 11O     -0.079400
      7 C7         -1.9780    0.0590   -1.6560 c3        1 11O     -0.078400
      8 C8         -2.0590   -0.6780   -0.3340 c3        1 11O     -0.059200
      9 C9         -3.3080   -0.3750    0.4040 c2        1 11O     -0.137200
     10 C10        -3.5130   -0.6400    1.6970 c2        1 11O     -0.221200
     11 C11        -2.5040   -1.2800    2.5960 c3        1 11O      0.184300
     12 C12        -1.5560   -0.2390    3.1610 cx        1 11O      0.033100
     13 C13        -0.7220   -0.5510    4.3560 cx        1 11O      0.072100
     14 C14         0.5870    0.1400    4.5800 c3        1 11O     -0.076400
     15 C15         1.0340    0.0230    6.0230 c3        1 11O     -0.076400
     16 C16         2.3580    0.7240    6.2410 c3        1 11O     -0.080400
     17 C17         2.8120    0.6050    7.6800 c3        1 11O     -0.079400
     18 C18         4.1280    1.3030    7.9040 c3        1 11O     -0.092100
     19 O19         2.0890    2.8250   -7.4890 o         1 11O     -0.852300
     20 O20         2.6610    1.0680   -8.7410 o         1 11O     -0.852300
     21 O21        -3.1330   -2.0140    3.6350 oh        1 11O     -0.596800
     22 O22        -1.9050    0.2670    4.4620 os        1 11O     -0.417600
     23 H21         2.9710    0.7890   -5.7580 hc        1 11O      0.018700
     24 H22         2.0990   -0.4120   -6.7920 hc        1 11O      0.018700
     25 H31        -0.0610    0.7100   -6.3650 hc        1 11O      0.044200
     26 H32         0.7720    2.0630   -5.5080 hc        1 11O      0.044200
     27 H41         1.5730    0.4490   -3.7470 hc        1 11O      0.026200
     28 H42         0.7680   -0.9120   -4.6170 hc        1 11O      0.026200
     29 H51        -1.4580    0.2170   -4.3450 hc        1 11O      0.037700
     30 H52        -0.6600    1.5980   -3.5000 hc        1 11O      0.037700
     31 H61         0.1850    0.0220   -1.7260 hc        1 11O      0.034700
     32 H62        -0.6180   -1.3570   -2.5680 hc        1 11O      0.034700
     33 H71        -2.8490   -0.2300   -2.3020 hc        1 11O      0.041700
     34 H72        -2.0510    1.1630   -1.4760 hc        1 11O      0.041700
     35 H81        -1.1660   -0.4110    0.2950 hc        1 11O      0.048700
     36 H82        -2.0050   -1.7860   -0.5200 hc        1 11O      0.048700
     37 H91        -4.1090    0.0960   -0.1930 ha        1 11O      0.127000
     38 H101       -4.4750   -0.4070    2.1790 ha        1 11O      0.128000
     39 H111       -1.9050   -2.0560    2.0350 h1        1 11O      0.088700
     40 H121       -1.2410    0.5380    2.4380 h1        1 11O      0.104700
     41 H131       -0.8300   -1.5420    4.8450 h1        1 11O      0.098700
     42 H141        0.5010    1.2230    4.2990 hc        1 11O      0.057700
     43 H142        1.3540   -0.3270    3.9060 hc        1 11O      0.057700
     44 H151        1.1300   -1.0590    6.3020 hc        1 11O      0.043700
     45 H152        0.2530    0.4710    6.6920 hc        1 11O      0.043700
     46 H161        2.2590    1.8080    5.9660 hc        1 11O      0.041700
     47 H162        3.1350    0.2810    5.5640 hc        1 11O      0.041700
     48 H171        2.9080   -0.4790    7.9530 hc        1 11O      0.037700
     49 H172        2.0310    1.0470    8.3550 hc        1 11O      0.037700
     50 H181        4.4450    1.2040    8.9700 hc        1 11O      0.032367
     51 H182        4.9240    0.8610    7.2560 hc        1 11O      0.032367
     52 H183        4.0450    2.3900    7.6600 hc        1 11O      0.032367
     53 H211       -3.5500   -1.3740    4.2270 ho        1 11O      0.411000
@<TRIPOS>BOND
     1    1    2 1   
     2    1   19 1   
     3    1   20 1   
     4    2    3 1   
     5    2   23 1   
     6    2   24 1   
     7    3    4 1   
     8    3   25 1   
     9    3   26 1   
    10    4    5 1   
    11    4   27 1   
    12    4   28 1   
    13    5    6 1   
    14    5   29 1   
    15    5   30 1   
    16    6    7 1   
    17    6   31 1   
    18    6   32 1   
    19    7    8 1   
    20    7   33 1   
    21    7   34 1   
    22    8    9 1   
    23    8   35 1   
    24    8   36 1   
    25    9   10 2   
    26    9   37 1   
    27   10   11 1   
    28   10   38 1   
    29   11   12 1   
    30   11   21 1   
    31   11   39 1   
    32   12   13 1   
    33   12   22 1   
    34   12   40 1   
    35   13   14 1   
    36   13   22 1   
    37   13   41 1   
    38   14   15 1   
    39   14   42 1   
    40   14   43 1   
    41   15   16 1   
    42   15   44 1   
    43   15   45 1   
    44   16   17 1   
    45   16   46 1   
    46   16   47 1   
    47   17   18 1   
    48   17   48 1   
    49   17   49 1   
    50   18   50 1   
    51   18   51 1   
    52   18   52 1   
    53   21   53 1   
@<TRIPOS>SUBSTRUCTURE
     1 11O         1 TEMP              0 ****  ****    0 ROOT
