@<TRIPOS>MOLECULE
11O
   53    53     1     0     0
SMALL
bcc


@<TRIPOS>ATOM
      1 C1          1.4120    1.6300   -0.8430 c         1 11O      0.907600
      2 C2          2.2980    0.4770   -0.3380 c3        1 11O     -0.194400
      3 C3          2.8610    0.7780    1.0290 c3        1 11O     -0.065400
      4 C4          3.8920   -0.2480    1.4530 c3        1 11O     -0.078400
      5 C5          4.4400    0.0540    2.8310 c3        1 11O     -0.079400
      6 C6          5.4910   -0.9550    3.2430 c3        1 11O     -0.079400
      7 C7          6.0420   -0.6470    4.6190 c3        1 11O     -0.078400
      8 C8          7.1080   -1.6480    5.0170 c3        1 11O     -0.059200
      9 C9          7.6800   -1.3590    6.3540 c2        1 11O     -0.137200
     10 C10         8.8160   -1.8800    6.8250 c2        1 11O     -0.221200
     11 C11         9.6860   -2.8310    6.0670 c3        1 11O      0.184300
     12 C12        10.6370   -2.0760    5.1590 cx        1 11O      0.033100
     13 C13        11.8410   -2.7550    4.5990 cx        1 11O      0.072100
     14 C14        12.4400   -2.3080    3.3020 c3        1 11O     -0.076400
     15 C15        13.8640   -2.8040    3.1510 c3        1 11O     -0.076400
     16 C16        14.4620   -2.3480    1.8380 c3        1 11O     -0.080400
     17 C17        15.8830   -2.8460    1.6800 c3        1 11O     -0.079400
     18 C18        16.4850   -2.3930    0.3750 c3        1 11O     -0.092100
     19 O19         1.8390    2.8160   -0.7260 o         1 11O     -0.852300
     20 O20         0.3020    1.3310   -1.3710 o         1 11O     -0.852300
     21 O21        10.3940   -3.6920    6.9450 oh        1 11O     -0.596800
     22 O22        11.9460   -1.8360    5.7050 os        1 11O     -0.417600
     23 H21         3.1310    0.3400   -1.0730 hc        1 11O      0.018700
     24 H22         1.7000   -0.4680   -0.3150 hc        1 11O      0.018700
     25 H31         2.0280    0.8030    1.7790 hc        1 11O      0.044200
     26 H32         3.3210    1.8020    1.0110 hc        1 11O      0.044200
     27 H41         3.4310   -1.2710    1.4480 hc        1 11O      0.026200
     28 H42         4.7330   -0.2630    0.7110 hc        1 11O      0.026200
     29 H51         4.8830    1.0850    2.8390 hc        1 11O      0.037700
     30 H52         3.6020    0.0510    3.5770 hc        1 11O      0.037700
     31 H61         6.3260   -0.9520    2.4940 hc        1 11O      0.034700
     32 H62         5.0460   -1.9840    3.2380 hc        1 11O      0.034700
     33 H71         6.4760    0.3880    4.6280 hc        1 11O      0.041700
     34 H72         5.2100   -0.6640    5.3700 hc        1 11O      0.041700
     35 H81         6.6650   -2.6820    5.0260 hc        1 11O      0.048700
     36 H82         7.9230   -1.6510    4.2420 hc        1 11O      0.048700
     37 H91         7.0920   -0.6660    6.9810 ha        1 11O      0.127000
     38 H101        9.1740   -1.6380    7.8380 ha        1 11O      0.128000
     39 H111        9.0590   -3.5320    5.4410 h1        1 11O      0.088700
     40 H121       10.1890   -1.2040    4.6440 h1        1 11O      0.104700
     41 H131       12.0470   -3.8080    4.8840 h1        1 11O      0.098700
     42 H141       11.8080   -2.7070    2.4640 hc        1 11O      0.057700
     43 H142       12.4220   -1.1880    3.2380 hc        1 11O      0.057700
     44 H151       14.4830   -2.4210    4.0040 hc        1 11O      0.043700
     45 H152       13.8810   -3.9240    3.2040 hc        1 11O      0.043700
     46 H161       14.4500   -1.2270    1.7880 hc        1 11O      0.041700
     47 H162       13.8360   -2.7240    0.9870 hc        1 11O      0.041700
     48 H171       16.5080   -2.4700    2.5340 hc        1 11O      0.037700
     49 H172       15.8950   -3.9670    1.7320 hc        1 11O      0.037700
     50 H181       16.5060   -1.2780    0.3160 hc        1 11O      0.032367
     51 H182       15.8900   -2.7780   -0.4880 hc        1 11O      0.032367
     52 H183       17.5320   -2.7710    0.2780 hc        1 11O      0.032367
     53 H211       11.0470   -3.1520    7.4100 ho        1 11O      0.411000
@<TRIPOS>BOND
     1    1    2 1   
     2    1   19 1   
     3    1   20 1   
     4    2    3 1   
     5    2   23 1   
     6    2   24 1   
     7    3    4 1   
     8    3   25 1   
     9    3   26 1   
    10    4    5 1   
    11    4   27 1   
    12    4   28 1   
    13    5    6 1   
    14    5   29 1   
    15    5   30 1   
    16    6    7 1   
    17    6   31 1   
    18    6   32 1   
    19    7    8 1   
    20    7   33 1   
    21    7   34 1   
    22    8    9 1   
    23    8   35 1   
    24    8   36 1   
    25    9   10 2   
    26    9   37 1   
    27   10   11 1   
    28   10   38 1   
    29   11   12 1   
    30   11   21 1   
    31   11   39 1   
    32   12   13 1   
    33   12   22 1   
    34   12   40 1   
    35   13   14 1   
    36   13   22 1   
    37   13   41 1   
    38   14   15 1   
    39   14   42 1   
    40   14   43 1   
    41   15   16 1   
    42   15   44 1   
    43   15   45 1   
    44   16   17 1   
    45   16   46 1   
    46   16   47 1   
    47   17   18 1   
    48   17   48 1   
    49   17   49 1   
    50   18   50 1   
    51   18   51 1   
    52   18   52 1   
    53   21   53 1   
@<TRIPOS>SUBSTRUCTURE
     1 11O         1 TEMP              0 ****  ****    0 ROOT
