@<TRIPOS>MOLECULE
11O
   53    53     1     0     0
SMALL
bcc


@<TRIPOS>ATOM
      1 C1          1.3880    1.5460   -0.8690 c         1 11O      0.907600
      2 C2          2.2780    0.4050   -0.3420 c3        1 11O     -0.194400
      3 C3          2.8500    0.7380    1.0140 c3        1 11O     -0.065400
      4 C4          3.8840   -0.2780    1.4550 c3        1 11O     -0.078400
      5 C5          4.4400    0.0570    2.8230 c3        1 11O     -0.079400
      6 C6          5.4940   -0.9420    3.2520 c3        1 11O     -0.079400
      7 C7          6.0540   -0.6020    4.6160 c3        1 11O     -0.078400
      8 C8          7.1220   -1.5940    5.0310 c3        1 11O     -0.059200
      9 C9          7.7020   -1.2740    6.3570 c2        1 11O     -0.137200
     10 C10         8.8390   -1.7860    6.8340 c2        1 11O     -0.221200
     11 C11         9.7030   -2.7570    6.0950 c3        1 11O      0.184300
     12 C12        10.6510   -2.0260    5.1630 cx        1 11O      0.033100
     13 C13        11.8500   -2.7210    4.6140 cx        1 11O      0.072100
     14 C14        12.4440   -2.3070    3.3030 c3        1 11O     -0.076400
     15 C15        13.8650   -2.8090    3.1570 c3        1 11O     -0.076400
     16 C16        14.4580   -2.3860    1.8300 c3        1 11O     -0.080400
     17 C17        15.8770   -2.8910    1.6760 c3        1 11O     -0.079400
     18 C18        16.4730   -2.4710    0.3580 c3        1 11O     -0.092100
     19 O19         1.8160    2.7340   -0.7820 o         1 11O     -0.852300
     20 O20         0.2750    1.2340   -1.3820 o         1 11O     -0.852300
     21 O21        10.4140   -3.5980    6.9890 oh        1 11O     -0.596800
     22 O22        11.9630   -1.7750    5.6960 os        1 11O     -0.417600
     23 H21         3.1060    0.2510   -1.0790 hc        1 11O      0.018700
     24 H22         1.6800   -0.5390   -0.2930 hc        1 11O      0.018700
     25 H31         3.3090    1.7620    0.9690 hc        1 11O      0.044200
     26 H32         2.0220    0.7800    1.7690 hc        1 11O      0.044200
     27 H41         4.7200   -0.3100    0.7080 hc        1 11O      0.026200
     28 H42         3.4220   -1.3000    1.4780 hc        1 11O      0.026200
     29 H51         4.8840    1.0870    2.8030 hc        1 11O      0.037700
     30 H52         3.6070    0.0710    3.5740 hc        1 11O      0.037700
     31 H61         5.0490   -1.9720    3.2730 hc        1 11O      0.034700
     32 H62         6.3240   -0.9570    2.4970 hc        1 11O      0.034700
     33 H71         5.2260   -0.6010    5.3730 hc        1 11O      0.041700
     34 H72         6.4870    0.4320    4.5980 hc        1 11O      0.041700
     35 H81         6.6780   -2.6280    5.0670 hc        1 11O      0.048700
     36 H82         7.9320   -1.6150    4.2520 hc        1 11O      0.048700
     37 H91         7.1190   -0.5650    6.9710 ha        1 11O      0.127000
     38 H101        9.2040   -1.5200    7.8390 ha        1 11O      0.128000
     39 H111        9.0710   -3.4710    5.4890 h1        1 11O      0.088700
     40 H121       10.2010   -1.1660    4.6300 h1        1 11O      0.104700
     41 H131       12.0560   -3.7670    4.9230 h1        1 11O      0.098700
     42 H141       11.8060   -2.7240    2.4780 hc        1 11O      0.057700
     43 H142       12.4280   -1.1880    3.2120 hc        1 11O      0.057700
     44 H151       14.4900   -2.4070    3.9970 hc        1 11O      0.043700
     45 H152       13.8800   -3.9280    3.2370 hc        1 11O      0.043700
     46 H161       13.8260   -2.7810    0.9910 hc        1 11O      0.041700
     47 H162       14.4470   -1.2670    1.7530 hc        1 11O      0.041700
     48 H171       16.5060   -2.4970    2.5180 hc        1 11O      0.037700
     49 H172       15.8860   -4.0110    1.7550 hc        1 11O      0.037700
     50 H181       17.5180   -2.8540    0.2640 hc        1 11O      0.032367
     51 H182       16.4950   -1.3580    0.2720 hc        1 11O      0.032367
     52 H183       15.8720   -2.8750   -0.4930 hc        1 11O      0.032367
     53 H211       11.0710   -3.0490    7.4380 ho        1 11O      0.411000
@<TRIPOS>BOND
     1    1    2 1   
     2    1   19 1   
     3    1   20 1   
     4    2    3 1   
     5    2   23 1   
     6    2   24 1   
     7    3    4 1   
     8    3   25 1   
     9    3   26 1   
    10    4    5 1   
    11    4   27 1   
    12    4   28 1   
    13    5    6 1   
    14    5   29 1   
    15    5   30 1   
    16    6    7 1   
    17    6   31 1   
    18    6   32 1   
    19    7    8 1   
    20    7   33 1   
    21    7   34 1   
    22    8    9 1   
    23    8   35 1   
    24    8   36 1   
    25    9   10 2   
    26    9   37 1   
    27   10   11 1   
    28   10   38 1   
    29   11   12 1   
    30   11   21 1   
    31   11   39 1   
    32   12   13 1   
    33   12   22 1   
    34   12   40 1   
    35   13   14 1   
    36   13   22 1   
    37   13   41 1   
    38   14   15 1   
    39   14   42 1   
    40   14   43 1   
    41   15   16 1   
    42   15   44 1   
    43   15   45 1   
    44   16   17 1   
    45   16   46 1   
    46   16   47 1   
    47   17   18 1   
    48   17   48 1   
    49   17   49 1   
    50   18   50 1   
    51   18   51 1   
    52   18   52 1   
    53   21   53 1   
@<TRIPOS>SUBSTRUCTURE
     1 11O         1 TEMP              0 ****  ****    0 ROOT
