@<TRIPOS>MOLECULE
11P
   28    29     1     0     0
SMALL
bcc


@<TRIPOS>ATOM
      1 O5          3.6510    0.3500   -0.8770 o         1 11P     -0.966667
      2 O6          2.2460    2.1800    0.1320 o         1 11P     -0.966667
      3 O7          1.7890    1.3980   -2.1950 o         1 11P     -0.966667
      4 O8          1.0470   -1.3730    2.2390 o         1 11P     -0.966667
      5 P4          2.2770    0.9770   -0.8030 p5        1 11P      1.231200
      6 C1          0.8900   -0.1910   -0.2990 c3        1 11P     -0.122600
      7 O2          0.5870   -0.8570   -1.5020 oh        1 11P     -0.634800
      8 P1          0.7500   -1.8160    0.8120 p5        1 11P      1.231200
      9 O10         1.6820   -2.9110    0.3460 o         1 11P     -0.966667
     10 O9         -0.7060   -2.2300    0.6940 o         1 11P     -0.966667
     11 C3         -0.2040    0.8250    0.0320 c3        1 11P      0.021600
     12 C16        -0.3160    1.2620    1.5170 c3        1 11P     -0.126400
     13 C17        -1.7940    1.5370    1.8260 c3        1 11P     -0.014100
     14 C23        -2.5370    1.0700    0.6200 ca        1 11P     -0.110300
     15 C26        -3.9000    1.0770    0.3610 ca        1 11P     -0.265300
     16 C29        -4.3310    0.5650   -0.8780 ca        1 11P      0.265200
     17 N25        -3.5030    0.0360   -1.8050 nb        1 11P     -0.735000
     18 C28        -2.1820    0.0330   -1.5380 ca        1 11P      0.395200
     19 C27        -1.6270    0.5710   -0.3550 ca        1 11P      0.008400
     20 HO2         0.7950   -0.2640   -2.2480 ho        1 11P      0.362000
     21 H3          0.0520    1.7600   -0.5750 hc        1 11P      0.062700
     22 H161        0.0840    0.3940    2.1300 hc        1 11P      0.107200
     23 H162        0.3140    2.1640    1.6960 hc        1 11P      0.107200
     24 H171       -2.1270    0.9800    2.7370 hc        1 11P     -0.014800
     25 H172       -1.9910    2.6260    2.0120 hc        1 11P     -0.014800
     26 H26        -4.6250    1.4550    1.0900 ha        1 11P      0.062000
     27 H29        -5.4020    0.5620   -1.1330 h4        1 11P     -0.073900
     28 H28        -1.4990   -0.4590   -2.2590 h4        1 11P      0.060100
@<TRIPOS>BOND
     1    1    5 1   
     2    2    5 1   
     3    3    5 1   
     4    4    8 1   
     5    5    6 1   
     6    6    7 1   
     7    6    8 1   
     8    6   11 1   
     9    7   20 1   
    10    8    9 1   
    11    8   10 1   
    12   11   12 1   
    13   11   19 1   
    14   11   21 1   
    15   12   13 1   
    16   12   22 1   
    17   12   23 1   
    18   13   14 1   
    19   13   24 1   
    20   13   25 1   
    21   14   15 ar  
    22   14   19 ar  
    23   15   16 ar  
    24   15   26 1   
    25   16   17 ar  
    26   16   27 1   
    27   17   18 ar  
    28   18   19 ar  
    29   18   28 1   
@<TRIPOS>SUBSTRUCTURE
     1 11P         1 TEMP              0 ****  ****    0 ROOT
