@<TRIPOS>MOLECULE
11P
   28    29     1     0     0
SMALL
bcc


@<TRIPOS>ATOM
      1 O5          0.0960   -0.6110   -0.7050 o         1 11P     -1.241333
      2 O6          2.5250   -0.8780   -1.3210 o         1 11P     -1.241333
      3 O7          1.6450    1.3710   -0.6560 o         1 11P     -1.241333
      4 O8          1.6120   -2.9740    2.2040 o         1 11P     -0.922000
      5 P4          1.4990   -0.1240   -0.5260 p3        1 11P      2.590000
      6 C1          2.0250   -0.3480    1.6410 c2        1 11P     -1.147000
      7 O2          1.1800    0.7670    1.8880 oh        1 11P     -0.360000
      8 P1          1.5270   -1.5640    2.7000 p5        1 11P      2.045000
      9 O10         0.3150   -1.3170    3.5470 o         1 11P     -0.922000
     10 O9          2.7970   -1.4870    3.8250 os        1 11P     -0.736000
     11 C3          3.4620   -0.0200    2.0460 c3        1 11P     -0.087000
     12 C16         4.5270   -0.6340    1.1200 c3        1 11P     -0.156000
     13 C17         5.3550   -1.6220    1.9460 c3        1 11P     -0.079000
     14 C23         5.1740   -1.1750    3.3470 c2        1 11P     -0.268000
     15 C26         6.1350   -1.0310    4.2980 c2        1 11P     -0.090000
     16 C29         5.9230   -0.1680    5.4060 c2        1 11P     -0.490000
     17 N25         4.8160    0.6350    5.4780 n2        1 11P     -0.172000
     18 C28         3.8770    0.5030    4.5720 c2        1 11P     -0.245000
     19 C27         3.7880   -0.5600    3.4900 c3        1 11P      0.211000
     20 HO2         1.4890    1.4930    1.3230 ho        1 11P      0.182000
     21 H3          3.6030    1.0950    2.0540 hc        1 11P      0.044000
     22 H161        5.2000    0.1720    0.7280 hc        1 11P      0.076000
     23 H162        4.0190   -1.1160    0.2410 hc        1 11P      0.076000
     24 H171        4.9680   -2.6630    1.7990 hc        1 11P      0.019000
     25 H172        6.4330   -1.6200    1.6290 hc        1 11P      0.019000
     26 H26         7.1250   -1.5040    4.1810 ha        1 11P      0.009000
     27 H29         6.6430   -0.0920    6.2260 h4        1 11P      0.038000
     28 H28         3.0210    1.1930    4.6300 h4        1 11P      0.091000
@<TRIPOS>BOND
     1    1    5 1   
     2    2    5 1   
     3    3    5 1   
     4    4    8 1   
     5    6    7 1   
     6    6    8 1   
     7    6   11 1   
     8    7   20 1   
     9    8    9 1   
    10    8   10 1   
    11   10   19 1   
    12   11   12 1   
    13   11   19 1   
    14   11   21 1   
    15   12   13 1   
    16   12   22 1   
    17   12   23 1   
    18   13   14 1   
    19   13   24 1   
    20   13   25 1   
    21   14   15 1   
    22   14   19 1   
    23   15   16 1   
    24   15   26 1   
    25   16   17 1   
    26   16   27 1   
    27   17   18 1   
    28   18   19 1   
    29   18   28 1   
@<TRIPOS>SUBSTRUCTURE
     1 11P         1 TEMP              0 ****  ****    0 ROOT
