@<TRIPOS>MOLECULE
11P
   28    25     1     0     0
SMALL
bcc


@<TRIPOS>ATOM
      1 O5         -1.6360    2.6390    0.2950 o         1 11P     -1.080333
      2 O6         -1.3250    0.7920    1.8460 o         1 11P     -1.080333
      3 O7         -3.4570    1.0370    0.6480 o         1 11P     -1.080333
      4 O8         -1.8140    2.3320   -2.4570 o         1 11P     -1.251000
      5 P4         -1.9540    1.2100    0.5590 p3        1 11P      2.687000
      6 C1         -1.3010    0.1780   -0.8000 c2        1 11P     -1.181000
      7 O2         -1.7140   -1.1570   -0.6150 oh        1 11P     -0.360000
      8 P1         -1.9440    0.8040   -2.4120 p3        1 11P      2.592000
      9 O10        -3.3940    0.4190   -2.5550 o         1 11P     -1.251000
     10 O9         -1.1410    0.1970   -3.5520 os        1 11P     -1.259000
     11 C3          0.2350    0.2440   -0.7980 c3        1 11P      0.045000
     12 C16         0.7710   -0.9290   -1.4440 c3        1 11P     -0.153000
     13 C17         1.4820   -1.7180   -0.4230 c3        1 11P     -0.102000
     14 C23         1.4310   -0.9270    0.9050 c2        1 11P     -0.034000
     15 C26         2.1280   -1.0960    2.0670 c2        1 11P     -0.557000
     16 C29         2.1680   -0.0620    3.0210 c1        1 11P      0.013000
     17 N25         1.5040    1.1210    2.7840 n1        1 11P     -0.394000
     18 C28         0.8020    1.2970    1.6170 c1        1 11P      0.211000
     19 C27         0.7600    0.2710    0.6660 c1        1 11P     -0.287000
     20 HO2        -2.6090   -1.2030   -0.6590 ho        1 11P      0.204000
     21 H3          0.5280    1.0380   -1.2660 hc        1 11P      0.066000
     22 H161        1.4120   -0.6520   -2.1440 hc        1 11P      0.085500
     23 H162        0.0420   -1.4560   -1.8020 hc        1 11P      0.085500
     24 H171        1.0320   -2.5630   -0.3050 hc        1 11P      0.000500
     25 H172        2.4360   -1.8340   -0.7030 hc        1 11P      0.000500
     26 H26         2.6430   -1.9120    2.2130 ha        1 11P      0.036000
     27 H29         2.6530   -0.1790    3.8300 ha        1 11P     -0.003000
     28 H28         0.2660    2.1090    1.4860 ha        1 11P      0.047000
@<TRIPOS>BOND
     1    1    5 1   
     2    2    5 1   
     3    3    5 1   
     4    4    8 1   
     5    6    7 1   
     6    6    8 1   
     7    6   11 1   
     8    7   20 1   
     9    8    9 1   
    10   11   12 1   
    11   11   19 1   
    12   11   21 1   
    13   12   13 1   
    14   12   22 1   
    15   12   23 1   
    16   13   14 1   
    17   13   24 1   
    18   13   25 1   
    19   14   15 1   
    20   14   19 1   
    21   15   16 1   
    22   15   26 1   
    23   16   27 1   
    24   17   18 1   
    25   18   28 1   
@<TRIPOS>SUBSTRUCTURE
     1 11P         1 TEMP              0 ****  ****    0 ROOT
