@<TRIPOS>MOLECULE
11Q
   35    36     1     0     0
SMALL
bcc


@<TRIPOS>ATOM
      1 N           0.9920   -0.8980    0.5280 n3        1 11Q     -0.703600
      2 CA          1.7140   -1.9360    0.1030 c3        1 11Q      0.057500
      3 C           0.8460   -3.1380    0.0130 c         1 11Q      0.932600
      4 CB          2.9210   -2.0480    1.2490 c3        1 11Q     -0.079400
      5 O           0.1240   -3.4740    0.9990 o         1 11Q     -0.839300
      6 CX          0.4910   -0.1500   -0.6260 c3        1 11Q      0.167800
      7 C1         -0.6380    0.5210   -0.2820 c3        1 11Q     -0.055700
      8 C6         -1.9170   -0.0300   -1.0550 c3        1 11Q     -0.073400
      9 C5         -3.1930    0.7240   -0.7110 c3        1 11Q     -0.072400
     10 C4         -2.9240    1.9350   -0.1650 c3        1 11Q     -0.071400
     11 C3         -1.9330    2.7640   -0.5580 c3        1 11Q     -0.072400
     12 C2         -0.6670    1.9960   -0.9040 c3        1 11Q     -0.073400
     13 CD          1.9780   -0.0010    1.3390 c3        1 11Q      0.164800
     14 CG          3.2420   -0.8460    1.5740 c3        1 11Q     -0.084400
     15 H2          2.0900   -1.9000   -0.8100 h1        1 11Q      0.005700
     16 H4          3.7080   -2.5180    0.8680 hc        1 11Q      0.052700
     17 H5          2.5920   -2.5300    2.0340 hc        1 11Q      0.052700
     18 H6          1.1700    0.4870   -0.9190 h1        1 11Q      0.046700
     19 H7          0.2880   -0.7830   -1.3670 h1        1 11Q      0.046700
     20 H8         -0.7790    0.5340    0.6930 hc        1 11Q      0.032700
     21 H9         -2.0390   -0.9750   -0.8290 hc        1 11Q      0.048450
     22 H10        -1.7580    0.0460   -2.0200 hc        1 11Q      0.048450
     23 H11        -3.7120    0.1960   -0.0750 hc        1 11Q      0.026950
     24 H12        -3.7200    0.8500   -1.5260 hc        1 11Q      0.026950
     25 H13        -3.7590    2.4580   -0.2390 hc        1 11Q      0.024700
     26 H14        -2.7750    1.7730    0.7910 hc        1 11Q      0.024700
     27 H15        -2.2350    3.2720   -1.3610 hc        1 11Q      0.026950
     28 H16        -1.7380    3.3950    0.1630 hc        1 11Q      0.026950
     29 H17         0.0910    2.4860   -0.5720 hc        1 11Q      0.048450
     30 H18        -0.5960    1.9270   -1.8720 hc        1 11Q      0.048450
     31 H19         1.5680    0.2560    2.2170 h1        1 11Q      0.009700
     32 H20         2.2010    0.7970    0.8280 h1        1 11Q      0.009700
     33 H21         3.9850   -0.5200    0.9970 hc        1 11Q      0.020200
     34 H22         3.5070   -0.8090    2.5250 hc        1 11Q      0.020200
     35 OXT         0.8730   -3.8620   -1.0280 o         1 11Q     -0.839300
@<TRIPOS>BOND
     1    1    2 1   
     2    1    6 1   
     3    1   13 1   
     4    2    3 1   
     5    2    4 1   
     6    2   15 1   
     7    3    5 1   
     8    3   35 1   
     9    4   14 1   
    10    4   16 1   
    11    4   17 1   
    12    6    7 1   
    13    6   18 1   
    14    6   19 1   
    15    7    8 1   
    16    7   12 1   
    17    7   20 1   
    18    8    9 1   
    19    8   21 1   
    20    8   22 1   
    21    9   10 1   
    22    9   23 1   
    23    9   24 1   
    24   10   11 1   
    25   10   25 1   
    26   10   26 1   
    27   11   12 1   
    28   11   27 1   
    29   11   28 1   
    30   12   29 1   
    31   12   30 1   
    32   13   14 1   
    33   13   31 1   
    34   13   32 1   
    35   14   33 1   
    36   14   34 1   
@<TRIPOS>SUBSTRUCTURE
     1 11Q         1 TEMP              0 ****  ****    0 ROOT
