@<TRIPOS>MOLECULE
11Q
   35    36     1     0     0
SMALL
bcc


@<TRIPOS>ATOM
      1 N          -0.8810   -0.5740    0.0390 n3        1 11Q     -0.703600
      2 CA         -2.1970   -0.1240   -0.4520 c3        1 11Q      0.057500
      3 C          -2.4800    1.3710   -0.1050 c         1 11Q      0.932600
      4 CB         -3.2400   -1.0950    0.1250 c3        1 11Q     -0.079400
      5 O          -1.7760    2.2320   -0.7050 o         1 11Q     -0.840300
      6 CX          0.2020   -0.2130   -0.8500 c3        1 11Q      0.166800
      7 C1          1.6000   -0.4180   -0.2460 c3        1 11Q     -0.057700
      8 C6          1.8260    0.5190    0.9290 c3        1 11Q     -0.074400
      9 C5          3.2330    0.3930    1.4760 c3        1 11Q     -0.073900
     10 C4          4.2710    0.6220    0.3970 c3        1 11Q     -0.074400
     11 C3          4.0500   -0.3090   -0.7770 c3        1 11Q     -0.073900
     12 C2          2.6450   -0.1770   -1.3270 c3        1 11Q     -0.074400
     13 CD         -0.9830   -1.9960    0.3590 c3        1 11Q      0.164800
     14 CG         -2.4700   -2.3470    0.5300 c3        1 11Q     -0.084400
     15 H2         -2.2360   -0.1900   -1.5810 h1        1 11Q      0.005700
     16 H4         -3.7390   -0.6150    1.0050 hc        1 11Q      0.052700
     17 H5         -4.0230   -1.3250   -0.6360 hc        1 11Q      0.052700
     18 H6          0.1640   -0.7930   -1.8220 h1        1 11Q      0.046700
     19 H7          0.0570    0.8850   -1.0900 h1        1 11Q      0.046700
     20 H8          1.7000   -1.4800    0.1150 hc        1 11Q      0.030700
     21 H9          1.6380    1.5760    0.6010 hc        1 11Q      0.050450
     22 H10         1.0840    0.2880    1.7370 hc        1 11Q      0.050450
     23 H11         3.3820    1.1360    2.3020 hc        1 11Q      0.025450
     24 H12         3.3740   -0.6300    1.9150 hc        1 11Q      0.025450
     25 H13         4.2110    1.6850    0.0440 hc        1 11Q      0.028200
     26 H14         5.2980    0.4630    0.8170 hc        1 11Q      0.028200
     27 H15         4.7930   -0.0790   -1.5850 hc        1 11Q      0.025450
     28 H16         4.2260   -1.3680   -0.4510 hc        1 11Q      0.025450
     29 H17         2.5000   -0.9130   -2.1610 hc        1 11Q      0.050450
     30 H18         2.5030    0.8500   -1.7550 hc        1 11Q      0.050450
     31 H19        -0.5200   -2.6550   -0.4290 h1        1 11Q      0.009700
     32 H20        -0.4180   -2.1720    1.3150 h1        1 11Q      0.009700
     33 H21        -2.6860   -2.6270    1.5890 hc        1 11Q      0.020200
     34 H22        -2.7390   -3.2190   -0.1150 hc        1 11Q      0.020200
     35 OXT        -3.4130    1.6390    0.6990 o         1 11Q     -0.840300
@<TRIPOS>BOND
     1    1    2 1   
     2    1    6 1   
     3    1   13 1   
     4    2    3 1   
     5    2    4 1   
     6    2   15 1   
     7    3    5 1   
     8    3   35 1   
     9    4   14 1   
    10    4   16 1   
    11    4   17 1   
    12    6    7 1   
    13    6   18 1   
    14    6   19 1   
    15    7    8 1   
    16    7   12 1   
    17    7   20 1   
    18    8    9 1   
    19    8   21 1   
    20    8   22 1   
    21    9   10 1   
    22    9   23 1   
    23    9   24 1   
    24   10   11 1   
    25   10   25 1   
    26   10   26 1   
    27   11   12 1   
    28   11   27 1   
    29   11   28 1   
    30   12   29 1   
    31   12   30 1   
    32   13   14 1   
    33   13   31 1   
    34   13   32 1   
    35   14   33 1   
    36   14   34 1   
@<TRIPOS>SUBSTRUCTURE
     1 11Q         1 TEMP              0 ****  ****    0 ROOT
