@<TRIPOS>MOLECULE
11S
   16    10     1     0     0
SMALL
bcc


@<TRIPOS>ATOM
      1 C8         -1.4850   -0.0050   -1.9940 c1        1 11S     -0.077000
      2 C9         -0.1050   -0.0050   -1.9940 c1        1 11S     -0.197000
      3 C1         -0.6450   -0.0050    1.5190 c1        1 11S     -0.137000
      4 C2          0.6210   -0.0050    2.0850 c1        1 11S     -0.107000
      5 C3          1.7460   -0.0050    1.2700 c1        1 11S     -0.089000
      6 C4          1.6030   -0.0050   -0.1090 c1        1 11S     -0.075000
      7 C5          0.3200   -0.0050   -0.6840 c1        1 11S     -0.079000
      8 C6         -0.7900   -0.0050    0.1210 c1        1 11S     -0.003000
      9 CL10        3.3280    0.0800    1.9970 cl        1 11S     -0.028000
     10 N7         -1.9080   -0.0050   -0.6940 n1        1 11S     -0.216000
     11 H8         -2.0590   -0.0050   -2.7840 DU        1 11S      0.192000
     12 H9          0.4690   -0.0050   -2.7840 DU        1 11S      0.192000
     13 H1         -1.4360   -0.0050    2.0910 ha        1 11S      0.137000
     14 H2          0.7220   -0.0050    3.0560 ha        1 11S      0.145000
     15 H4          2.3940   -0.0050   -0.6820 ha        1 11S      0.149000
     16 HN7        -2.7760   -0.0050   -0.4130 DU        1 11S      0.192000
@<TRIPOS>BOND
     1    1    2 1   
     2    1   10 1   
     3    2    7 1   
     4    3    8 1   
     5    3   13 1   
     6    4    5 1   
     7    4   14 1   
     8    5    9 1   
     9    6    7 1   
    10    6   15 1   
@<TRIPOS>SUBSTRUCTURE
     1 11S         1 TEMP              0 ****  ****    0 ROOT
