@<TRIPOS>MOLECULE
11S
   16    17     1     0     0
SMALL
bcc


@<TRIPOS>ATOM
      1 C8          3.1920    0.5970   -0.0000 cc        1 11S     -0.104100
      2 C9          2.1230    1.4880   -0.0000 cd        1 11S     -0.185200
      3 C1          0.3810   -1.7260    0.0000 ca        1 11S     -0.137000
      4 C2         -0.9600   -1.3820    0.0000 ca        1 11S     -0.107000
      5 C3         -1.3640   -0.0300    0.0010 ca        1 11S     -0.010600
      6 C4         -0.4460    1.0140    0.0000 ca        1 11S     -0.075000
      7 C5          0.9120    0.6990    0.0000 ca        1 11S     -0.090800
      8 C6          1.3270   -0.6880   -0.0000 ca        1 11S     -0.048200
      9 CL10       -3.0320    0.3220    0.0010 cl        1 11S     -0.106400
     10 N7          2.7220   -0.7200   -0.0000 na        1 11S     -0.193400
     11 H8          4.2650    0.8000   -0.0010 h4        1 11S      0.166000
     12 H9          2.1760    2.5720   -0.0000 ha        1 11S      0.160000
     13 H1          0.6930   -2.7790   -0.0000 ha        1 11S      0.137000
     14 H2         -1.7250   -2.1730    0.0000 ha        1 11S      0.145000
     15 H4         -0.7730    2.0640    0.0010 ha        1 11S      0.149000
     16 HN7         3.2760   -1.5330   -0.0010 hn        1 11S      0.299700
@<TRIPOS>BOND
     1    1    2 2   
     2    1   10 1   
     3    1   11 1   
     4    2    7 1   
     5    2   12 1   
     6    3    4 ar  
     7    3    8 ar  
     8    3   13 1   
     9    4    5 ar  
    10    4   14 1   
    11    5    6 ar  
    12    5    9 1   
    13    6    7 ar  
    14    6   15 1   
    15    7    8 ar  
    16    8   10 1   
    17   10   16 1   
@<TRIPOS>SUBSTRUCTURE
     1 11S         1 TEMP              0 ****  ****    0 ROOT
