@<TRIPOS>MOLECULE
11U
   59    61     1     0     0
SMALL
bcc


@<TRIPOS>ATOM
      1 C14         2.2330    0.8800   -0.9110 c         1 11U      0.625100
      2 O32         1.6950   -0.0240   -0.2330 o         1 11U     -0.635100
      3 C15         3.5830    0.6620   -1.6130 c3        1 11U      0.109800
      4 N5          4.1830   -0.6350   -1.4470 n3        1 11U     -0.804200
      5 C16         5.0980   -0.7700   -0.3180 c3        1 11U      0.170500
      6 C21         4.4610   -0.5780    1.0680 c3        1 11U     -0.090900
      7 C20         5.5010   -0.6730    2.1620 c3        1 11U     -0.074400
      8 C19         6.2400   -1.9940    2.1080 c3        1 11U     -0.078400
      9 C18         6.8460   -2.2230    0.7390 c3        1 11U     -0.074400
     10 C17         5.8010   -2.1390   -0.3530 c3        1 11U     -0.090900
     11 N1          1.5850    2.0840   -1.1040 n         1 11U     -0.462800
     12 C2          0.3690    2.4450   -0.3850 c3        1 11U      0.034700
     13 C7         -0.9170    1.9240   -1.0720 c         1 11U      0.649100
     14 O22        -1.8290    2.7050   -1.4130 o         1 11U     -0.622100
     15 C3          0.3500    3.9860   -0.2860 c3        1 11U     -0.088400
     16 C4          1.4400    4.4910   -1.2260 c3        1 11U     -0.090400
     17 C5          2.2290    3.2520   -1.6770 c3        1 11U      0.089000
     18 N23        -1.0030    0.5670   -1.2900 n         1 11U     -0.549900
     19 C24        -2.1990   -0.0450   -1.8050 c3        1 11U      0.130300
     20 C25        -3.1860   -0.4840   -0.7590 ca        1 11U     -0.109300
     21 C26        -3.3800   -1.8410   -0.4890 ca        1 11U     -0.124000
     22 C27        -4.3200   -2.2400    0.4600 ca        1 11U     -0.103500
     23 C28        -5.0680   -1.2790    1.1460 ca        1 11U     -0.138900
     24 C31        -6.0810   -1.7000    2.1670 ce        1 11U      0.649800
     25 N49        -6.0320   -1.1620    3.3480 n2        1 11U     -0.825100
     26 N48        -6.9560   -2.7200    1.7270 nh        1 11U     -0.957800
     27 C29        -4.8670    0.0820    0.8890 ca        1 11U     -0.103500
     28 C30        -3.9300    0.4750   -0.0640 ca        1 11U     -0.124000
     29 H15         3.4030    0.7970   -2.7210 h1        1 11U      0.073700
     30 H15A        4.2980    1.4620   -1.2710 h1        1 11U      0.073700
     31 H20         3.4770   -1.3490   -1.4080 hn        1 11U      0.379800
     32 H21         5.8920    0.0270   -0.4480 h1        1 11U      0.051700
     33 H301        3.9570    0.4230    1.1140 hc        1 11U      0.048450
     34 H31         3.6650   -1.3520    1.2260 hc        1 11U      0.048450
     35 H28         5.0020   -0.5620    3.1600 hc        1 11U      0.039950
     36 H291        6.2350    0.1690    2.0570 hc        1 11U      0.039950
     37 H261        5.5300   -2.8290    2.3470 hc        1 11U      0.041200
     38 H271        7.0480   -2.0060    2.8850 hc        1 11U      0.041200
     39 H241        7.3310   -3.2340    0.7080 hc        1 11U      0.039950
     40 H25         7.6480   -1.4610    0.5520 hc        1 11U      0.039950
     41 H22         5.0450   -2.9550   -0.2150 hc        1 11U      0.048450
     42 H23         6.2900   -2.2890   -1.3500 hc        1 11U      0.048450
     43 H2          0.3910    1.9810    0.6460 h1        1 11U      0.085700
     44 H3          0.5620    4.2900    0.7680 hc        1 11U      0.075200
     45 H3A        -0.6520    4.3930   -0.5730 hc        1 11U      0.075200
     46 H4          2.1140    5.2160   -0.7090 hc        1 11U      0.057700
     47 H4A         0.9920    5.0050   -2.1110 hc        1 11U      0.057700
     48 H5          3.2990    3.3230   -1.3360 h1        1 11U      0.046700
     49 H5A         2.2270    3.1600   -2.7990 h1        1 11U      0.046700
     50 HN23       -0.3460   -0.0330   -0.8390 hn        1 11U      0.337500
     51 H24        -2.7120    0.6940   -2.4900 h1        1 11U      0.066700
     52 H24A       -1.8820   -0.9380   -2.4180 h1        1 11U      0.066700
     53 H26        -2.7890   -2.6000   -1.0240 ha        1 11U      0.145500
     54 H27        -4.4590   -3.3100    0.6750 ha        1 11U      0.146000
     55 HN49       -6.7210   -1.4640    4.0030 hn        1 11U      0.381400
     56 HN48       -7.0290   -2.8210    0.7420 hn        1 11U      0.397300
     57 HN4A       -7.8190   -2.8060    2.2110 hn        1 11U      0.397300
     58 H29        -5.4390    0.8400    1.4460 ha        1 11U      0.146000
     59 H30        -3.7650    1.5450   -0.2770 ha        1 11U      0.145500
@<TRIPOS>BOND
     1    1    2 2   
     2    1    3 1   
     3    1   11 1   
     4    3    4 1   
     5    3   29 1   
     6    3   30 1   
     7    4    5 1   
     8    4   31 1   
     9    5    6 1   
    10    5   10 1   
    11    5   32 1   
    12    6    7 1   
    13    6   33 1   
    14    6   34 1   
    15    7    8 1   
    16    7   35 1   
    17    7   36 1   
    18    8    9 1   
    19    8   37 1   
    20    8   38 1   
    21    9   10 1   
    22    9   39 1   
    23    9   40 1   
    24   10   41 1   
    25   10   42 1   
    26   11   12 1   
    27   11   17 1   
    28   12   13 1   
    29   12   15 1   
    30   12   43 1   
    31   13   14 2   
    32   13   18 1   
    33   15   16 1   
    34   15   44 1   
    35   15   45 1   
    36   16   17 1   
    37   16   46 1   
    38   16   47 1   
    39   17   48 1   
    40   17   49 1   
    41   18   19 1   
    42   18   50 1   
    43   19   20 1   
    44   19   51 1   
    45   19   52 1   
    46   20   21 ar  
    47   20   28 ar  
    48   21   22 ar  
    49   21   53 1   
    50   22   23 ar  
    51   22   54 1   
    52   23   24 1   
    53   23   27 ar  
    54   24   25 2   
    55   24   26 1   
    56   25   55 1   
    57   26   56 1   
    58   26   57 1   
    59   27   28 ar  
    60   27   58 1   
    61   28   59 1   
@<TRIPOS>SUBSTRUCTURE
     1 11U         1 TEMP              0 ****  ****    0 ROOT
