@<TRIPOS>MOLECULE
11U
   59    56     1     0     0
SMALL
bcc


@<TRIPOS>ATOM
      1 C14         2.8310    0.7870    0.1430 c1        1 11U      0.325000
      2 O32         4.0340    0.8170    0.1650 o         1 11U     -0.373000
      3 C15         2.0380    0.7510    1.4630 c3        1 11U     -0.097000
      4 N5          2.5890    1.7490    2.3960 n3        1 11U     -0.306000
      5 C16         3.2030    1.0700    3.5320 c3        1 11U     -0.034000
      6 C21         4.5550    1.7110    3.8220 c3        1 11U     -0.167000
      7 C20         5.1870    1.1800    5.1050 c3        1 11U     -0.154000
      8 C19         4.2490    1.2550    6.2850 c3        1 11U     -0.157000
      9 C18         2.9000    0.6160    5.9970 c3        1 11U     -0.154000
     10 C17         2.2640    1.1450    4.7140 c3        1 11U     -0.167000
     11 N1          2.1280    0.9040   -1.1200 n2        1 11U     -0.316000
     12 C2          0.6090    0.8880   -1.3360 c3        1 11U      0.021000
     13 C7         -0.0100   -0.3770   -1.0710 c2        1 11U      0.277000
     14 O22         0.6600   -1.3070   -0.6250 o         1 11U     -0.359000
     15 C3          0.4710    1.3820   -2.8630 c3        1 11U     -0.168000
     16 C4          1.6020    1.8170   -3.1810 c3        1 11U     -0.171000
     17 C5          2.6540    1.0450   -2.2940 c3        1 11U     -0.022000
     18 N23        -1.3940   -0.5770   -1.3880 n         1 11U     -0.368000
     19 C24        -1.9480   -1.9020   -1.3820 c3        1 11U      0.003000
     20 C25        -3.3030   -1.9150   -2.2050 c2        1 11U     -0.108000
     21 C26        -4.5210   -1.7690   -1.5430 c2        1 11U     -0.125000
     22 C27        -5.7250   -1.8530   -2.2610 c1        1 11U     -0.118000
     23 C28        -5.7020   -2.0820   -3.6360 c1        1 11U     -0.109000
     24 C31        -7.0300   -2.1310   -4.4360 c1        1 11U      0.116000
     25 N49        -7.5200   -1.0320   -4.9610 n1        1 11U     -0.303000
     26 N48        -7.7120   -3.3580   -4.6010 n3        1 11U     -0.332000
     27 C29        -4.4880   -2.2280   -4.2960 c1        1 11U     -0.098000
     28 C30        -3.2810   -2.1450   -3.5780 c1        1 11U     -0.120000
     29 H15         1.0910    0.9560    1.2830 h1        1 11U      0.110000
     30 H15A        2.1090   -0.1430    1.8630 h1        1 11U      0.110000
     31 H20         1.9190    2.2880    2.6910 hn        1 11U      0.161000
     32 H21         3.3440    0.1270    3.2990 h1        1 11U      0.113000
     33 H301        4.4340    2.6800    3.9070 hc        1 11U      0.081250
     34 H31         5.1640    1.5290    3.0660 hc        1 11U      0.081250
     35 H28         5.4470    0.2450    4.9670 hc        1 11U      0.082000
     36 H291        6.0010    1.7140    5.3070 hc        1 11U      0.082000
     37 H261        4.6650    0.7890    7.0550 hc        1 11U      0.078500
     38 H271        4.1090    2.2000    6.5220 hc        1 11U      0.078500
     39 H241        2.2890    0.8010    6.7570 hc        1 11U      0.082000
     40 H25         3.0190   -0.3510    5.9160 hc        1 11U      0.082000
     41 H22         1.4540    0.6140    4.5150 hc        1 11U      0.081250
     42 H23         2.0040    2.0800    4.8510 hc        1 11U      0.081250
     43 H2          0.1340    1.4830   -0.7060 h1        1 11U      0.134000
     44 H3         -0.1990    2.1010   -2.9280 hc        1 11U      0.095000
     45 H3A         0.2190    0.6280   -3.4450 hc        1 11U      0.095000
     46 H4          1.7750    1.6390   -4.1460 hc        1 11U      0.095500
     47 H4A         1.6540    2.7830   -3.0020 hc        1 11U      0.095500
     48 H5          3.4800    1.5650   -2.2290 h1        1 11U      0.100500
     49 H5A         2.8420    0.1650   -2.6850 h1        1 11U      0.100500
     50 HN23       -1.9130    0.1250   -1.5930 hn        1 11U      0.217000
     51 H24        -2.1240   -2.1770   -0.4580 h1        1 11U      0.111000
     52 H24A       -1.3010   -2.5320   -1.7980 h1        1 11U      0.111000
     53 H26        -4.5360   -1.6090   -0.5820 ha        1 11U      0.134000
     54 H27        -6.5850   -1.7490   -1.7940 ha        1 11U      0.139000
     55 HN49       -7.0790   -0.2400   -4.8550 DU        1 11U      0.149000
     56 HN48       -7.4620   -4.0880   -4.1150 hn        1 11U      0.195500
     57 HN4A       -8.3840   -3.4270   -5.2150 hn        1 11U      0.195500
     58 H29        -4.4730   -2.3890   -5.2570 ha        1 11U      0.153000
     59 H30        -2.4370   -2.2460   -4.0370 ha        1 11U      0.161000
@<TRIPOS>BOND
     1    1    2 1   
     2    1    3 1   
     3    3    4 1   
     4    3   29 1   
     5    3   30 1   
     6    4    5 1   
     7    4   31 1   
     8    5    6 1   
     9    5   10 1   
    10    5   32 1   
    11    6    7 1   
    12    6   33 1   
    13    6   34 1   
    14    7    8 1   
    15    7   35 1   
    16    7   36 1   
    17    8    9 1   
    18    8   37 1   
    19    8   38 1   
    20    9   10 1   
    21    9   39 1   
    22    9   40 1   
    23   10   41 1   
    24   10   42 1   
    25   11   12 1   
    26   11   17 1   
    27   12   13 1   
    28   12   15 1   
    29   12   43 1   
    30   13   14 1   
    31   13   18 1   
    32   15   16 1   
    33   15   44 1   
    34   15   45 1   
    35   16   17 1   
    36   16   46 1   
    37   16   47 1   
    38   17   48 1   
    39   17   49 1   
    40   18   19 1   
    41   18   50 1   
    42   19   20 1   
    43   19   51 1   
    44   19   52 1   
    45   20   21 1   
    46   20   28 1   
    47   21   22 1   
    48   21   53 1   
    49   22   54 1   
    50   23   27 1   
    51   24   25 1   
    52   24   26 1   
    53   26   56 1   
    54   26   57 1   
    55   27   58 1   
    56   28   59 1   
@<TRIPOS>SUBSTRUCTURE
     1 11U         1 TEMP              0 ****  ****    0 ROOT
