@<TRIPOS>MOLECULE
11V
   61    65     1     0     0
SMALL
bcc


@<TRIPOS>ATOM
      1 CAP        -0.5690    0.5210    0.0480 c3        1 11V      0.128800
      2 CAM         0.8810    0.8780   -0.2980 c3        1 11V      0.126400
      3 OAX         1.7340    0.7710    0.8350 os        1 11V     -0.415600
      4 CAN         1.6850   -0.5250    1.4210 c3        1 11V      0.126400
      5 CAQ         0.2550   -0.9220    1.8050 c3        1 11V      0.128800
      6 NBG        -0.6820   -0.7810    0.6970 n3        1 11V     -0.720600
      7 CAR        -2.0590   -1.0630    1.0840 c3        1 11V      0.173800
      8 CAO        -2.2730   -2.5020    1.5390 c3        1 11V     -0.039300
      9 SAY        -4.0340   -2.6940    1.5670 ss        1 11V     -0.204400
     10 C2         -4.3120   -4.3160    2.0960 ca        1 11V      0.792300
     11 N1         -3.2130   -5.1010    2.3500 nb        1 11V     -0.802000
     12 C6         -3.4210   -6.3880    2.7580 ca        1 11V      0.770200
     13 NAW        -2.3710   -7.2720    2.9900 nh        1 11V     -0.728300
     14 CAZ        -1.0080   -6.9070    3.0220 ca        1 11V      0.137600
     15 CAH        -0.1980   -7.3510    4.0920 ca        1 11V     -0.143000
     16 CAD         1.1630   -7.0670    4.1050 ca        1 11V     -0.115000
     17 CAB         1.7430   -6.3360    3.0700 ca        1 11V     -0.142000
     18 CAE         0.9520   -5.8940    2.0110 ca        1 11V     -0.115000
     19 CAI        -0.4120   -6.1750    1.9740 ca        1 11V     -0.143000
     20 N3         -5.6310   -4.6470    2.2060 nb        1 11V     -0.720000
     21 C4         -5.8310   -5.9320    2.6160 ca        1 11V      0.497800
     22 C5         -4.7550   -6.8630    2.9190 ca        1 11V     -0.512500
     23 CAL        -5.4330   -8.0760    3.3210 cc        1 11V      0.390800
     24 NAT        -6.7650   -7.9030    3.2710 nd        1 11V     -0.518100
     25 NBH        -7.0300   -6.6270    2.8970 na        1 11V     -0.007800
     26 CAS        -8.3540   -6.1620    2.5390 c3        1 11V      0.059300
     27 CBF        -9.0030   -6.8990    1.3570 c3        1 11V      0.077000
     28 CLA        -8.0060   -6.7640   -0.0950 cl        1 11V     -0.175400
     29 CBA       -10.3690   -6.3520    1.1130 ca        1 11V     -0.106300
     30 CAJ       -11.4830   -7.1830    1.2780 ca        1 11V     -0.109000
     31 CAF       -12.7670   -6.6830    1.0630 ca        1 11V     -0.131000
     32 CAC       -12.9460   -5.3540    0.6800 ca        1 11V     -0.118000
     33 CAG       -11.8380   -4.5240    0.5090 ca        1 11V     -0.131000
     34 CAK       -10.5530   -5.0200    0.7230 ca        1 11V     -0.109000
     35 H1         -0.9950    1.3450    0.6920 h1        1 11V      0.043200
     36 H2         -1.1640    0.4820   -0.9060 h1        1 11V      0.043200
     37 H3          0.9510    1.9560   -0.6000 h1        1 11V      0.054200
     38 H4          1.2660    0.2200   -1.1210 h1        1 11V      0.054200
     39 H5          2.3210   -0.4400    2.3400 h1        1 11V      0.054200
     40 H6          2.1270   -1.2740    0.7120 h1        1 11V      0.054200
     41 H7         -0.0600   -0.3040    2.6960 h1        1 11V      0.043200
     42 H8          0.2580   -2.0040    2.1150 h1        1 11V      0.043200
     43 H10        -2.4090   -0.3710    1.9070 h1        1 11V      0.046200
     44 H11        -2.7050   -0.8720    0.1780 h1        1 11V      0.046200
     45 H12        -1.7980   -3.2270    0.8340 h1        1 11V      0.087200
     46 H13        -1.8330   -2.6750    2.5500 h1        1 11V      0.087200
     47 H14        -2.6140   -8.0700    3.5380 hn        1 11V      0.438800
     48 H15        -0.6350   -7.9280    4.9220 ha        1 11V      0.143000
     49 H16         1.7830   -7.4210    4.9430 ha        1 11V      0.135000
     50 H17         2.8200   -6.1110    3.0870 ha        1 11V      0.135000
     51 H18         1.4050   -5.3200    1.1880 ha        1 11V      0.135000
     52 H19        -1.0120   -5.8210    1.1220 ha        1 11V      0.143000
     53 H20        -4.9830   -9.0230    3.6240 h4        1 11V      0.051800
     54 H21        -8.2820   -5.0610    2.3080 h1        1 11V      0.088700
     55 H22        -9.0250   -6.3040    3.4360 h1        1 11V      0.088700
     56 H23        -9.0520   -8.0010    1.5680 h1        1 11V      0.093700
     57 H24       -11.3480   -8.2330    1.5760 ha        1 11V      0.140500
     58 H25       -13.6390   -7.3410    1.1950 ha        1 11V      0.135500
     59 H26       -13.9600   -4.9620    0.5100 ha        1 11V      0.134000
     60 H27       -11.9760   -3.4770    0.2010 ha        1 11V      0.135500
     61 H28        -9.6790   -4.3670    0.5730 ha        1 11V      0.140500
@<TRIPOS>BOND
     1    1    2 1   
     2    1    6 1   
     3    1   35 1   
     4    1   36 1   
     5    2    3 1   
     6    2   37 1   
     7    2   38 1   
     8    3    4 1   
     9    4    5 1   
    10    4   39 1   
    11    4   40 1   
    12    5    6 1   
    13    5   41 1   
    14    5   42 1   
    15    6    7 1   
    16    7    8 1   
    17    7   43 1   
    18    7   44 1   
    19    8    9 1   
    20    8   45 1   
    21    8   46 1   
    22    9   10 1   
    23   10   11 ar  
    24   10   20 ar  
    25   11   12 ar  
    26   12   13 1   
    27   12   22 ar  
    28   13   14 1   
    29   13   47 1   
    30   14   15 ar  
    31   14   19 ar  
    32   15   16 ar  
    33   15   48 1   
    34   16   17 ar  
    35   16   49 1   
    36   17   18 ar  
    37   17   50 1   
    38   18   19 ar  
    39   18   51 1   
    40   19   52 1   
    41   20   21 ar  
    42   21   22 ar  
    43   21   25 1   
    44   22   23 1   
    45   23   24 2   
    46   23   53 1   
    47   24   25 1   
    48   25   26 1   
    49   26   27 1   
    50   26   54 1   
    51   26   55 1   
    52   27   28 1   
    53   27   29 1   
    54   27   56 1   
    55   29   30 ar  
    56   29   34 ar  
    57   30   31 ar  
    58   30   57 1   
    59   31   32 ar  
    60   31   58 1   
    61   32   33 ar  
    62   32   59 1   
    63   33   34 ar  
    64   33   60 1   
    65   34   61 1   
@<TRIPOS>SUBSTRUCTURE
     1 11V         1 TEMP              0 ****  ****    0 ROOT
