@<TRIPOS>MOLECULE
11V
   61    65     1     0     0
SMALL
bcc


@<TRIPOS>ATOM
      1 CAP        -0.5630    0.5120    0.0350 c3        1 11V      0.128800
      2 CAM         0.8880    0.8670   -0.3100 c3        1 11V      0.126400
      3 OAX         1.7390    0.7640    0.8260 os        1 11V     -0.415600
      4 CAN         1.6880   -0.5290    1.4170 c3        1 11V      0.126400
      5 CAQ         0.2570   -0.9230    1.8000 c3        1 11V      0.128800
      6 NBG        -0.6780   -0.7870    0.6890 n3        1 11V     -0.720600
      7 CAR        -2.0560   -1.0670    1.0750 c3        1 11V      0.173800
      8 CAO        -2.2720   -2.5040    1.5350 c3        1 11V     -0.039300
      9 SAY        -4.0320   -2.6940    1.5620 ss        1 11V     -0.204400
     10 C2         -4.3120   -4.3150    2.0950 ca        1 11V      0.792300
     11 N1         -3.2150   -5.0990    2.3540 nb        1 11V     -0.802000
     12 C6         -3.4240   -6.3850    2.7660 ca        1 11V      0.770200
     13 NAW        -2.3750   -7.2690    3.0030 nu        1 11V     -0.728300
     14 CAZ        -1.0110   -6.9040    3.0360 ca        1 11V      0.137600
     15 CAH        -0.2040   -7.3460    4.1090 ca        1 11V     -0.143000
     16 CAD         1.1580   -7.0620    4.1230 ca        1 11V     -0.115000
     17 CAB         1.7400   -6.3350    3.0860 ca        1 11V     -0.142000
     18 CAE         0.9510   -5.8960    2.0250 ca        1 11V     -0.115000
     19 CAI        -0.4130   -6.1760    1.9860 ca        1 11V     -0.143000
     20 N3         -5.6320   -4.6450    2.2040 nb        1 11V     -0.720000
     21 C4         -5.8330   -5.9280    2.6190 ca        1 11V      0.497800
     22 C5         -4.7580   -6.8580    2.9270 ca        1 11V     -0.512500
     23 CAL        -5.4370   -8.0700    3.3310 cc        1 11V      0.390800
     24 NAT        -6.7690   -7.8960    3.2790 nd        1 11V     -0.518100
     25 NBH        -7.0330   -6.6210    2.9000 na        1 11V     -0.007800
     26 CAS        -8.3560   -6.1560    2.5390 c3        1 11V      0.059300
     27 CBF        -9.0040   -6.8970    1.3580 c3        1 11V      0.077000
     28 ClA        -8.0040   -6.7670   -0.0940 cl        1 11V     -0.175400
     29 CBA       -10.3680   -6.3500    1.1090 ca        1 11V     -0.106300
     30 CAJ       -11.4840   -7.1800    1.2740 ca        1 11V     -0.109000
     31 CAF       -12.7670   -6.6810    1.0560 ca        1 11V     -0.131000
     32 CAC       -12.9450   -5.3530    0.6680 ca        1 11V     -0.118000
     33 CAG       -11.8360   -4.5240    0.4970 ca        1 11V     -0.131000
     34 CAK       -10.5520   -5.0190    0.7150 ca        1 11V     -0.109000
     35 H1         -1.1560    0.4690   -0.9200 h1        1 11V      0.043200
     36 H2         -0.9900    1.3390    0.6750 h1        1 11V      0.043200
     37 H3          0.9590    1.9430   -0.6160 h1        1 11V      0.054200
     38 H4          1.2740    0.2050   -1.1290 h1        1 11V      0.054200
     39 H5          2.3220   -0.4410    2.3370 h1        1 11V      0.054200
     40 H6          2.1310   -1.2810    0.7120 h1        1 11V      0.054200
     41 H7         -0.0590   -0.3020    2.6880 h1        1 11V      0.043200
     42 H8          0.2590   -2.0040    2.1140 h1        1 11V      0.043200
     43 H10        -2.7000   -0.8790    0.1670 h1        1 11V      0.046200
     44 H11        -2.4070   -0.3710    1.8940 h1        1 11V      0.046200
     45 H12        -1.8330   -2.6730    2.5470 h1        1 11V      0.087200
     46 H13        -1.7960   -3.2320    0.8340 h1        1 11V      0.087200
     47 H14        -2.6190   -8.0650    3.5530 hn        1 11V      0.438800
     48 H15        -0.6420   -7.9200    4.9390 ha        1 11V      0.143000
     49 H16         1.7760   -7.4130    4.9630 ha        1 11V      0.135000
     50 H17         2.8160   -6.1110    3.1050 ha        1 11V      0.135000
     51 H18         1.4050   -5.3250    1.2010 ha        1 11V      0.135000
     52 H19        -1.0120   -5.8250    1.1320 ha        1 11V      0.143000
     53 H20        -4.9890   -9.0160    3.6390 h4        1 11V      0.051800
     54 H21        -8.2830   -5.0560    2.3040 h1        1 11V      0.088700
     55 H22        -9.0290   -6.2960    3.4350 h1        1 11V      0.088700
     56 H23        -9.0530   -7.9990    1.5720 h1        1 11V      0.093700
     57 H24       -11.3490   -8.2300    1.5750 ha        1 11V      0.140500
     58 H25       -13.6390   -7.3380    1.1870 ha        1 11V      0.135500
     59 H26       -13.9580   -4.9610    0.4950 ha        1 11V      0.134000
     60 H27       -11.9730   -3.4780    0.1860 ha        1 11V      0.135500
     61 H28        -9.6770   -4.3670    0.5650 ha        1 11V      0.140500
@<TRIPOS>BOND
     1    1    2 1   
     2    1    6 1   
     3    1   35 1   
     4    1   36 1   
     5    2    3 1   
     6    2   37 1   
     7    2   38 1   
     8    3    4 1   
     9    4    5 1   
    10    4   39 1   
    11    4   40 1   
    12    5    6 1   
    13    5   41 1   
    14    5   42 1   
    15    6    7 1   
    16    7    8 1   
    17    7   43 1   
    18    7   44 1   
    19    8    9 1   
    20    8   45 1   
    21    8   46 1   
    22    9   10 1   
    23   10   11 ar  
    24   10   20 ar  
    25   11   12 ar  
    26   12   13 1   
    27   12   22 ar  
    28   13   14 1   
    29   13   47 1   
    30   14   15 ar  
    31   14   19 ar  
    32   15   16 ar  
    33   15   48 1   
    34   16   17 ar  
    35   16   49 1   
    36   17   18 ar  
    37   17   50 1   
    38   18   19 ar  
    39   18   51 1   
    40   19   52 1   
    41   20   21 ar  
    42   21   22 ar  
    43   21   25 1   
    44   22   23 1   
    45   23   24 2   
    46   23   53 1   
    47   24   25 1   
    48   25   26 1   
    49   26   27 1   
    50   26   54 1   
    51   26   55 1   
    52   27   28 1   
    53   27   29 1   
    54   27   56 1   
    55   29   30 ar  
    56   29   34 ar  
    57   30   31 ar  
    58   30   57 1   
    59   31   32 ar  
    60   31   58 1   
    61   32   33 ar  
    62   32   59 1   
    63   33   34 ar  
    64   33   60 1   
    65   34   61 1   
@<TRIPOS>SUBSTRUCTURE
     1 11V         1 TEMP              0 ****  ****    0 ROOT
