@<TRIPOS>MOLECULE
11W
   46    47     1     0     0
SMALL
bcc


@<TRIPOS>ATOM
      1 CAK         7.7930   -1.1690    0.8600 ca        1 11W     -0.114500
      2 CAI         9.1430   -0.8710    1.0190 ca        1 11W     -0.138500
      3 CAH         9.6450    0.3720    0.6360 ca        1 11W     -0.141000
      4 CAJ         8.7860    1.3250    0.0930 ca        1 11W     -0.138500
      5 CAL         7.4310    1.0450   -0.0680 ca        1 11W     -0.114500
      6 CAX         6.9140   -0.2100    0.3110 ca        1 11W      0.125400
      7 NAS         5.5510   -0.6240    0.1090 ne        1 11W     -0.249400
      8 NAT         4.6650    0.2350    0.1190 nf        1 11W     -0.183400
      9 CAY         3.3040   -0.1230   -0.0960 ca        1 11W      0.020400
     10 CAP         2.3590    0.9290   -0.0120 ca        1 11W     -0.076500
     11 CAN         1.0100    0.6850   -0.2160 ca        1 11W     -0.170500
     12 CAO         2.8330   -1.4220   -0.3860 ca        1 11W     -0.076500
     13 CAM         1.4820   -1.6530   -0.5890 ca        1 11W     -0.170500
     14 CAW         0.5390   -0.6080   -0.5120 ca        1 11W      0.062200
     15 CAG        -0.8570   -0.8960   -0.7390 ce        1 11W     -0.261200
     16 CAF        -1.8470    0.0180   -0.7320 c2        1 11W     -0.028200
     17 CD1        -3.2640   -0.3140   -0.9980 c3        1 11W     -0.057200
     18 CG         -4.2160    0.6330   -0.2680 c3        1 11W     -0.177700
     19 CD2        -4.0090    2.0500   -0.8630 c         1 11W      0.906600
     20 OAE        -4.7450    2.4660   -1.7980 o         1 11W     -0.858800
     21 OAC        -3.0440    2.7340   -0.3930 o         1 11W     -0.858800
     22 CB         -5.6480    0.1360   -0.3670 c3        1 11W     -0.081400
     23 CA         -6.1680   -0.5920    0.8830 c3        1 11W      0.032500
     24 C          -7.5870   -1.1580    0.5420 c         1 11W      0.915600
     25 O          -8.5970   -0.4980    0.9130 o         1 11W     -0.860800
     26 OXT        -7.6580   -2.2610   -0.0780 o         1 11W     -0.860800
     27 N          -5.3120   -1.6340    1.4280 n3        1 11W     -0.906800
     28 H1          7.4120   -2.1550    1.1670 ha        1 11W      0.146000
     29 H2          9.8170   -1.6250    1.4510 ha        1 11W      0.123000
     30 H3         10.7130    0.5990    0.7630 ha        1 11W      0.120000
     31 H4          9.1760    2.3080   -0.2080 ha        1 11W      0.123000
     32 H5          6.7670    1.8130   -0.4950 ha        1 11W      0.146000
     33 H6          2.6920    1.9540    0.2180 ha        1 11W      0.132500
     34 H7          0.2920    1.5200   -0.1450 ha        1 11W      0.149500
     35 H8          3.5370   -2.2660   -0.4560 ha        1 11W      0.132500
     36 H9          1.1330   -2.6720   -0.8140 ha        1 11W      0.149500
     37 H10        -1.0910   -1.9580   -0.9280 ha        1 11W      0.114000
     38 H11        -1.6700    1.1000   -0.5360 ha        1 11W      0.190000
     39 H12        -3.4440   -0.2040   -2.1050 hc        1 11W      0.049700
     40 H13        -3.4820   -1.3830   -0.7350 hc        1 11W      0.049700
     41 H14        -3.9120    0.6980    0.8120 hc        1 11W      0.043700
     42 H16        -6.3220    1.0150   -0.5510 hc        1 11W      0.053200
     43 H17        -5.7570   -0.5450   -1.2520 hc        1 11W      0.053200
     44 H18        -6.2890    0.1750    1.7020 h1        1 11W      0.042700
     45 H20        -5.5820   -2.5170    1.0270 hn        1 11W      0.324300
     46 H21        -4.3580   -1.4640    1.1700 hn        1 11W      0.324300
@<TRIPOS>BOND
     1    1    2 ar  
     2    1    6 ar  
     3    1   28 1   
     4    2    3 ar  
     5    2   29 1   
     6    3    4 ar  
     7    3   30 1   
     8    4    5 ar  
     9    4   31 1   
    10    5    6 ar  
    11    5   32 1   
    12    6    7 1   
    13    7    8 2   
    14    8    9 1   
    15    9   10 ar  
    16    9   12 ar  
    17   10   11 ar  
    18   10   33 1   
    19   11   14 ar  
    20   11   34 1   
    21   12   13 ar  
    22   12   35 1   
    23   13   14 ar  
    24   13   36 1   
    25   14   15 1   
    26   15   16 2   
    27   15   37 1   
    28   16   17 1   
    29   16   38 1   
    30   17   18 1   
    31   17   39 1   
    32   17   40 1   
    33   18   19 1   
    34   18   22 1   
    35   18   41 1   
    36   19   20 1   
    37   19   21 1   
    38   22   23 1   
    39   22   42 1   
    40   22   43 1   
    41   23   24 1   
    42   23   27 1   
    43   23   44 1   
    44   24   25 1   
    45   24   26 1   
    46   27   45 1   
    47   27   46 1   
@<TRIPOS>SUBSTRUCTURE
     1 11W         1 TEMP              0 ****  ****    0 ROOT
