@<TRIPOS>MOLECULE
11W
   46    36     1     0     0
SMALL
bcc


@<TRIPOS>ATOM
      1 CAK         1.1580   -5.3930    3.1040 c1        1 11W     -0.108333
      2 CAI         1.7100   -5.0780    4.3710 c1        1 11W     -0.137375
      3 CAH         1.0810   -4.1450    5.1910 c1        1 11W     -0.137375
      4 CAJ        -0.1090   -3.5110    4.7590 c1        1 11W     -0.137375
      5 CAL        -0.6580   -3.8220    3.5050 c1        1 11W     -0.137375
      6 CAX        -0.0280   -4.7610    2.6750 c1        1 11W     -0.064000
      7 NAS        -0.6720   -5.1760    1.4190 n1        1 11W     -0.012000
      8 NAT        -0.7250   -4.3930    0.4560 n1        1 11W     -0.012000
      9 CAY        -0.1590   -3.0850    0.5660 c1        1 11W     -0.064000
     10 CAP        -0.9790   -1.9980    0.8790 c1        1 11W     -0.108333
     11 CAN        -0.4610   -0.6980    0.8440 c1        1 11W     -0.108333
     12 CAO         1.1770   -2.8740    0.2190 c1        1 11W     -0.137375
     13 CAM         1.6900   -1.5860    0.1840 c1        1 11W     -0.137375
     14 CAW         0.8590   -0.4870    0.5010 c1        1 11W     -0.064000
     15 CAG         1.4820    0.9750    0.6280 c1        1 11W     -0.137375
     16 CAF         1.1680    1.9510   -0.3130 c1        1 11W     -0.137375
     17 CD1         0.2130    1.6160   -1.4970 c2        1 11W     -0.140000
     18 CG          0.1750    2.7960   -2.4680 c3        1 11W     -0.159000
     19 CD2         0.2280    2.2700   -3.9070 c2        1 11W      0.323000
     20 OAE         1.1980    2.5560   -4.6480 o         1 11W     -0.597000
     21 OAC        -0.7610    1.5500   -4.3750 o         1 11W     -0.597000
     22 CB         -1.1380    3.6070   -2.2560 c3        1 11W     -0.123000
     23 CA         -1.1580    4.7750   -3.1670 c3        1 11W     -0.123000
     24 C          -2.4730    4.7830   -3.9240 c1        1 11W      0.304000
     25 O          -3.5920    4.7620   -3.2720 o         1 11W     -0.617000
     26 OXT        -2.4780    4.8480   -5.1590 os        1 11W     -0.579000
     27 N          -1.0430    6.0060   -2.4020 n3        1 11W     -0.320000
     28 H1          1.6180   -6.0760    2.5030 ha        1 11W      0.145000
     29 H2          2.5050   -5.5020    4.6620 ha        1 11W      0.134625
     30 H3          1.5190   -3.8710    6.1030 ha        1 11W      0.134625
     31 H4         -0.5200   -2.8990    5.2980 ha        1 11W      0.134625
     32 H5         -1.5160   -3.3650    3.1960 ha        1 11W      0.134625
     33 H6         -1.8820   -2.1390    1.1130 ha        1 11W      0.145000
     34 H7         -1.0320    0.0600    1.0630 ha        1 11W      0.145000
     35 H8          1.7750   -3.6680   -0.0100 ha        1 11W      0.134625
     36 H9          2.5740   -1.4390   -0.1320 ha        1 11W      0.134625
     37 H10         2.0980    1.1930    1.3870 ha        1 11W      0.134625
     38 H11         1.5630    2.8740   -0.2300 ha        1 11W      0.134625
     39 H12        -0.6980    1.4390   -1.1490 ha        1 11W      0.090500
     40 H13         0.5550    0.7950   -1.9840 ha        1 11W      0.090500
     41 H14         0.9460    3.3790   -2.3020 hc        1 11W      0.089000
     42 H16        -1.1910    3.9180   -1.3230 hc        1 11W      0.087500
     43 H17        -1.9520    3.0000   -2.4660 hc        1 11W      0.087500
     44 H18        -0.4030    4.7090   -3.8100 h1        1 11W      0.083000
     45 H20        -1.4690    5.8980   -1.5420 hn        1 11W      0.113000
     46 H21        -0.1970    6.2030   -2.2890 hn        1 11W      0.113000
@<TRIPOS>BOND
     1    1    6 1   
     2    1   28 1   
     3    2    3 1   
     4    2   29 1   
     5    3   30 1   
     6    4    5 1   
     7    4   31 1   
     8    5   32 1   
     9    7    8 1   
    10    9   10 1   
    11   10   33 1   
    12   11   14 1   
    13   11   34 1   
    14   12   13 1   
    15   12   35 1   
    16   13   36 1   
    17   15   16 1   
    18   15   37 1   
    19   16   38 1   
    20   17   18 1   
    21   17   39 1   
    22   17   40 1   
    23   18   19 1   
    24   18   22 1   
    25   18   41 1   
    26   19   20 1   
    27   19   21 1   
    28   22   23 1   
    29   22   42 1   
    30   22   43 1   
    31   23   24 1   
    32   23   27 1   
    33   23   44 1   
    34   24   25 1   
    35   27   45 1   
    36   27   46 1   
@<TRIPOS>SUBSTRUCTURE
     1 11W         1 TEMP              0 ****  ****    0 ROOT
