@<TRIPOS>MOLECULE
11X
   26    23     1     0     0
SMALL
bcc


@<TRIPOS>ATOM
      1 N1          1.3210    0.1130   -0.4010 n2        1 11X      0.074000
      2 C10         5.1570    3.3540    1.1470 c2        1 11X     -0.279000
      3 C11         8.0920    3.4790   -0.7040 c1        1 11X      0.168000
      4 C9          4.9560    2.2210    1.8600 c2        1 11X      0.090000
      5 C14         5.7990    1.0930    1.6410 c1        1 11X     -0.129000
      6 C12         8.7150    2.4190   -0.2700 c2        1 11X     -0.559000
      7 C13         6.5200    0.1580    1.4450 c1        1 11X     -0.209000
      8 C2          2.0450    0.1210   -1.4580 c2        1 11X     -0.292000
      9 C4          0.2210   -0.4340    2.8870 c2        1 11X     -0.110000
     10 C5         -0.1750   -0.0160    1.6650 c2        1 11X      0.000000
     11 C6          0.6700    0.2610    0.5930 c1        1 11X     -0.171000
     12 C3          1.5390   -0.7240    3.2530 c1        1 11X     -0.128000
     13 N8          3.9970    2.1060    2.8860 n8        1 11X     -0.317000
     14 H11         5.9770    3.4390    0.4220 ha        1 11X      0.128000
     15 H14         8.2360    1.6870    0.4070 ha        1 11X      0.193000
     16 H12         7.1520   -0.6750    1.2710 ha        1 11X      0.225000
     17 H13         9.7540    2.1580   -0.5230 ha        1 11X      0.193000
     18 H2          1.5870    0.3290   -2.4350 h4        1 11X      0.156000
     19 H4          3.1220   -0.0790   -1.3840 h4        1 11X      0.156000
     20 H5         -0.5340   -0.5640    3.6840 ha        1 11X      0.149000
     21 H6         -1.2420    0.1980    1.4620 ha        1 11X      0.158000
     22 HN8         3.2560    2.7690    2.7990 hn        1 11X      0.183000
     23 C7          2.6610   -0.9770    3.5940 c1        1 11X     -0.217000
     24 H10         4.5310    4.2460    1.2610 ha        1 11X      0.128000
     25 H7          3.6570    1.1760    3.0160 hn        1 11X      0.183000
     26 H7A         3.6490   -1.2080    3.9030 ha        1 11X      0.227000
@<TRIPOS>BOND
     1    1    8 1   
     2    1   11 1   
     3    2    4 1   
     4    2   14 1   
     5    2   24 1   
     6    3    6 1   
     7    4    5 1   
     8    4   13 1   
     9    5    7 1   
    10    6   15 1   
    11    6   17 1   
    12    7   16 1   
    13    8   18 1   
    14    8   19 1   
    15    9   10 1   
    16    9   12 1   
    17    9   20 1   
    18   10   11 1   
    19   10   21 1   
    20   12   23 1   
    21   13   22 1   
    22   13   25 1   
    23   23   26 1   
@<TRIPOS>SUBSTRUCTURE
     1 11X         1 TEMP              0 ****  ****    0 ROOT
