@<TRIPOS>MOLECULE
11X
   27    26     1     0     0
SMALL
bcc


@<TRIPOS>ATOM
      1 N1          0.5420    0.1140   -1.1880 n2        1 11X      0.017000
      2 C10         5.3870    3.0680    1.5020 ca        1 11X     -0.188500
      3 C11         6.0210    3.1040    0.2640 ca        1 11X     -0.096500
      4 C9          5.6760    2.0330    2.4200 ca        1 11X      0.007000
      5 C14         6.6250    1.0520    2.0570 ca        1 11X     -0.188500
      6 C12         6.9500    2.1260   -0.0870 ca        1 11X     -0.156000
      7 C13         7.2500    1.1060    0.8150 ca        1 11X     -0.096500
      8 C2          0.9260    0.1600   -2.3000 c1        1 11X      0.045000
      9 C4          0.9940   -0.1390    2.0140 c2        1 11X      0.169000
     10 C5         -0.1340   -0.0010    1.2180 c2        1 11X     -0.276000
     11 C6         -0.2720    0.1040   -0.1390 c1        1 11X      0.100000
     12 C3          2.3420   -0.2080    1.5850 c2        1 11X     -0.287000
     13 N8          4.9690    1.9270    3.6360 nh        1 11X     -0.333000
     14 H14         6.8970    0.2530    2.7640 ha        1 11X      0.135500
     15 H12         7.9980    0.3420    0.5510 ha        1 11X      0.141500
     16 H13         7.4570    2.1680   -1.0620 ha        1 11X      0.145000
     17 H2          1.1810    0.2120   -3.3460 ha        1 11X      0.332000
     18 H4          2.5640   -0.1500    0.5050 ha        1 11X      0.150000
     19 H5          0.8170   -0.2020    3.1120 ha        1 11X      0.164000
     20 H6         -1.1200    0.0370    1.7390 ha        1 11X      0.208000
     21 HN8         4.5920    2.8050    3.9340 hn        1 11X      0.179500
     22 C7          3.3700   -0.3300    2.4610 c2        1 11X      0.054000
     23 H10         4.6720    3.8610    1.7680 ha        1 11X      0.135500
     24 H7          5.5240    1.5170    4.3610 hn        1 11X      0.179500
     25 H7A         4.4200   -0.3620    2.1190 ha        1 11X      0.159500
     26 H82         3.2240   -0.3850    3.5520 ha        1 11X      0.159500
     27 H11         5.7970    3.9240   -0.4350 ha        1 11X      0.141500
@<TRIPOS>BOND
     1    1    8 1   
     2    1   11 1   
     3    2    3 1   
     4    2    4 1   
     5    2   23 1   
     6    3    6 1   
     7    3   27 1   
     8    4    5 1   
     9    4   13 1   
    10    5    7 1   
    11    5   14 1   
    12    6    7 1   
    13    6   16 1   
    14    7   15 1   
    15    8   17 1   
    16    9   10 1   
    17    9   12 1   
    18    9   19 1   
    19   10   11 1   
    20   10   20 1   
    21   12   18 1   
    22   12   22 1   
    23   13   21 1   
    24   13   24 1   
    25   22   25 1   
    26   22   26 1   
@<TRIPOS>SUBSTRUCTURE
     1 11X         1 TEMP              0 ****  ****    0 ROOT
