@<TRIPOS>MOLECULE
11X
   26    23     1     0     0
SMALL
bcc


@<TRIPOS>ATOM
      1 N1          0.0130    0.2810   -0.4160 n2        1 11X      0.116000
      2 C10         5.4050    3.5480    0.8090 c2        1 11X     -0.281000
      3 C11         8.8010    3.6130    0.1710 c1        1 11X      0.164000
      4 C9          4.9750    2.4500    1.4760 c2        1 11X      0.092000
      5 C14         5.8530    1.3440    1.6610 c1        1 11X     -0.142000
      6 C12         9.2710    2.6220    0.8750 c2        1 11X     -0.556000
      7 C13         6.5990    0.4210    1.8150 c1        1 11X     -0.191000
      8 C2          0.2240    0.7920   -1.4600 c1        1 11X     -0.185000
      9 C4          0.9610   -1.1910    2.3740 c2        1 11X      0.039000
     10 C5         -0.3060   -0.8290    1.7980 c2        1 11X     -0.153000
     11 C6         -0.5440   -0.2300    0.6360 c1        1 11X     -0.173000
     12 C3          2.1910   -0.8660    1.8890 c2        1 11X     -0.288000
     13 N8          3.7070    2.3560    2.0820 n3        1 11X     -0.321000
     14 H11         6.4320    3.6240    0.4290 ha        1 11X      0.128500
     15 H14         8.6110    1.9030    1.3960 ha        1 11X      0.193500
     16 H12         7.2510   -0.4050    1.9540 ha        1 11X      0.229000
     17 H13        10.3400    2.4100    1.0210 ha        1 11X      0.193500
     18 H2          0.1640    1.2660   -2.4140 ha        1 11X      0.291000
     19 H4          2.2780   -0.3150    0.9340 ha        1 11X      0.087000
     20 H5          0.9020   -1.7600    3.3240 ha        1 11X      0.151000
     21 H6         -1.2040   -1.0980    2.3880 ha        1 11X      0.165000
     22 HN8         3.0340    2.9720    1.6800 hn        1 11X      0.179500
     23 C7          3.3390   -1.2880    2.5900 c1        1 11X     -0.103000
     24 H10         4.7680    4.4210    0.6290 ha        1 11X      0.128500
     25 H7          4.2840   -0.7630    2.3800 ha        1 11X      0.053000
     26 H7A         3.3690    1.4190    2.1620 hn        1 11X      0.179500
@<TRIPOS>BOND
     1    1    8 1   
     2    1   11 1   
     3    2    4 1   
     4    2   14 1   
     5    2   24 1   
     6    3    6 1   
     7    4    5 1   
     8    4   13 1   
     9    5    7 1   
    10    6   15 1   
    11    6   17 1   
    12    7   16 1   
    13    8   18 1   
    14    9   10 1   
    15    9   12 1   
    16    9   20 1   
    17   10   11 1   
    18   10   21 1   
    19   12   19 1   
    20   12   23 1   
    21   13   22 1   
    22   13   26 1   
    23   23   25 1   
@<TRIPOS>SUBSTRUCTURE
     1 11X         1 TEMP              0 ****  ****    0 ROOT
