@<TRIPOS>MOLECULE
11X
   26    27     1     0     0
SMALL
bcc


@<TRIPOS>ATOM
      1 N1          3.9420    0.1610   -1.2420 nb        1 11X     -0.664000
      2 C10        -2.6490   -1.3000    0.2680 ca        1 11X     -0.184500
      3 C11        -4.0210   -1.1950    0.0800 ca        1 11X     -0.096000
      4 C9         -1.8300   -0.1450    0.2340 ca        1 11X      0.137600
      5 C14        -2.4420    1.1040   -0.0120 ca        1 11X     -0.184500
      6 C12        -4.6150    0.0450   -0.1560 ca        1 11X     -0.168000
      7 C13        -3.8180    1.1870   -0.2000 ca        1 11X     -0.096000
      8 C2          2.6350    0.4770   -1.1760 ca        1 11X      0.403200
      9 C4          2.4920   -0.1160    1.1570 ca        1 11X     -0.078000
     10 C5          3.8460   -0.4510    1.1020 ca        1 11X     -0.248300
     11 C6          4.5280   -0.2950   -0.1180 ca        1 11X      0.397200
     12 C3          1.8640    0.3580   -0.0000 ca        1 11X     -0.222600
     13 N8         -0.4590   -0.2560    0.5270 nh        1 11X     -0.725600
     14 H11        -4.6430   -2.1020    0.1160 ha        1 11X      0.130000
     15 H14        -1.8400    2.0240   -0.0450 ha        1 11X      0.131500
     16 H12        -5.7000    0.1190   -0.3060 ha        1 11X      0.132000
     17 H13        -4.2790    2.1690   -0.3860 ha        1 11X      0.130000
     18 H2          2.1830    0.8470   -2.1140 h4        1 11X      0.024100
     19 H4          1.9250   -0.2200    2.0950 ha        1 11X      0.151000
     20 H5          4.3720   -0.8260    1.9890 ha        1 11X      0.146000
     21 H6          5.6000   -0.5470   -0.2050 h4        1 11X      0.024100
     22 HN8        -0.1060   -1.1830    0.3990 hn        1 11X      0.395800
     23 C7          0.4240    0.7670    0.0030 c3        1 11X      0.233100
     24 H10        -2.2030   -2.2890    0.4530 ha        1 11X      0.131500
     25 H7          0.3130    1.6760    0.6670 h1        1 11X      0.050700
     26 H7A         0.1230    1.0780   -1.0420 h1        1 11X      0.050700
@<TRIPOS>BOND
     1    1    8 ar  
     2    1   11 ar  
     3    2    3 ar  
     4    2    4 ar  
     5    2   24 1   
     6    3    6 ar  
     7    3   14 1   
     8    4    5 ar  
     9    4   13 1   
    10    5    7 ar  
    11    5   15 1   
    12    6    7 ar  
    13    6   16 1   
    14    7   17 1   
    15    8   12 ar  
    16    8   18 1   
    17    9   10 ar  
    18    9   12 ar  
    19    9   19 1   
    20   10   11 ar  
    21   10   20 1   
    22   11   21 1   
    23   12   23 1   
    24   13   22 1   
    25   13   23 1   
    26   23   25 1   
    27   23   26 1   
@<TRIPOS>SUBSTRUCTURE
     1 11X         1 TEMP              0 ****  ****    0 ROOT
