@<TRIPOS>MOLECULE
11X
   26    21     1     0     0
SMALL
bcc


@<TRIPOS>ATOM
      1 N1         -4.0070   -0.0680   -1.2730 n1        1 11X     -0.463800
      2 C10         2.3860    0.9430    1.0150 c1        1 11X     -0.128500
      3 C11         3.7720    0.9290    0.9890 c1        1 11X     -0.075000
      4 C9          1.6680    0.4150   -0.0460 c1        1 11X      0.112800
      5 C14         2.3350   -0.1280   -1.1330 c1        1 11X     -0.075000
      6 C12         4.4390    0.3860   -0.0980 c1        1 11X     -0.075000
      7 C13         3.7200   -0.1420   -1.1590 c1        1 11X     -0.075000
      8 C2         -2.6460   -0.1270   -1.2330 c1        1 11X      0.327300
      9 C4         -2.7200   -0.4890    1.1210 c1        1 11X     -0.026500
     10 C5         -4.0840   -0.4300    1.0790 c1        1 11X     -0.075000
     11 C6         -4.7310   -0.2180   -0.1290 c1        1 11X     -0.075000
     12 C7         -0.5250   -0.6960   -0.0750 c3        1 11X      0.199900
     13 C3         -1.9960   -0.3390   -0.0260 c1        1 11X     -0.124100
     14 N8          0.2530    0.4930   -0.0510 n3        1 11X     -0.700800
     15 H10         1.9160    1.3250    1.7800 ha        1 11X      0.073500
     16 H11         4.2780    1.3010    1.7360 ha        1 11X      0.080667
     17 H14         1.8290   -0.5000   -1.8800 ha        1 11X      0.080667
     18 H12         5.4140    0.3760   -0.1160 ha        1 11X      0.080667
     19 H13         4.1900   -0.5240   -1.9240 ha        1 11X      0.080667
     20 H2         -2.1280   -0.0190   -2.0530 ha        1 11X      0.114500
     21 H4         -2.2640   -0.6390    1.9700 ha        1 11X      0.082500
     22 H5         -4.6020   -0.5370    1.8990 ha        1 11X      0.080667
     23 H6         -5.7060   -0.1750   -0.1590 ha        1 11X      0.080667
     24 H7         -0.2980   -1.2510    0.7010 h1        1 11X      0.050200
     25 H7A        -0.3360   -1.1930   -0.8980 h1        1 11X      0.050200
     26 HN8        -0.1590    1.3060   -0.0380 hn        1 11X      0.396800
@<TRIPOS>BOND
     1    1    8 3   
     2    2    4 3   
     3    2   15 1   
     4    3    6 3   
     5    3   16 1   
     6    4   14 1   
     7    5    7 3   
     8    5   17 1   
     9    6   18 1   
    10    7   19 1   
    11    8   20 1   
    12    9   13 3   
    13    9   21 1   
    14   10   11 3   
    15   10   22 1   
    16   11   23 1   
    17   12   13 1   
    18   12   14 1   
    19   12   24 1   
    20   12   25 1   
    21   14   26 1   
@<TRIPOS>SUBSTRUCTURE
     1 11X         1 TEMP              0 ****  ****    0 ROOT
