@<TRIPOS>MOLECULE
11Y
   43    46     1     0     0
SMALL
bcc


@<TRIPOS>ATOM
      1 OAA         1.7150   -2.5010   -0.0500 o         1 11Y     -0.806800
      2 CAS         1.4660   -1.2870   -0.2780 c         1 11Y      0.919200
      3 OAD         0.7390   -0.5380    0.4240 o         1 11Y     -0.806800
      4 CBC         2.1420   -0.6690   -1.5100 ca        1 11Y     -0.072600
      5 CAQ         3.4790   -0.2790   -1.3990 ca        1 11Y     -0.126000
      6 CAY         1.4870   -0.5100   -2.7350 ca        1 11Y      0.026400
      7 CLA        -0.1390   -0.9740   -2.9350 cl        1 11Y     -0.103400
      8 CAM         2.1590    0.0320   -3.8360 ca        1 11Y     -0.130000
      9 CAN         3.4920    0.4090   -3.7300 ca        1 11Y     -0.179000
     10 CBB         4.1730    0.2550   -2.5020 ca        1 11Y      0.010600
     11 NBE         5.5360    0.6470   -2.4100 n         1 11Y     -0.340000
     12 CBD         6.4200    0.4220   -3.5840 c3        1 11Y      0.220200
     13 CBA         6.4280    1.5710   -4.5330 cc        1 11Y     -0.137400
     14 SAR         6.4470    3.1860   -4.0920 ss        1 11Y      0.158200
     15 CAO         6.4680    3.7370   -5.6490 cc        1 11Y     -0.177100
     16 CAX         6.4510    2.6970   -6.5660 cd        1 11Y     -0.069900
     17 BRA         6.4630    2.8980   -8.4020 br        1 11Y     -0.071100
     18 CAP         6.4210    1.4280   -5.9110 cd        1 11Y     -0.124000
     19 CAV         6.2980    0.5660   -1.2330 c         1 11Y      0.662700
     20 OAC         5.9540    0.7270   -0.0570 o         1 11Y     -0.575500
     21 CAU         7.7390    0.3140   -1.6450 ce        1 11Y      0.064900
     22 OAE         8.7340    0.1820   -0.7380 oh        1 11Y     -0.455100
     23 CAW         7.8190    0.1900   -2.9940 cf        1 11Y     -0.266400
     24 CAT         8.9860   -0.0990   -3.8300 c         1 11Y      0.620900
     25 OAB        10.0000    0.6100   -3.8140 o         1 11Y     -0.519100
     26 CAZ         8.8930   -1.2940   -4.7020 ca        1 11Y     -0.166600
     27 CAK         9.6880   -1.3600   -5.8540 ca        1 11Y     -0.082500
     28 CAI         9.6210   -2.4760   -6.6860 ca        1 11Y     -0.145000
     29 CAH         8.7710   -3.5350   -6.3680 ca        1 11Y     -0.109000
     30 CAJ         7.9870   -3.4780   -5.2160 ca        1 11Y     -0.145000
     31 CAL         8.0440   -2.3610   -4.3850 ca        1 11Y     -0.082500
     32 H2          3.9720   -0.4030   -0.4200 ha        1 11Y      0.165000
     33 H3          1.6380    0.1610   -4.7960 ha        1 11Y      0.127000
     34 H4          4.0020    0.8280   -4.6100 ha        1 11Y      0.125000
     35 H5          6.0850   -0.5070   -4.1380 h1        1 11Y      0.095700
     36 H6          6.4840    4.7960   -5.9050 h4        1 11Y      0.178000
     37 H7          6.3940    0.4730   -6.4420 ha        1 11Y      0.166000
     38 H8          8.3280    0.2910    0.1430 ho        1 11Y      0.449000
     39 H9         10.3640   -0.5220   -6.0900 ha        1 11Y      0.149500
     40 H10        10.2420   -2.5200   -7.5930 ha        1 11Y      0.136000
     41 H11         8.7190   -4.4150   -7.0260 ha        1 11Y      0.130000
     42 H12         7.3180   -4.3140   -4.9620 ha        1 11Y      0.136000
     43 H13         7.4260   -2.3220   -3.4730 ha        1 11Y      0.149500
@<TRIPOS>BOND
     1    1    2 1   
     2    2    3 1   
     3    2    4 1   
     4    4    5 ar  
     5    4    6 ar  
     6    5   10 ar  
     7    5   32 1   
     8    6    7 1   
     9    6    8 ar  
    10    8    9 ar  
    11    8   33 1   
    12    9   10 ar  
    13    9   34 1   
    14   10   11 1   
    15   11   12 1   
    16   11   19 1   
    17   12   13 1   
    18   12   23 1   
    19   12   35 1   
    20   13   14 1   
    21   13   18 2   
    22   14   15 1   
    23   15   16 2   
    24   15   36 1   
    25   16   17 1   
    26   16   18 1   
    27   18   37 1   
    28   19   20 2   
    29   19   21 1   
    30   21   22 1   
    31   21   23 2   
    32   22   38 1   
    33   23   24 1   
    34   24   25 2   
    35   24   26 1   
    36   26   27 ar  
    37   26   31 ar  
    38   27   28 ar  
    39   27   39 1   
    40   28   29 ar  
    41   28   40 1   
    42   29   30 ar  
    43   29   41 1   
    44   30   31 ar  
    45   30   42 1   
    46   31   43 1   
@<TRIPOS>SUBSTRUCTURE
     1 11Y         1 TEMP              0 ****  ****    0 ROOT
