@<TRIPOS>MOLECULE
11Y
   43    46     1     0     0
SMALL
bcc


@<TRIPOS>ATOM
      1 OAA         1.7160   -2.5190   -0.0850 o         1 11Y     -0.806800
      2 CAS         1.4680   -1.3020   -0.2970 c         1 11Y      0.919200
      3 OAD         0.7430   -0.5620    0.4150 o         1 11Y     -0.806800
      4 CBC         2.1430   -0.6690   -1.5210 ca        1 11Y     -0.072600
      5 CAQ         3.4820   -0.2860   -1.4090 ca        1 11Y     -0.126000
      6 CAY         1.4870   -0.4910   -2.7430 ca        1 11Y      0.026400
      7 CLA        -0.1410   -0.9470   -2.9460 cl        1 11Y     -0.103400
      8 CAM         2.1590    0.0630   -3.8380 ca        1 11Y     -0.130000
      9 CAN         3.4930    0.4340   -3.7300 ca        1 11Y     -0.179000
     10 CBB         4.1760    0.2610   -2.5060 ca        1 11Y      0.010600
     11 NBE         5.5410    0.6460   -2.4110 n         1 11Y     -0.340000
     12 CBD         6.4240    0.4200   -3.5860 c3        1 11Y      0.220200
     13 CBA         6.4410    1.5730   -4.5290 cc        1 11Y     -0.137400
     14 SAR         6.4730    3.1860   -4.0810 ss        1 11Y      0.158200
     15 CAO         6.4970    3.7430   -5.6360 cc        1 11Y     -0.177100
     16 CAX         6.4720    2.7080   -6.5570 cd        1 11Y     -0.069900
     17 BRA         6.4850    2.9170   -8.3920 br        1 11Y     -0.071100
     18 CAP         6.4320    1.4360   -5.9080 cd        1 11Y     -0.124000
     19 CAV         6.3010    0.5540   -1.2340 c         1 11Y      0.662700
     20 OAC         5.9580    0.7130   -0.0570 o         1 11Y     -0.575500
     21 CAU         7.7420    0.2930   -1.6470 ce        1 11Y      0.064900
     22 OAE         8.7350    0.1510   -0.7400 oh        1 11Y     -0.455100
     23 CAW         7.8200    0.1740   -2.9960 cf        1 11Y     -0.266400
     24 CAT         8.9860   -0.1190   -3.8330 c         1 11Y      0.620900
     25 OAB        10.0050    0.5820   -3.8140 o         1 11Y     -0.519100
     26 CAZ         8.8840   -1.3110   -4.7090 ca        1 11Y     -0.166600
     27 CAK         9.6800   -1.3790   -5.8610 ca        1 11Y     -0.082500
     28 CAI         9.6060   -2.4920   -6.6960 ca        1 11Y     -0.145000
     29 CAH         8.7480   -3.5460   -6.3820 ca        1 11Y     -0.109000
     30 CAJ         7.9620   -3.4870   -5.2300 ca        1 11Y     -0.145000
     31 CAL         8.0280   -2.3720   -4.3950 ca        1 11Y     -0.082500
     32 H2          3.9770   -0.4240   -0.4320 ha        1 11Y      0.165000
     33 H3          1.6370    0.2070   -4.7950 ha        1 11Y      0.127000
     34 H4          4.0040    0.8620   -4.6050 ha        1 11Y      0.125000
     35 H5          6.0830   -0.5040   -4.1440 h1        1 11Y      0.095700
     36 H6          6.5230    4.8040   -5.8870 h4        1 11Y      0.178000
     37 H7          6.3970    0.4840   -6.4440 ha        1 11Y      0.166000
     38 H8          8.3290    0.2580    0.1410 ho        1 11Y      0.449000
     39 H9         10.3630   -0.5460   -6.0920 ha        1 11Y      0.149500
     40 H10        10.2270   -2.5390   -7.6020 ha        1 11Y      0.136000
     41 H11         8.6900   -4.4240   -7.0420 ha        1 11Y      0.130000
     42 H12         7.2870   -4.3180   -4.9790 ha        1 11Y      0.136000
     43 H13         7.4090   -2.3320   -3.4840 ha        1 11Y      0.149500
@<TRIPOS>BOND
     1    1    2 1   
     2    2    3 1   
     3    2    4 1   
     4    4    5 ar  
     5    4    6 ar  
     6    5   10 ar  
     7    5   32 1   
     8    6    7 1   
     9    6    8 ar  
    10    8    9 ar  
    11    8   33 1   
    12    9   10 ar  
    13    9   34 1   
    14   10   11 1   
    15   11   12 1   
    16   11   19 1   
    17   12   13 1   
    18   12   23 1   
    19   12   35 1   
    20   13   14 1   
    21   13   18 2   
    22   14   15 1   
    23   15   16 2   
    24   15   36 1   
    25   16   17 1   
    26   16   18 1   
    27   18   37 1   
    28   19   20 2   
    29   19   21 1   
    30   21   22 1   
    31   21   23 2   
    32   22   38 1   
    33   23   24 1   
    34   24   25 2   
    35   24   26 1   
    36   26   27 ar  
    37   26   31 ar  
    38   27   28 ar  
    39   27   39 1   
    40   28   29 ar  
    41   28   40 1   
    42   29   30 ar  
    43   29   41 1   
    44   30   31 ar  
    45   30   42 1   
    46   31   43 1   
@<TRIPOS>SUBSTRUCTURE
     1 11Y         1 TEMP              0 ****  ****    0 ROOT
