@<TRIPOS>MOLECULE
11Y
   43    46     1     0     0
SMALL
bcc


@<TRIPOS>ATOM
      1 OAA         1.7480   -2.5590   -0.0590 o         1 11Y     -0.806800
      2 CAS         1.4900   -1.3450   -0.2710 c         1 11Y      0.919200
      3 OAD         0.7630   -0.6100    0.4440 o         1 11Y     -0.806800
      4 CBC         2.1550   -0.7070   -1.4990 ca        1 11Y     -0.072600
      5 CAQ         3.4910   -0.3120   -1.3920 ca        1 11Y     -0.126000
      6 CAY         1.4920   -0.5350   -2.7180 ca        1 11Y      0.026400
      7 ClA        -0.1330   -1.0050   -2.9140 cl        1 11Y     -0.103400
      8 CAM         2.1550    0.0230   -3.8160 ca        1 11Y     -0.130000
      9 CAN         3.4860    0.4060   -3.7140 ca        1 11Y     -0.179000
     10 CBB         4.1750    0.2390   -2.4920 ca        1 11Y      0.010600
     11 NBE         5.5370    0.6360   -2.4040 n         1 11Y     -0.340000
     12 CBD         6.4160    0.4230   -3.5840 c3        1 11Y      0.220200
     13 CBA         6.4180    1.5790   -4.5230 cc        1 11Y     -0.137400
     14 SAR         6.4340    3.1910   -4.0700 ss        1 11Y      0.158200
     15 CAO         6.4460    3.7530   -5.6230 cc        1 11Y     -0.177100
     16 CAX         6.4270    2.7200   -6.5480 cd        1 11Y     -0.069900
     17 BrA         6.4290    2.9350   -8.3820 br        1 11Y     -0.071100
     18 CAP         6.4040    1.4460   -5.9020 cd        1 11Y     -0.124000
     19 CAV         6.3050    0.5490   -1.2310 c         1 11Y      0.662700
     20 OAC         5.9670    0.7000   -0.0520 o         1 11Y     -0.575500
     21 CAU         7.7460    0.3030   -1.6520 ce        1 11Y      0.064900
     22 OAE         8.7450    0.1680   -0.7510 oh        1 11Y     -0.455100
     23 CAW         7.8190    0.1890   -3.0010 cf        1 11Y     -0.266400
     24 CAT         8.9820   -0.0900   -3.8460 c         1 11Y      0.620900
     25 OAB         9.9950    0.6220   -3.8290 o         1 11Y     -0.519100
     26 CAZ         8.8880   -1.2790   -4.7250 ca        1 11Y     -0.166600
     27 CAK         9.6780   -1.3350   -5.8810 ca        1 11Y     -0.082500
     28 CAI         9.6110   -2.4460   -6.7210 ca        1 11Y     -0.145000
     29 CAH         8.7650   -3.5090   -6.4060 ca        1 11Y     -0.109000
     30 CAJ         7.9850   -3.4620   -5.2500 ca        1 11Y     -0.145000
     31 CAL         8.0440   -2.3500   -4.4110 ca        1 11Y     -0.082500
     32 H2          3.9910   -0.4460   -0.4170 ha        1 11Y      0.165000
     33 H3          1.6270    0.1620   -4.7710 ha        1 11Y      0.127000
     34 H4          3.9900    0.8380   -4.5910 ha        1 11Y      0.125000
     35 H5          6.0820   -0.5030   -4.1430 h1        1 11Y      0.095700
     36 H6          6.4590    4.8150   -5.8720 h4        1 11Y      0.178000
     37 H7          6.3760    0.4960   -6.4410 ha        1 11Y      0.166000
     38 H8          8.3430    0.2690    0.1330 ho        1 11Y      0.449000
     39 H9         10.3510   -0.4950   -6.1140 ha        1 11Y      0.149500
     40 H10        10.2280   -2.4830   -7.6300 ha        1 11Y      0.136000
     41 H11         8.7120   -4.3860   -7.0690 ha        1 11Y      0.130000
     42 H12         7.3200   -4.3010   -4.9980 ha        1 11Y      0.136000
     43 H13         7.4300   -2.3190   -3.4970 ha        1 11Y      0.149500
@<TRIPOS>BOND
     1    1    2 1   
     2    2    3 1   
     3    2    4 1   
     4    4    5 ar  
     5    4    6 ar  
     6    5   10 ar  
     7    5   32 1   
     8    6    7 1   
     9    6    8 ar  
    10    8    9 ar  
    11    8   33 1   
    12    9   10 ar  
    13    9   34 1   
    14   10   11 1   
    15   11   12 1   
    16   11   19 1   
    17   12   13 1   
    18   12   23 1   
    19   12   35 1   
    20   13   14 1   
    21   13   18 2   
    22   14   15 1   
    23   15   16 2   
    24   15   36 1   
    25   16   17 1   
    26   16   18 1   
    27   18   37 1   
    28   19   20 2   
    29   19   21 1   
    30   21   22 1   
    31   21   23 2   
    32   22   38 1   
    33   23   24 1   
    34   24   25 2   
    35   24   26 1   
    36   26   27 ar  
    37   26   31 ar  
    38   27   28 ar  
    39   27   39 1   
    40   28   29 ar  
    41   28   40 1   
    42   29   30 ar  
    43   29   41 1   
    44   30   31 ar  
    45   30   42 1   
    46   31   43 1   
@<TRIPOS>SUBSTRUCTURE
     1 11Y         1 TEMP              0 ****  ****    0 ROOT
