@<TRIPOS>MOLECULE
11Z
   50    50     1     0     0
SMALL
bcc


@<TRIPOS>ATOM
      1 C4          0.0870   -0.1300   -0.0690 c3        1 11Z     -0.076400
      2 C5         -2.5140    0.2910   -2.8740 c3        1 11Z     -0.075900
      3 C6         -0.8530   -1.4390   -3.5760 c3        1 11Z     -0.075900
      4 C7         -2.3150   -1.0420   -3.5670 c3        1 11Z     -0.075400
      5 C8          1.6000   -0.0920   -0.0310 c3        1 11Z     -0.079400
      6 C9          2.1110   -0.0740    1.3940 c3        1 11Z     -0.079400
      7 C10         3.6230   -0.0410    1.4360 c3        1 11Z     -0.078400
      8 C11         4.1350   -0.0210    2.8600 c3        1 11Z     -0.079400
      9 C12         5.6480    0.0110    2.9040 c3        1 11Z     -0.078400
     10 C13         6.1600    0.0310    4.3280 c3        1 11Z     -0.078400
     11 C14         7.6730    0.0630    4.3740 c3        1 11Z     -0.078400
     12 C15         8.1840    0.0750    5.8000 c3        1 11Z     -0.065400
     13 O2          9.7140   -0.9830    8.0020 o         1 11Z     -0.853800
     14 C17        10.2030   -0.0520    7.2970 c         1 11Z      0.907600
     15 O1         11.1080    0.7350    7.7010 o         1 11Z     -0.853800
     16 C16         9.6910    0.1260    5.8570 c3        1 11Z     -0.193400
     17 C1         -0.4580   -0.1050   -1.4890 c3        1 11Z     -0.063700
     18 C3         -0.2760   -1.4510   -2.1760 c3        1 11Z     -0.073400
     19 C2         -1.9330    0.2790   -1.4760 c3        1 11Z     -0.073400
     20 H1         -0.3140    0.7560    0.4930 hc        1 11Z      0.039200
     21 H2         -0.2810   -1.0490    0.4580 hc        1 11Z      0.039200
     22 H3         -3.6080    0.5280   -2.8220 hc        1 11Z      0.036200
     23 H4         -2.0220    1.1000   -3.4760 hc        1 11Z      0.036200
     24 H5         -0.7430   -2.4560   -4.0350 hc        1 11Z      0.036200
     25 H6         -0.2750   -0.7180   -4.2130 hc        1 11Z      0.036200
     26 H7         -2.6960   -0.9800   -4.6190 hc        1 11Z      0.035700
     27 H8         -2.9120   -1.8300   -3.0370 hc        1 11Z      0.035700
     28 H9          1.9680    0.8190   -0.5730 hc        1 11Z      0.038200
     29 H10         2.0160   -0.9860   -0.5660 hc        1 11Z      0.038200
     30 H11         1.7390   -0.9820    1.9380 hc        1 11Z      0.038200
     31 H12         1.7010    0.8230    1.9290 hc        1 11Z      0.038200
     32 H13         3.9950    0.8660    0.8900 hc        1 11Z      0.036700
     33 H14         4.0340   -0.9380    0.9020 hc        1 11Z      0.036700
     34 H15         3.7630   -0.9270    3.4070 hc        1 11Z      0.037200
     35 H16         3.7260    0.8770    3.3940 hc        1 11Z      0.037200
     36 H17         6.0580   -0.8870    2.3700 hc        1 11Z      0.034200
     37 H18         6.0210    0.9170    2.3580 hc        1 11Z      0.034200
     38 H19         5.7500    0.9280    4.8620 hc        1 11Z      0.036700
     39 H20         5.7890   -0.8760    4.8750 hc        1 11Z      0.036700
     40 H21         8.0450    0.9720    3.8330 hc        1 11Z      0.025700
     41 H22         8.0830   -0.8320    3.8360 hc        1 11Z      0.025700
     42 H23         7.8350   -0.8430    6.3430 hc        1 11Z      0.043700
     43 H24         7.7600    0.9610    6.3420 hc        1 11Z      0.043700
     44 H26        10.1250   -0.6990    5.2360 hc        1 11Z      0.018700
     45 H27        10.0650    1.0970    5.4480 hc        1 11Z      0.018700
     46 H28         0.1040    0.6730   -2.0790 hc        1 11Z      0.047700
     47 H29        -0.7790   -2.2500   -1.5700 hc        1 11Z      0.039950
     48 H30         0.8160   -1.7020   -2.2250 hc        1 11Z      0.039950
     49 H31        -2.0500    1.2940   -1.0150 hc        1 11Z      0.039950
     50 H32        -2.4990   -0.4490   -0.8380 hc        1 11Z      0.039950
@<TRIPOS>BOND
     1    1    5 1   
     2    1   17 1   
     3    1   20 1   
     4    1   21 1   
     5    2    4 1   
     6    2   19 1   
     7    2   22 1   
     8    2   23 1   
     9    3    4 1   
    10    3   18 1   
    11    3   24 1   
    12    3   25 1   
    13    4   26 1   
    14    4   27 1   
    15    5    6 1   
    16    5   28 1   
    17    5   29 1   
    18    6    7 1   
    19    6   30 1   
    20    6   31 1   
    21    7    8 1   
    22    7   32 1   
    23    7   33 1   
    24    8    9 1   
    25    8   34 1   
    26    8   35 1   
    27    9   10 1   
    28    9   36 1   
    29    9   37 1   
    30   10   11 1   
    31   10   38 1   
    32   10   39 1   
    33   11   12 1   
    34   11   40 1   
    35   11   41 1   
    36   12   16 1   
    37   12   42 1   
    38   12   43 1   
    39   13   14 1   
    40   14   15 1   
    41   14   16 1   
    42   16   44 1   
    43   16   45 1   
    44   17   18 1   
    45   17   19 1   
    46   17   46 1   
    47   18   47 1   
    48   18   48 1   
    49   19   49 1   
    50   19   50 1   
@<TRIPOS>SUBSTRUCTURE
     1 11Z         1 TEMP              0 ****  ****    0 ROOT
