@<TRIPOS>MOLECULE
11Z
   50    50     1     0     0
SMALL
bcc


@<TRIPOS>ATOM
      1 C4          0.0810   -0.1950   -0.0570 c3        1 11Z     -0.076400
      2 C5         -2.5480    0.2870   -2.8250 c3        1 11Z     -0.075900
      3 C6         -0.8210   -1.3260   -3.6350 c3        1 11Z     -0.075900
      4 C7         -2.2970   -0.9920   -3.5980 c3        1 11Z     -0.075400
      5 C8          1.5910   -0.0960   -0.0200 c3        1 11Z     -0.079400
      6 C9          2.1080   -0.1440    1.4030 c3        1 11Z     -0.079400
      7 C10         3.6180   -0.0500    1.4440 c3        1 11Z     -0.078400
      8 C11         4.1350   -0.0970    2.8650 c3        1 11Z     -0.079400
      9 C12         5.6450   -0.0030    2.9080 c3        1 11Z     -0.078400
     10 C13         6.1630   -0.0500    4.3290 c3        1 11Z     -0.078400
     11 C14         7.6730    0.0440    4.3740 c3        1 11Z     -0.078400
     12 C15         8.1900    0.0060    5.7970 c3        1 11Z     -0.065400
     13 O2          9.6340    1.0800    8.0490 o         1 11Z     -0.853800
     14 C17        10.1960    0.2290    7.3000 c         1 11Z      0.907600
     15 O1         11.1650   -0.4980    7.6650 o         1 11Z     -0.853800
     16 C16         9.6960    0.0800    5.8520 c3        1 11Z     -0.193400
     17 C1         -0.4710   -0.1070   -1.4710 c3        1 11Z     -0.063700
     18 C3         -0.2360   -1.4000   -2.2390 c3        1 11Z     -0.073400
     19 C2         -1.9600    0.2150   -1.4310 c3        1 11Z     -0.073400
     20 H1         -0.3540    0.6370    0.5590 hc        1 11Z      0.039200
     21 H2         -0.2450   -1.1590    0.4140 hc        1 11Z      0.039200
     22 H3         -3.6510    0.4750   -2.7570 hc        1 11Z      0.036450
     23 H4         -2.0930    1.1510   -3.3770 hc        1 11Z      0.036450
     24 H5         -0.2760   -0.5450   -4.2270 hc        1 11Z      0.036450
     25 H6         -0.6710   -2.3080   -4.1550 hc        1 11Z      0.036450
     26 H7         -2.8590   -1.8350   -3.1160 hc        1 11Z      0.035700
     27 H8         -2.6860   -0.8820   -4.6440 hc        1 11Z      0.035700
     28 H9          2.0420   -0.9360   -0.6100 hc        1 11Z      0.038700
     29 H10         1.9180    0.8620   -0.5040 hc        1 11Z      0.038700
     30 H11         1.7780   -1.1000    1.8900 hc        1 11Z      0.038200
     31 H12         1.6630    0.6990    1.9940 hc        1 11Z      0.038200
     32 H13         3.9480    0.9050    0.9560 hc        1 11Z      0.036700
     33 H14         4.0640   -0.8930    0.8530 hc        1 11Z      0.036700
     34 H15         3.6900    0.7460    3.4560 hc        1 11Z      0.037200
     35 H16         3.8050   -1.0520    3.3540 hc        1 11Z      0.037200
     36 H17         6.0910   -0.8460    2.3170 hc        1 11Z      0.034200
     37 H18         5.9760    0.9520    2.4190 hc        1 11Z      0.034200
     38 H19         5.8320   -1.0030    4.8180 hc        1 11Z      0.036700
     39 H20         5.7190    0.7950    4.9200 hc        1 11Z      0.036700
     40 H21         8.1190   -0.8030    3.7880 hc        1 11Z      0.025700
     41 H22         8.0040    0.9960    3.8810 hc        1 11Z      0.025700
     42 H23         7.8440   -0.9380    6.2950 hc        1 11Z      0.043700
     43 H24         7.7660    0.8640    6.3850 hc        1 11Z      0.043700
     44 H26        10.0560    0.9670    5.2720 hc        1 11Z      0.018700
     45 H27        10.1480   -0.8360    5.3960 hc        1 11Z      0.018700
     46 H28         0.0560    0.7280   -2.0130 hc        1 11Z      0.047700
     47 H29         0.8640   -1.6010   -2.3050 hc        1 11Z      0.039950
     48 H30        -0.7030   -2.2540   -1.6820 hc        1 11Z      0.039950
     49 H31        -2.4930   -0.5740   -0.8380 hc        1 11Z      0.039950
     50 H32        -2.1170    1.1940   -0.9090 hc        1 11Z      0.039950
@<TRIPOS>BOND
     1    1    5 1   
     2    1   17 1   
     3    1   20 1   
     4    1   21 1   
     5    2    4 1   
     6    2   19 1   
     7    2   22 1   
     8    2   23 1   
     9    3    4 1   
    10    3   18 1   
    11    3   24 1   
    12    3   25 1   
    13    4   26 1   
    14    4   27 1   
    15    5    6 1   
    16    5   28 1   
    17    5   29 1   
    18    6    7 1   
    19    6   30 1   
    20    6   31 1   
    21    7    8 1   
    22    7   32 1   
    23    7   33 1   
    24    8    9 1   
    25    8   34 1   
    26    8   35 1   
    27    9   10 1   
    28    9   36 1   
    29    9   37 1   
    30   10   11 1   
    31   10   38 1   
    32   10   39 1   
    33   11   12 1   
    34   11   40 1   
    35   11   41 1   
    36   12   16 1   
    37   12   42 1   
    38   12   43 1   
    39   13   14 1   
    40   14   15 1   
    41   14   16 1   
    42   16   44 1   
    43   16   45 1   
    44   17   18 1   
    45   17   19 1   
    46   17   46 1   
    47   18   47 1   
    48   18   48 1   
    49   19   49 1   
    50   19   50 1   
@<TRIPOS>SUBSTRUCTURE
     1 11Z         1 TEMP              0 ****  ****    0 ROOT
