@<TRIPOS>MOLECULE
120
   31    23     1     0     0
SMALL
bcc


@<TRIPOS>ATOM
      1 C1         -0.5140    0.4690   -2.9470 c1        1 120     -0.206000
      2 C2          0.8860    0.6080   -2.9170 c1        1 120     -0.103750
      3 C3          1.5650    0.6140   -1.6870 c1        1 120     -0.103750
      4 C4          0.8650    0.4840   -0.5200 c1        1 120     -0.023500
      5 C5         -0.4960    0.3490   -0.5510 c1        1 120     -0.023500
      6 C6         -1.1930    0.3430   -1.8190 c1        1 120     -0.021000
      7 C7         -1.1970    0.3670   -4.2700 c2        1 120      0.351000
      8 N1         -1.5730    1.5910   -4.9970 n3        1 120     -0.323000
      9 N2         -1.4750   -0.8590   -4.8050 n2        1 120     -0.323000
     10 N3          1.2660    0.4590    0.8000 n1        1 120     -0.176500
     11 N4         -0.9410    0.2400    0.7490 n1        1 120     -0.176500
     12 C8          0.1480    0.3080    1.5800 c2        1 120      0.130000
     13 C1'         0.2460   -0.1810    2.9360 c1        1 120     -0.196000
     14 C2'         0.5490    0.6770    3.9410 c1        1 120     -0.103750
     15 C3'         0.7580    0.2090    5.1850 c1        1 120     -0.103750
     16 C4'         0.6630   -1.1690    5.4460 c1        1 120      0.055000
     17 N5'         0.3570   -2.0410    4.4350 n2        1 120     -0.258000
     18 C6'         0.1490   -1.5820    3.2000 c1        1 120      0.338000
     19 O6'        -0.1520   -2.4280    2.2130 o         1 120     -0.390000
     20 HC2         1.3860    0.7040   -3.7500 ha        1 120      0.164000
     21 HC3         2.5770    0.7100   -1.6640 ha        1 120      0.164000
     22 HC6        -2.2030    0.2440   -1.8460 ha        1 120      0.158000
     23 HH11       -1.7480    1.5650   -5.8870 hn        1 120      0.274000
     24 HH12       -1.5920    2.3230   -4.5850 hn        1 120      0.274000
     25 HH21       -1.2520   -1.6360   -4.3710 DU        1 120      0.296000
     26 HH22       -1.8700   -0.9020   -5.5700 hn        1 120      0.263000
     27 HN3         2.0970    0.5300    1.0920 DU        1 120      0.296000
     28 HC2'        0.6160    1.6520    3.7600 ha        1 120      0.164000
     29 HC3'        0.9770    0.8330    5.9120 ha        1 120      0.164000
     30 HC4'        0.8100   -1.4940    6.3220 ha        1 120      0.174000
     31 HN5'        0.2920   -2.9870    4.6160 hn        1 120      0.267000
@<TRIPOS>BOND
     1    1    6 1   
     2    1    7 1   
     3    2    3 1   
     4    2   20 1   
     5    3   21 1   
     6    4    5 1   
     7    6   22 1   
     8    7    8 1   
     9    7    9 1   
    10    8   23 1   
    11    8   24 1   
    12    9   26 1   
    13   10   12 1   
    14   11   12 1   
    15   12   13 1   
    16   13   18 1   
    17   14   15 1   
    18   14   28 1   
    19   15   29 1   
    20   16   17 1   
    21   16   30 1   
    22   17   31 1   
    23   18   19 1   
@<TRIPOS>SUBSTRUCTURE
     1 120         1 TEMP              0 ****  ****    0 ROOT
