@<TRIPOS>MOLECULE
120
   31    33     1     0     0
SMALL
bcc


@<TRIPOS>ATOM
      1 C1          3.3940    0.0270   -0.0240 ca        1 120     -0.289900
      2 C2          3.1790   -1.3670   -0.1300 ca        1 120     -0.091000
      3 C3          1.9020   -1.8990   -0.1480 ca        1 120     -0.111000
      4 C4          0.8200   -1.0110   -0.0490 ca        1 120     -0.022200
      5 C5          1.0360    0.4320    0.0620 ca        1 120      0.069400
      6 C6          2.3350    0.9380    0.0690 ca        1 120     -0.021000
      7 C7          4.7840    0.5390   -0.0130 ce        1 120      0.528400
      8 N1          5.0880    1.6180   -0.7720 nh        1 120     -0.477100
      9 N2          5.7050   -0.0880    0.7570 nh        1 120     -0.461200
     10 N3         -0.5500   -1.1920   -0.0280 na        1 120     -0.245300
     11 N4         -0.2040    1.0840    0.1450 nc        1 120     -0.578100
     12 C8         -1.1390    0.0960    0.0890 cd        1 120      0.543100
     13 C1'        -2.5800    0.3080    0.1430 cd        1 120     -0.301800
     14 C2'        -3.0930    1.5820    0.2720 cc        1 120      0.053000
     15 C3'        -4.4930    1.7920    0.3230 cc        1 120     -0.266000
     16 C4'        -5.3440    0.7100    0.2430 cd        1 120      0.057600
     17 N5'        -4.8680   -0.5640    0.1160 n         1 120     -0.414100
     18 C6'        -3.4870   -0.8410    0.0590 c         1 120      0.699700
     19 O6'        -3.1560   -2.0410   -0.0570 o         1 120     -0.665500
     20 HC2         4.0360   -2.0510   -0.2270 ha        1 120      0.143000
     21 HC3         1.7410   -2.9840   -0.2400 ha        1 120      0.168000
     22 HC6         2.5000    2.0210    0.1730 ha        1 120      0.158000
     23 HH11        4.3710    2.0200   -1.3390 hn        1 120      0.323450
     24 HH12        5.9930    2.0330   -0.7920 hn        1 120      0.323450
     25 HH21        6.6620    0.1850    0.7930 hn        1 120      0.323450
     26 HH22        5.4120   -0.8600    1.3190 hn        1 120      0.323450
     27 HN3        -1.0550   -2.0490   -0.0890 hn        1 120      0.357700
     28 HC2'       -2.4280    2.4620    0.3370 ha        1 120      0.172000
     29 HC3'       -4.8950    2.8090    0.4260 ha        1 120      0.173000
     30 HC4'       -6.4460    0.8250    0.2790 h4        1 120      0.174000
     31 HN5'       -5.4980   -1.3390    0.0590 hn        1 120      0.353500
@<TRIPOS>BOND
     1    1    2 ar  
     2    1    6 ar  
     3    1    7 1   
     4    2    3 ar  
     5    2   20 1   
     6    3    4 ar  
     7    3   21 1   
     8    4    5 ar  
     9    4   10 1   
    10    5    6 ar  
    11    5   11 1   
    12    6   22 1   
    13    7    8 2   
    14    7    9 1   
    15    8   23 1   
    16    8   24 1   
    17    9   25 1   
    18    9   26 1   
    19   10   12 1   
    20   10   27 1   
    21   11   12 2   
    22   12   13 1   
    23   13   14 2   
    24   13   18 1   
    25   14   15 1   
    26   14   28 1   
    27   15   16 2   
    28   15   29 1   
    29   16   17 1   
    30   16   30 1   
    31   17   18 1   
    32   17   31 1   
    33   18   19 2   
@<TRIPOS>SUBSTRUCTURE
     1 120         1 TEMP              0 ****  ****    0 ROOT
