@<TRIPOS>MOLECULE
121
   31    23     1     0     0
SMALL
bcc


@<TRIPOS>ATOM
      1 C1         -0.2980   -0.2240   -2.9270 c1        1 121     -0.209000
      2 C2          1.1590   -0.2770   -2.9110 c1        1 121     -0.120250
      3 C3          1.8200   -0.2940   -1.7350 c1        1 121     -0.120250
      4 C4          1.1220   -0.2610   -0.5570 c1        1 121     -0.027000
      5 C5         -0.2820   -0.2100   -0.5670 c1        1 121     -0.027000
      6 C6         -0.9720   -0.1920   -1.7850 c1        1 121     -0.012000
      7 C7         -0.8660   -0.0720   -4.3600 c2        1 121      0.352000
      8 N1         -1.2010    1.1940   -4.8450 n3        1 121     -0.322000
      9 N2         -1.0290   -1.1370   -5.1230 n2        1 121     -0.322000
     10 N3          1.5240   -0.2710    0.7120 n1        1 121     -0.150000
     11 N4         -0.6980   -0.1910    0.6930 n1        1 121     -0.150000
     12 C8          0.4120   -0.2280    1.5090 c2        1 121      0.128000
     13 C1'         0.1780   -0.2320    2.8900 c1        1 121     -0.044000
     14 N2'        -0.0560   -1.4260    3.5460 n1        1 121     -0.108000
     15 C3'        -0.3400   -1.4310    4.8680 c1        1 121     -0.095000
     16 C4'        -0.3980   -0.2180    5.5800 c1        1 121     -0.120250
     17 C5'        -0.1580    1.0120    4.9070 c1        1 121     -0.120250
     18 C6'         0.1200    1.0120    3.6100 c1        1 121      0.098000
     19 O6'         0.1800    2.2170    2.9140 oh        1 121     -0.219000
     20 HC2         1.6380   -0.3020   -3.7160 ha        1 121      0.158000
     21 HC3         2.8290   -0.3280   -1.7220 ha        1 121      0.158000
     22 HC6        -1.9620   -0.1570   -1.7950 ha        1 121      0.161000
     23 HH11       -1.0880    1.9980   -4.2700 hn        1 121      0.274500
     24 HH12       -1.4370    1.2740   -5.8150 hn        1 121      0.274500
     25 HH21       -0.7930   -2.0250   -4.7840 DU        1 121      0.286000
     26 HH22       -1.3560   -1.0370   -5.9410 hn        1 121      0.264000
     27 HN3         2.4380   -0.3030    1.0160 DU        1 121      0.286000
     28 HC3'       -0.5100   -2.3000    5.3410 ha        1 121      0.180000
     29 HC4'       -0.6130   -0.2210    6.5820 ha        1 121      0.158000
     30 HC5'       -0.1990    1.9010    5.4260 ha        1 121      0.158000
     31 HO6         0.8350    2.7320    3.2630 ho        1 121      0.235000
@<TRIPOS>BOND
     1    1    6 1   
     2    1    7 1   
     3    2    3 1   
     4    2   20 1   
     5    3   21 1   
     6    4    5 1   
     7    6   22 1   
     8    7    8 1   
     9    7    9 1   
    10    8   23 1   
    11    8   24 1   
    12    9   26 1   
    13   10   12 1   
    14   11   12 1   
    15   12   13 1   
    16   13   18 1   
    17   14   15 1   
    18   15   28 1   
    19   16   17 1   
    20   16   29 1   
    21   17   30 1   
    22   18   19 1   
    23   19   31 1   
@<TRIPOS>SUBSTRUCTURE
     1 121         1 TEMP              0 ****  ****    0 ROOT
