@<TRIPOS>MOLECULE
121
   31    33     1     0     0
SMALL
bcc


@<TRIPOS>ATOM
      1 C1         -0.0040    0.0150   -0.0350 ca        1 121     -0.292900
      2 C2          1.2980   -0.5370    0.0020 ca        1 121     -0.086000
      3 C3          1.9550   -0.7550    1.1990 ca        1 121     -0.114000
      4 C4          1.2920   -0.4020    2.3850 ca        1 121     -0.020200
      5 C5         -0.0550    0.1710    2.3520 ca        1 121      0.060400
      6 C6         -0.6930    0.3700    1.1300 ca        1 121     -0.012000
      7 C7         -0.6580    0.2250   -1.3480 ce        1 121      0.529400
      8 N1         -1.9520   -0.1440   -1.4970 nh        1 121     -0.476100
      9 N2          0.0580    0.7780   -2.3550 nh        1 121     -0.460200
     10 N3          1.6350   -0.4830    3.7230 na        1 121     -0.245300
     11 N4         -0.4840    0.4380    3.6660 nc        1 121     -0.525100
     12 C8          0.5350    0.0420    4.4600 cd        1 121      0.424800
     13 C1'         0.5930    0.1300    5.9310 ca        1 121      0.314000
     14 N2'         1.7840    0.4900    6.4830 nb        1 121     -0.634000
     15 C3'         1.8530    0.6180    7.8110 ca        1 121      0.370200
     16 C4'         0.7540    0.3990    8.6760 ca        1 121     -0.167300
     17 C5'        -0.4570    0.0120    8.1260 ca        1 121     -0.179000
     18 C6'        -0.5510   -0.1390    6.7240 ca        1 121      0.077800
     19 O6'        -1.6920   -0.5660    6.1060 oh        1 121     -0.465100
     20 HC2         1.8000   -0.8270   -0.9350 ha        1 121      0.143000
     21 HC3         2.9640   -1.1940    1.2200 ha        1 121      0.167000
     22 HC6        -1.6990    0.8180    1.1050 ha        1 121      0.161000
     23 HH11       -2.4650   -0.0060   -2.3400 hn        1 121      0.323950
     24 HH12       -2.4200   -0.5710   -0.7250 hn        1 121      0.323950
     25 HH21        0.9990    1.0590   -2.1730 hn        1 121      0.323950
     26 HH22       -0.3090    0.9260   -3.2680 hn        1 121      0.323950
     27 HN3         2.5100   -0.7500    4.1010 hn        1 121      0.337700
     28 HC3'        2.8380    0.9170    8.2140 h4        1 121      0.043100
     29 HC4'        0.8720    0.5330    9.7610 ha        1 121      0.164000
     30 HC5'       -1.3370   -0.1770    8.7600 ha        1 121      0.158000
     31 HO6        -2.3910   -0.6380    6.7770 ho        1 121      0.436000
@<TRIPOS>BOND
     1    1    2 ar  
     2    1    6 ar  
     3    1    7 1   
     4    2    3 ar  
     5    2   20 1   
     6    3    4 ar  
     7    3   21 1   
     8    4    5 ar  
     9    4   10 1   
    10    5    6 ar  
    11    5   11 1   
    12    6   22 1   
    13    7    8 2   
    14    7    9 1   
    15    8   23 1   
    16    8   24 1   
    17    9   25 1   
    18    9   26 1   
    19   10   12 1   
    20   10   27 1   
    21   11   12 2   
    22   12   13 1   
    23   13   14 ar  
    24   13   18 ar  
    25   14   15 ar  
    26   15   16 ar  
    27   15   28 1   
    28   16   17 ar  
    29   16   29 1   
    30   17   18 ar  
    31   17   30 1   
    32   18   19 1   
    33   19   31 1   
@<TRIPOS>SUBSTRUCTURE
     1 121         1 TEMP              0 ****  ****    0 ROOT
