@<TRIPOS>MOLECULE
121
   31    33     1     0     0
SMALL
bcc


@<TRIPOS>ATOM
      1 C1          3.3260    0.0240    0.0250 ca        1 121     -0.284900
      2 C2          3.1880    1.4150    0.2340 ca        1 121     -0.089000
      3 C3          1.9420    2.0130    0.3120 ca        1 121     -0.110000
      4 C4          0.8130    1.1920    0.1690 ca        1 121     -0.023200
      5 C5          0.9500   -0.2480   -0.0490 ca        1 121      0.079400
      6 C6          2.2200   -0.8210   -0.1150 ca        1 121     -0.021000
      7 C7          4.6880   -0.5590   -0.0460 ce        1 121      0.527400
      8 N1          4.9490   -1.6910    0.6490 nh        1 121     -0.474100
      9 N2          5.6230    0.0600   -0.8040 nh        1 121     -0.458200
     10 N3         -0.5480    1.4450    0.1850 na        1 121     -0.237300
     11 N4         -0.3250   -0.8220   -0.1570 nc        1 121     -0.610100
     12 C8         -1.2050    0.2010   -0.0140 cd        1 121      0.435800
     13 C1'        -2.6740    0.0930   -0.0510 ca        1 121      0.249000
     14 N2'        -3.3740    1.2540    0.1560 nb        1 121     -0.648000
     15 C3'        -4.7010    1.2110    0.1340 ca        1 121      0.376200
     16 C4'        -5.4450    0.0220   -0.0930 ca        1 121     -0.173300
     17 C5'        -4.7590   -1.1550   -0.3040 ca        1 121     -0.129000
     18 C6'        -3.3350   -1.1370   -0.2860 ca        1 121      0.104800
     19 O6'        -2.7630   -2.3510   -0.5050 oh        1 121     -0.477100
     20 HC2         4.0830    2.0450    0.3640 ha        1 121      0.146000
     21 HC3         1.8420    3.0950    0.4840 ha        1 121      0.169000
     22 HC6         2.3250   -1.9010   -0.2980 ha        1 121      0.160000
     23 HH11        5.8310   -2.1520    0.6280 hn        1 121      0.324450
     24 HH12        4.2240   -2.0840    1.2120 hn        1 121      0.324450
     25 HH21        5.3600    0.8750   -1.3170 hn        1 121      0.324450
     26 HH22        6.5630   -0.2600   -0.8800 hn        1 121      0.324450
     27 HN3        -0.9930    2.3210    0.3180 hn        1 121      0.345700
     28 HC3'       -5.2190    2.1730    0.3070 h4        1 121      0.041100
     29 HC4'       -6.5450    0.0540   -0.0980 ha        1 121      0.166000
     30 HC5'       -5.2720   -2.1120   -0.4870 ha        1 121      0.175000
     31 HO6        -1.7940   -2.2840   -0.4890 ho        1 121      0.460000
@<TRIPOS>BOND
     1    1    2 ar  
     2    1    6 ar  
     3    1    7 1   
     4    2    3 ar  
     5    2   20 1   
     6    3    4 ar  
     7    3   21 1   
     8    4    5 ar  
     9    4   10 1   
    10    5    6 ar  
    11    5   11 1   
    12    6   22 1   
    13    7    8 2   
    14    7    9 1   
    15    8   23 1   
    16    8   24 1   
    17    9   25 1   
    18    9   26 1   
    19   10   12 1   
    20   10   27 1   
    21   11   12 2   
    22   12   13 1   
    23   13   14 ar  
    24   13   18 ar  
    25   14   15 ar  
    26   15   16 ar  
    27   15   28 1   
    28   16   17 ar  
    29   16   29 1   
    30   17   18 ar  
    31   17   30 1   
    32   18   19 1   
    33   19   31 1   
@<TRIPOS>SUBSTRUCTURE
     1 121         1 TEMP              0 ****  ****    0 ROOT
