@<TRIPOS>MOLECULE
122
   32    24     1     0     0
SMALL
bcc


@<TRIPOS>ATOM
      1 C1         -0.3710   -0.1550   -3.1070 c1        1 122     -0.188000
      2 C2          1.0130   -0.1290   -3.0510 c1        1 122     -0.107500
      3 C3          1.6570   -0.1050   -1.8240 c1        1 122     -0.107500
      4 C4          0.9040   -0.1060   -0.6340 c1        1 122     -0.023000
      5 C5         -0.4590   -0.1310   -0.6890 c1        1 122     -0.023000
      6 C6         -1.1120   -0.1550   -1.9360 c1        1 122     -0.065000
      7 C7         -0.9880   -0.1130   -4.4870 c2        1 122      0.350000
      8 N1         -1.2400    1.1340   -5.1140 n3        1 122     -0.325000
      9 N2         -1.2910   -1.2270   -5.1020 n2        1 122     -0.320000
     10 N3          1.2690   -0.0860    0.6710 n1        1 122     -0.177500
     11 N4         -0.9280   -0.1260    0.5820 n1        1 122     -0.177500
     12 C8          0.1380   -0.0980    1.4250 c2        1 122      0.148000
     13 C1'         0.3490   -0.1100    2.7940 c1        1 122     -0.101000
     14 C2'         0.4110   -1.3160    3.4750 c1        1 122     -0.107500
     15 C3'         0.5920   -1.3280    4.8490 c1        1 122     -0.107500
     16 C4'         0.7110   -0.1330    5.5430 c1        1 122     -0.107500
     17 C5'         0.6490    1.0720    4.8620 c1        1 122     -0.107500
     18 C6'         0.4680    1.0840    3.4880 c1        1 122      0.112000
     19 O6'         0.4390    2.3070    2.7920 oh        1 122     -0.285000
     20 HC2         1.5350   -0.1290   -3.8760 ha        1 122      0.157833
     21 HC3         2.6320   -0.0880   -1.7850 ha        1 122      0.157833
     22 HC6        -2.0870   -0.1730   -1.9760 ha        1 122      0.146000
     23 HH11       -0.9740    1.9100   -4.7110 hn        1 122      0.273000
     24 HH12       -1.6460    1.1610   -5.9320 hn        1 122      0.273000
     25 HH21       -1.1290   -2.0330   -4.6980 DU        1 122      0.285500
     26 HH22       -1.6650   -1.2020   -5.9380 hn        1 122      0.264000
     27 HN4        -1.8060   -0.1390    0.8300 DU        1 122      0.285500
     28 HC2'        0.3270   -2.1570    2.9870 ha        1 122      0.157833
     29 HC3'        0.6360   -2.1770    5.3290 ha        1 122      0.157833
     30 HC4'        0.8390   -0.1420    6.5100 ha        1 122      0.157833
     31 HC5'        0.7330    1.9130    5.3500 ha        1 122      0.157833
     32 HO6         0.3910    2.9780    3.3740 ho        1 122      0.244000
@<TRIPOS>BOND
     1    1    6 1   
     2    1    7 1   
     3    2    3 1   
     4    2   20 1   
     5    3   21 1   
     6    4    5 1   
     7    6   22 1   
     8    7    8 1   
     9    7    9 1   
    10    8   23 1   
    11    8   24 1   
    12    9   26 1   
    13   10   12 1   
    14   11   12 1   
    15   12   13 1   
    16   13   18 1   
    17   14   15 1   
    18   14   28 1   
    19   15   29 1   
    20   16   17 1   
    21   16   30 1   
    22   17   31 1   
    23   18   19 1   
    24   19   32 1   
@<TRIPOS>SUBSTRUCTURE
     1 122         1 TEMP              0 ****  ****    0 ROOT
