@<TRIPOS>MOLECULE
122
   32    34     1     0     0
SMALL
bcc


@<TRIPOS>ATOM
      1 C1          3.3450   -0.0220    0.0520 ca        1 122     -0.265900
      2 C2          3.1380    1.3650   -0.1140 ca        1 122     -0.109000
      3 C3          1.8630    1.9010   -0.1890 ca        1 122     -0.068000
      4 C4          0.7640    1.0330   -0.1080 ca        1 122      0.149400
      5 C5          0.9950   -0.4030    0.0610 ca        1 122     -0.092200
      6 C6          2.2810   -0.9280    0.1460 ca        1 122     -0.069000
      7 C7          4.7360   -0.5320    0.1280 ce        1 122      0.526400
      8 N1          5.0540   -1.4160    1.1030 nh        1 122     -0.474100
      9 N2          5.6380   -0.0980   -0.7820 nh        1 122     -0.458200
     10 N3         -0.6090    1.2770   -0.1670 nc        1 122     -0.596100
     11 N4         -0.2730   -0.9860    0.1030 na        1 122     -0.268300
     12 C8         -1.2120    0.0620   -0.0430 cd        1 122      0.559400
     13 C1'        -2.6480   -0.2000   -0.0570 ca        1 122     -0.254900
     14 C2'        -3.1190   -1.3840   -0.6630 ca        1 122     -0.077000
     15 C3'        -4.4700   -1.6800   -0.6910 ca        1 122     -0.162000
     16 C4'        -5.3950   -0.7960   -0.1140 ca        1 122     -0.056000
     17 C5'        -4.9650    0.3780    0.4750 ca        1 122     -0.162000
     18 C6'        -3.5840    0.6930    0.5000 ca        1 122      0.207100
     19 O6'        -3.2930    1.8690    1.1270 oh        1 122     -0.482100
     20 HC2         4.0010    2.0480   -0.1590 ha        1 122      0.146000
     21 HC3         1.7070    2.9850   -0.3110 ha        1 122      0.181000
     22 HC6         2.4460   -2.0100    0.2550 ha        1 122      0.148000
     23 HH11        5.9630   -1.8110    1.2060 hn        1 122      0.324700
     24 HH12        4.3530   -1.6680    1.7680 hn        1 122      0.324700
     25 HH21        5.3320    0.5340   -1.4930 hn        1 122      0.324700
     26 HH22        6.5950   -0.3710   -0.7750 hn        1 122      0.324700
     27 HN4        -0.4810   -1.9460    0.2020 hn        1 122      0.325700
     28 HC2'       -2.4090   -2.0750   -1.1420 ha        1 122      0.128000
     29 HC3'       -4.8240   -2.6050   -1.1710 ha        1 122      0.151000
     30 HC4'       -6.4700   -1.0380   -0.1380 ha        1 122      0.154000
     31 HC5'       -5.6730    1.0900    0.9280 ha        1 122      0.170000
     32 HO6        -2.3640    2.1070    0.9900 ho        1 122      0.449000
@<TRIPOS>BOND
     1    1    2 ar  
     2    1    6 ar  
     3    1    7 1   
     4    2    3 ar  
     5    2   20 1   
     6    3    4 ar  
     7    3   21 1   
     8    4    5 ar  
     9    4   10 1   
    10    5    6 ar  
    11    5   11 1   
    12    6   22 1   
    13    7    8 2   
    14    7    9 1   
    15    8   23 1   
    16    8   24 1   
    17    9   25 1   
    18    9   26 1   
    19   10   12 2   
    20   11   12 1   
    21   11   27 1   
    22   12   13 1   
    23   13   14 ar  
    24   13   18 ar  
    25   14   15 ar  
    26   14   28 1   
    27   15   16 ar  
    28   15   29 1   
    29   16   17 ar  
    30   16   30 1   
    31   17   18 ar  
    32   17   31 1   
    33   18   19 1   
    34   19   32 1   
@<TRIPOS>SUBSTRUCTURE
     1 122         1 TEMP              0 ****  ****    0 ROOT
