@<TRIPOS>MOLECULE
122
   32    34     1     0     0
SMALL
bcc


@<TRIPOS>ATOM
      1 C1         -0.0290   -0.0210   -0.0100 ca        1 122     -0.265900
      2 C2          1.3810   -0.0910   -0.0480 ca        1 122     -0.114000
      3 C3          2.1340   -0.1240    1.1130 ca        1 122     -0.063000
      4 C4          1.4690   -0.0760    2.3470 ca        1 122      0.139400
      5 C5          0.0050    0.0000    2.3700 ca        1 122     -0.092200
      6 C6         -0.7400    0.0220    1.1960 ca        1 122     -0.072000
      7 C7         -0.7770    0.0050   -1.2900 ce        1 122      0.526400
      8 N1         -1.8590   -0.7980   -1.4300 nh        1 122     -0.475600
      9 N2         -0.3550    0.8330   -2.2730 nh        1 122     -0.459700
     10 N3          1.9580   -0.0830    3.6580 nc        1 122     -0.536100
     11 N4         -0.3460    0.0450    3.7200 na        1 122     -0.272300
     12 C8          0.8620   -0.0190    4.4570 cd        1 122      0.561400
     13 C1'         0.8550    0.0000    5.9190 ca        1 122     -0.200900
     14 C2'         0.2380    1.0570    6.6040 ca        1 122     -0.069000
     15 C3'         0.2620    1.1040    7.9920 ca        1 122     -0.163000
     16 C4'         0.9050    0.0960    8.7180 ca        1 122     -0.051000
     17 C5'         1.5150   -0.9650    8.0610 ca        1 122     -0.213000
     18 C6'         1.4900   -1.0190    6.6550 ca        1 122      0.185100
     19 O6'         2.0350   -2.0610    5.9530 oh        1 122     -0.482100
     20 HC2         1.9020   -0.1500   -1.0170 ha        1 122      0.143000
     21 HC3         3.2340   -0.1890    1.0780 ha        1 122      0.180000
     22 HC6        -1.8360    0.0970    1.2220 ha        1 122      0.145000
     23 HH11       -2.0970   -1.4130   -0.6810 hn        1 122      0.323950
     24 HH12       -2.4180   -0.8200   -2.2540 hn        1 122      0.323950
     25 HH21        0.4350    1.4190   -2.0970 hn        1 122      0.323950
     26 HH22       -0.7870    0.8800   -3.1690 hn        1 122      0.323950
     27 HN4        -1.2580    0.0660    4.0950 hn        1 122      0.322700
     28 HC2'       -0.2510    1.8620    6.0350 ha        1 122      0.139000
     29 HC3'       -0.2180    1.9400    8.5230 ha        1 122      0.152000
     30 HC4'        0.9280    0.1430    9.8190 ha        1 122      0.152000
     31 HC5'        2.0210   -1.7590    8.6290 ha        1 122      0.152000
     32 HO6         2.5210   -2.6270    6.5740 ho        1 122      0.437000
@<TRIPOS>BOND
     1    1    2 ar  
     2    1    6 ar  
     3    1    7 1   
     4    2    3 ar  
     5    2   20 1   
     6    3    4 ar  
     7    3   21 1   
     8    4    5 ar  
     9    4   10 1   
    10    5    6 ar  
    11    5   11 1   
    12    6   22 1   
    13    7    8 2   
    14    7    9 1   
    15    8   23 1   
    16    8   24 1   
    17    9   25 1   
    18    9   26 1   
    19   10   12 2   
    20   11   12 1   
    21   11   27 1   
    22   12   13 1   
    23   13   14 ar  
    24   13   18 ar  
    25   14   15 ar  
    26   14   28 1   
    27   15   16 ar  
    28   15   29 1   
    29   16   17 ar  
    30   16   30 1   
    31   17   18 ar  
    32   17   31 1   
    33   18   19 1   
    34   19   32 1   
@<TRIPOS>SUBSTRUCTURE
     1 122         1 TEMP              0 ****  ****    0 ROOT
