@<TRIPOS>MOLECULE
123
   36    38     1     0     0
SMALL
bcc


@<TRIPOS>ATOM
      1 C1         -0.0460    0.0080    0.0030 ca        1 123     -0.290900
      2 C2          1.3410    0.2760   -0.0370 ca        1 123     -0.089000
      3 C3          2.0830    0.4140    1.1230 ca        1 123     -0.113000
      4 C4          1.4150    0.2710    2.3480 ca        1 123     -0.023200
      5 C5         -0.0210   -0.0070    2.3960 ca        1 123      0.066400
      6 C6         -0.7410   -0.1340    1.2100 ca        1 123     -0.017000
      7 C7         -0.7890   -0.1270   -1.2720 ce        1 123      0.528400
      8 N1         -0.2490   -0.8670   -2.2680 nh        1 123     -0.476600
      9 N2         -1.9850    0.4960   -1.3980 nh        1 123     -0.460700
     10 N3          1.8340    0.3200    3.6670 na        1 123     -0.244300
     11 N4         -0.4350   -0.0980    3.7360 nc        1 123     -0.556100
     12 C8          0.6830    0.1100    4.4760 cd        1 123      0.534400
     13 C1'         0.7420    0.0890    5.9390 ca        1 123     -0.142900
     14 C2'        -0.2000   -0.6840    6.6280 ca        1 123     -0.076000
     15 C3'        -0.1890   -0.7220    8.0330 ca        1 123      0.098100
     16 O3'        -1.1630   -1.5230    8.5920 os        1 123     -0.318900
     17 CM3        -1.1950   -1.5760   10.0150 c3        1 123      0.108700
     18 C4'         0.7560    0.0110    8.7620 ca        1 123     -0.132000
     19 C5'         1.6940    0.7810    8.0810 ca        1 123     -0.173000
     20 C6'         1.6950    0.8210    6.6800 ca        1 123      0.115100
     21 O6'         2.6250    1.5710    5.9920 oh        1 123     -0.529100
     22 HC2         1.8490    0.4070   -1.0060 ha        1 123      0.143000
     23 HC3         3.1610    0.6310    1.0830 ha        1 123      0.166000
     24 HC6        -1.8170   -0.3650    1.2460 ha        1 123      0.160000
     25 HH11       -0.6810   -0.9810   -3.1580 hn        1 123      0.323950
     26 HH12        0.6210   -1.3280   -2.1030 hn        1 123      0.323950
     27 HH21       -2.3190    1.0490   -0.6360 hn        1 123      0.323950
     28 HH22       -2.5530    0.4250   -2.2120 hn        1 123      0.323950
     29 HN3         2.7270    0.5880    4.0030 hn        1 123      0.340700
     30 HC2'       -0.9620   -1.2680    6.0860 ha        1 123      0.178000
     31 H3'1       -1.3900   -0.5630   10.4430 h1        1 123      0.053033
     32 H3'2       -0.2410   -1.9980   10.4150 h1        1 123      0.053033
     33 H3'3       -2.0520   -2.2660   10.2250 h1        1 123      0.053033
     34 HC4'        0.7680   -0.0130    9.8620 ha        1 123      0.156000
     35 HC5'        2.4380    1.3620    8.6460 ha        1 123      0.150000
     36 HO6         3.1270    2.0960    6.6340 ho        1 123      0.442000
@<TRIPOS>BOND
     1    1    2 ar  
     2    1    6 ar  
     3    1    7 1   
     4    2    3 ar  
     5    2   22 1   
     6    3    4 ar  
     7    3   23 1   
     8    4    5 ar  
     9    4   10 1   
    10    5    6 ar  
    11    5   11 1   
    12    6   24 1   
    13    7    8 2   
    14    7    9 1   
    15    8   25 1   
    16    8   26 1   
    17    9   27 1   
    18    9   28 1   
    19   10   12 1   
    20   10   29 1   
    21   11   12 2   
    22   12   13 1   
    23   13   14 ar  
    24   13   20 ar  
    25   14   15 ar  
    26   14   30 1   
    27   15   16 1   
    28   15   18 ar  
    29   16   17 1   
    30   17   31 1   
    31   17   32 1   
    32   17   33 1   
    33   18   19 ar  
    34   18   34 1   
    35   19   20 ar  
    36   19   35 1   
    37   20   21 1   
    38   21   36 1   
@<TRIPOS>SUBSTRUCTURE
     1 123         1 TEMP              0 ****  ****    0 ROOT
