@<TRIPOS>MOLECULE
123
   36    38     1     0     0
SMALL
bcc


@<TRIPOS>ATOM
      1 C1         -3.9750   -0.2680   -0.0190 ca        1 123     -0.290900
      2 C2         -3.9780    1.1000   -0.3790 ca        1 123     -0.089000
      3 C3         -2.8000    1.8130   -0.5130 ca        1 123     -0.113000
      4 C4         -1.5940    1.1330   -0.2880 ca        1 123     -0.023200
      5 C5         -1.5840   -0.2810    0.0840 ca        1 123      0.066400
      6 C6         -2.7880   -0.9700    0.2170 ca        1 123     -0.017000
      7 C7         -5.2680   -0.9790    0.1140 ce        1 123      0.528400
      8 N1         -6.2130   -0.8000   -0.8400 nh        1 123     -0.476600
      9 N2         -5.4620   -1.7850    1.1840 nh        1 123     -0.460700
     10 N3         -0.2650    1.5140   -0.3560 na        1 123     -0.244300
     11 N4         -0.2570   -0.7120    0.2520 nc        1 123     -0.556100
     12 C8          0.5130    0.3760   -0.0050 cd        1 123      0.534400
     13 C1'         1.9760    0.4010    0.0280 ca        1 123     -0.142900
     14 C2'         2.6640   -0.7920   -0.2240 ca        1 123     -0.076000
     15 C3'         4.0690   -0.8160   -0.1890 ca        1 123      0.098100
     16 O3'         4.6270   -2.0480   -0.4590 os        1 123     -0.318900
     17 CM3         6.0490   -2.1190   -0.4180 c3        1 123      0.108700
     18 C4'         4.7980    0.3440    0.1020 ca        1 123     -0.132000
     19 C5'         4.1190    1.5310    0.3540 ca        1 123     -0.173000
     20 C6'         2.7180    1.5680    0.3160 ca        1 123      0.115100
     21 O6'         2.0310    2.7400    0.5520 oh        1 123     -0.529100
     22 HC2        -4.9340    1.6270   -0.5320 ha        1 123      0.143000
     23 HC3        -2.8110    2.8790   -0.7860 ha        1 123      0.166000
     24 HC6        -2.7800   -2.0410    0.4760 ha        1 123      0.160000
     25 HH11       -5.9980   -0.2170   -1.6210 hn        1 123      0.323950
     26 HH12       -7.1120   -1.2260   -0.8020 hn        1 123      0.323950
     27 HH21       -6.2920   -2.3170    1.3220 hn        1 123      0.323950
     28 HH22       -4.7360   -1.8560    1.8660 hn        1 123      0.323950
     29 HN3         0.0910    2.4320   -0.4820 hn        1 123      0.340700
     30 HC2'        2.1210   -1.7240   -0.4500 ha        1 123      0.178000
     31 H3'1        6.4270   -1.8610    0.6010 h1        1 123      0.053033
     32 H3'2        6.2590   -3.1930   -0.6580 h1        1 123      0.053033
     33 H3'3        6.4990   -1.4470   -1.1890 h1        1 123      0.053033
     34 HC4'        5.8980    0.3300    0.1340 ha        1 123      0.156000
     35 HC5'        4.6840    2.4460    0.5860 ha        1 123      0.150000
     36 HO6         2.6680    3.4100    0.8430 ho        1 123      0.442000
@<TRIPOS>BOND
     1    1    2 ar  
     2    1    6 ar  
     3    1    7 1   
     4    2    3 ar  
     5    2   22 1   
     6    3    4 ar  
     7    3   23 1   
     8    4    5 ar  
     9    4   10 1   
    10    5    6 ar  
    11    5   11 1   
    12    6   24 1   
    13    7    8 2   
    14    7    9 1   
    15    8   25 1   
    16    8   26 1   
    17    9   27 1   
    18    9   28 1   
    19   10   12 1   
    20   10   29 1   
    21   11   12 2   
    22   12   13 1   
    23   13   14 ar  
    24   13   20 ar  
    25   14   15 ar  
    26   14   30 1   
    27   15   16 1   
    28   15   18 ar  
    29   16   17 1   
    30   17   31 1   
    31   17   32 1   
    32   17   33 1   
    33   18   19 ar  
    34   18   34 1   
    35   19   20 ar  
    36   19   35 1   
    37   20   21 1   
    38   21   36 1   
@<TRIPOS>SUBSTRUCTURE
     1 123         1 TEMP              0 ****  ****    0 ROOT
