@<TRIPOS>MOLECULE
123
   36    28     1     0     0
SMALL
bcc


@<TRIPOS>ATOM
      1 C1          0.5000   -0.1510   -3.6530 c1        1 123     -0.206000
      2 C2          1.8960   -0.0780   -3.5660 c1        1 123     -0.101000
      3 C3          2.5180   -0.0510   -2.3200 c1        1 123     -0.101000
      4 C4          1.7270   -0.0970   -1.1200 c1        1 123     -0.025500
      5 C5          0.3660   -0.1680   -1.2050 c1        1 123     -0.025500
      6 C6         -0.2700   -0.1960   -2.4950 c1        1 123     -0.019000
      7 C7         -0.3100   -0.4620   -4.9380 c2        1 123      0.351000
      8 N1         -0.5210   -1.8250   -5.3380 n3        1 123     -0.322000
      9 N2         -0.8090    0.5330   -5.6710 n2        1 123     -0.322000
     10 N3          2.0590   -0.0870    0.1830 n1        1 123     -0.168500
     11 N4         -0.1300   -0.2010    0.0490 n1        1 123     -0.168500
     12 C8          0.9100   -0.1510    0.9120 c2        1 123      0.126000
     13 C1'         0.4140   -0.1500    2.2050 c1        1 123     -0.059000
     14 C2'         0.0140    1.0320    2.7810 c1        1 123     -0.129000
     15 C3'        -0.6130    1.0280    4.0400 c1        1 123      0.054000
     16 O3'        -0.8740    2.2190    4.6740 o         1 123     -0.199000
     17 CM3        -2.2030    2.7330    4.4350 c3        1 123     -0.081000
     18 C4'        -0.8300   -0.1810    4.7100 c2        1 123     -0.079000
     19 C5'        -0.4260   -1.3800    4.1300 c1        1 123     -0.178000
     20 C6'         0.1960   -1.3730    2.8790 c1        1 123      0.076000
     21 O6'         0.6320   -2.6070    2.2860 oh        1 123     -0.283000
     22 HC2         2.4160   -0.0470   -4.3530 ha        1 123      0.154500
     23 HC3         3.5310    0.0030   -2.2610 ha        1 123      0.154500
     24 HC6        -1.2800   -0.2460   -2.5620 ha        1 123      0.159000
     25 HH11       -1.0850   -2.0130   -6.0210 hn        1 123      0.274000
     26 HH12       -0.0030   -2.5000   -4.9750 hn        1 123      0.274000
     27 HH21       -0.6750    1.3830   -5.4200 DU        1 123      0.288500
     28 HH22       -1.2970    0.3470   -6.4460 hn        1 123      0.264000
     29 HN3         2.9400   -0.0420    0.5330 DU        1 123      0.288500
     30 HC2'        0.1860    1.8960    2.3140 ha        1 123      0.165000
     31 H3'1       -2.4990    3.3050    5.2330 h1        1 123      0.091000
     32 H3'2       -2.1980    3.2850    3.6210 h1        1 123      0.091000
     33 H3'3       -2.8550    1.9530    4.3160 h1        1 123      0.091000
     34 HC4'       -1.2740   -0.1840    5.6030 ha        1 123      0.170000
     35 HC5'       -0.5770   -2.2320    4.6010 ha        1 123      0.152000
     36 HO6         0.4250   -3.2970    2.8380 ho        1 123      0.243000
@<TRIPOS>BOND
     1    1    6 1   
     2    1    7 1   
     3    2    3 1   
     4    2   22 1   
     5    3   23 1   
     6    4    5 1   
     7    6   24 1   
     8    7    8 1   
     9    7    9 1   
    10    8   25 1   
    11    8   26 1   
    12    9   28 1   
    13   10   12 1   
    14   11   12 1   
    15   12   13 1   
    16   13   20 1   
    17   14   15 1   
    18   14   30 1   
    19   15   18 1   
    20   16   17 1   
    21   17   31 1   
    22   17   32 1   
    23   17   33 1   
    24   18   19 1   
    25   18   34 1   
    26   19   35 1   
    27   20   21 1   
    28   21   36 1   
@<TRIPOS>SUBSTRUCTURE
     1 123         1 TEMP              0 ****  ****    0 ROOT
