@<TRIPOS>MOLECULE
124
   33    24     1     0     0
SMALL
bcc


@<TRIPOS>ATOM
      1 C1         -0.3920   -0.1350   -3.1380 c1        1 124     -0.218000
      2 C2          0.9960   -0.1520   -3.1760 c1        1 124     -0.117000
      3 C3          1.7230   -0.1470   -1.9950 c1        1 124     -0.117000
      4 C4          1.0550   -0.1250   -0.7580 c1        1 124     -0.020500
      5 C5         -0.3160   -0.1090   -0.7200 c1        1 124     -0.020500
      6 C6         -1.0520   -0.1140   -1.9180 c1        1 124     -0.020000
      7 C7         -1.1530   -0.0950   -4.4450 c2        1 124      0.353000
      8 N1         -1.4600    1.1520   -5.0480 n3        1 124     -0.325000
      9 N2         -1.5290   -1.2100   -5.0180 n2        1 124     -0.327000
     10 N3          1.5190   -0.1150    0.5450 n1        1 124     -0.169000
     11 C9         -0.7030   -0.0890    0.6020 c1        1 124     -0.194000
     12 C8          0.4370   -0.0930    1.3800 c2        1 124      0.079000
     13 C1'         0.3860   -0.1000    2.7650 c1        1 124     -0.090000
     14 C2'         0.3130   -1.3030    3.4500 c1        1 124     -0.117000
     15 C3'         0.2330   -1.3090    4.8340 c1        1 124     -0.117000
     16 C4'         0.2260   -0.1120    5.5330 c1        1 124     -0.117000
     17 C5'         0.2990    1.0910    4.8480 c1        1 124     -0.117000
     18 C6'         0.3790    1.0970    3.4650 c1        1 124      0.104000
     19 O6'         0.4620    2.3180    2.7700 oh        1 124     -0.280000
     20 HC2         1.4600   -0.1670   -4.0350 ha        1 124      0.149667
     21 HC3         2.6990   -0.1590   -2.0220 ha        1 124      0.149667
     22 HC6        -2.0280   -0.1020   -1.8910 ha        1 124      0.145000
     23 HH11       -1.6370    1.1940   -5.9440 hn        1 124      0.272500
     24 HH12       -1.5210    1.9050   -4.5350 hn        1 124      0.272500
     25 HH21       -1.3310   -2.0140   -4.6290 DU        1 124      0.246333
     26 HH22       -1.9900   -1.1850   -5.8090 hn        1 124      0.262000
     27 HN3         2.3940   -0.1230    0.8020 DU        1 124      0.246333
     28 HC9        -1.6220   -0.0740    0.9300 DU        1 124      0.246333
     29 HC2'        0.3180   -2.1460    2.9580 ha        1 124      0.149667
     30 HC3'        0.1810   -2.1560    5.3160 ha        1 124      0.149667
     31 HC4'        0.1690   -0.1170    6.5070 ha        1 124      0.149667
     32 HC5'        0.2940    1.9330    5.3410 ha        1 124      0.149667
     33 HO6         1.1860    2.7610    3.0330 ho        1 124      0.242000
@<TRIPOS>BOND
     1    1    6 1   
     2    1    7 1   
     3    2    3 1   
     4    2   20 1   
     5    3   21 1   
     6    4    5 1   
     7    6   22 1   
     8    7    8 1   
     9    7    9 1   
    10    8   23 1   
    11    8   24 1   
    12    9   26 1   
    13   10   12 1   
    14   11   12 1   
    15   12   13 1   
    16   13   18 1   
    17   14   15 1   
    18   14   29 1   
    19   15   30 1   
    20   16   17 1   
    21   16   31 1   
    22   17   32 1   
    23   18   19 1   
    24   19   33 1   
@<TRIPOS>SUBSTRUCTURE
     1 124         1 TEMP              0 ****  ****    0 ROOT
