@<TRIPOS>MOLECULE
124
   33    35     1     0     0
SMALL
bcc


@<TRIPOS>ATOM
      1 C1         -0.0410   -0.0030   -0.0130 ca        1 124     -0.301900
      2 C2          1.3370   -0.3280   -0.0270 ca        1 124     -0.088000
      3 C3          2.0530   -0.4720    1.1450 ca        1 124     -0.123000
      4 C4          1.3770   -0.2780    2.3650 ca        1 124      0.002800
      5 C5         -0.0420    0.0580    2.3840 ca        1 124     -0.100800
      6 C6         -0.7340    0.1860    1.1890 ca        1 124     -0.020000
      7 C7         -0.7590    0.1370   -1.2970 ce        1 124      0.530400
      8 N1         -1.9900   -0.4150   -1.4230 nh        1 124     -0.480100
      9 N2         -0.1670    0.8160   -2.3090 nh        1 124     -0.464200
     10 N3          1.8240   -0.3280    3.6710 na        1 124     -0.146400
     11 C9         -0.4110    0.1830    3.7700 cc        1 124     -0.182200
     12 C8          0.7390   -0.0660    4.5340 cd        1 124      0.063700
     13 C1'         0.8510   -0.0390    5.9800 ca        1 124     -0.101800
     14 C2'        -0.0620    0.7480    6.7050 ca        1 124     -0.069000
     15 C3'        -0.0260    0.7980    8.0940 ca        1 124     -0.156000
     16 C4'         0.9290    0.0610    8.7980 ca        1 124     -0.061000
     17 C5'         1.8500   -0.7220    8.1100 ca        1 124     -0.205000
     18 C6'         1.8160   -0.7690    6.7070 ca        1 124      0.149100
     19 O6'         2.7260   -1.5260    6.0030 oh        1 124     -0.526100
     20 HC2         1.8520   -0.5000   -0.9860 ha        1 124      0.140000
     21 HC3         3.1210   -0.7350    1.1260 ha        1 124      0.163000
     22 HC6        -1.8000    0.4590    1.2060 ha        1 124      0.145000
     23 HH11       -2.3620   -0.9330   -0.6550 hn        1 124      0.321950
     24 HH12       -2.5420   -0.3340   -2.2470 hn        1 124      0.321950
     25 HH21        0.7270    1.2290   -2.1460 hn        1 124      0.321950
     26 HH22       -0.5790    0.9220   -3.2080 hn        1 124      0.321950
     27 HN3         2.7220   -0.6200    3.9750 hn        1 124      0.333700
     28 HC9        -1.4020    0.4160    4.1490 ha        1 124      0.173000
     29 HC2'       -0.8150    1.3360    6.1570 ha        1 124      0.143000
     30 HC3'       -0.7510    1.4210    8.6390 ha        1 124      0.151000
     31 HC4'        0.9560    0.1000    9.8980 ha        1 124      0.152000
     32 HC5'        2.6050   -1.3040    8.6590 ha        1 124      0.149000
     33 HO6         3.2630   -2.0250    6.6370 ho        1 124      0.443000
@<TRIPOS>BOND
     1    1    2 ar  
     2    1    6 ar  
     3    1    7 1   
     4    2    3 ar  
     5    2   20 1   
     6    3    4 ar  
     7    3   21 1   
     8    4    5 ar  
     9    4   10 1   
    10    5    6 ar  
    11    5   11 1   
    12    6   22 1   
    13    7    8 2   
    14    7    9 1   
    15    8   23 1   
    16    8   24 1   
    17    9   25 1   
    18    9   26 1   
    19   10   12 1   
    20   10   27 1   
    21   11   12 2   
    22   11   28 1   
    23   12   13 1   
    24   13   14 ar  
    25   13   18 ar  
    26   14   15 ar  
    27   14   29 1   
    28   15   16 ar  
    29   15   30 1   
    30   16   17 ar  
    31   16   31 1   
    32   17   18 ar  
    33   17   32 1   
    34   18   19 1   
    35   19   33 1   
@<TRIPOS>SUBSTRUCTURE
     1 124         1 TEMP              0 ****  ****    0 ROOT
