@<TRIPOS>MOLECULE
124
   33    35     1     0     0
SMALL
bcc


@<TRIPOS>ATOM
      1 C1          3.4220   -0.0490    0.0190 ca        1 124     -0.301900
      2 C2          3.1810    1.3440   -0.0560 ca        1 124     -0.088000
      3 C3          1.8960    1.8490   -0.0910 ca        1 124     -0.123000
      4 C4          0.8230    0.9390   -0.0620 ca        1 124      0.002800
      5 C5          1.0670   -0.4970    0.0130 ca        1 124     -0.100800
      6 C6          2.3690   -0.9710    0.0570 ca        1 124     -0.020000
      7 C7          4.8170   -0.5360    0.0570 ce        1 124      0.530400
      8 N1          5.1440   -1.5200    0.9290 nh        1 124     -0.480100
      9 N2          5.7270    0.0150   -0.7830 nh        1 124     -0.464200
     10 N3         -0.5430    1.1400   -0.1100 na        1 124     -0.146400
     11 C9         -0.2270   -1.1290    0.0270 cc        1 124     -0.182200
     12 C8         -1.1900   -0.1110   -0.0390 cd        1 124      0.063700
     13 C1'        -2.6320   -0.2720   -0.0650 ca        1 124     -0.101800
     14 C2'        -3.1600   -1.4840   -0.5480 ca        1 124     -0.069000
     15 C3'        -4.5300   -1.7120   -0.5760 ca        1 124     -0.156000
     16 C4'        -5.4140   -0.7310   -0.1210 ca        1 124     -0.061000
     17 C5'        -4.9250    0.4780    0.3570 ca        1 124     -0.205000
     18 C6'        -3.5400    0.7120    0.3820 ca        1 124      0.149100
     19 O6'        -3.0320    1.9070    0.8380 oh        1 124     -0.526100
     20 HC2         4.0270    2.0500   -0.0560 ha        1 124      0.140000
     21 HC3         1.7170    2.9340   -0.1390 ha        1 124      0.163000
     22 HC6         2.5510   -2.0570    0.0950 ha        1 124      0.145000
     23 HH11        6.0560   -1.9150    0.9880 hn        1 124      0.321950
     24 HH12        4.4400   -1.8640    1.5470 hn        1 124      0.321950
     25 HH21        5.4200    0.7140   -1.4260 hn        1 124      0.321950
     26 HH22        6.6880   -0.2420   -0.7890 hn        1 124      0.321950
     27 HN3        -1.0100    2.0150   -0.0750 hn        1 124      0.333700
     28 HC9        -0.4160   -2.1970    0.0890 ha        1 124      0.173000
     29 HC2'       -2.4690   -2.2600   -0.9150 ha        1 124      0.143000
     30 HC3'       -4.9190   -2.6680   -0.9590 ha        1 124      0.151000
     31 HC4'       -6.5000   -0.9140   -0.1410 ha        1 124      0.152000
     32 HC5'       -5.6170    1.2550    0.7170 ha        1 124      0.149000
     33 HO6        -3.7670    2.4390    1.1810 ho        1 124      0.443000
@<TRIPOS>BOND
     1    1    2 ar  
     2    1    6 ar  
     3    1    7 1   
     4    2    3 ar  
     5    2   20 1   
     6    3    4 ar  
     7    3   21 1   
     8    4    5 ar  
     9    4   10 1   
    10    5    6 ar  
    11    5   11 1   
    12    6   22 1   
    13    7    8 2   
    14    7    9 1   
    15    8   23 1   
    16    8   24 1   
    17    9   25 1   
    18    9   26 1   
    19   10   12 1   
    20   10   27 1   
    21   11   12 2   
    22   11   28 1   
    23   12   13 1   
    24   13   14 ar  
    25   13   18 ar  
    26   14   15 ar  
    27   14   29 1   
    28   15   16 ar  
    29   15   30 1   
    30   16   17 ar  
    31   16   31 1   
    32   17   18 ar  
    33   17   32 1   
    34   18   19 1   
    35   19   33 1   
@<TRIPOS>SUBSTRUCTURE
     1 124         1 TEMP              0 ****  ****    0 ROOT
