@<TRIPOS>MOLECULE
125
   41    42     1     0     0
SMALL
bcc


@<TRIPOS>ATOM
      1 P           0.7210   -0.8490   -2.6520 p5        1 125      1.343900
      2 OP1         1.5070   -0.3440   -1.4560 o         1 125     -0.924167
      3 OP2         1.4810   -1.4690   -3.7750 o         1 125     -0.924167
      4 OP3        -0.4550    0.0580   -2.9350 o         1 125     -0.924167
      5 O5'        -0.1840   -2.1430   -1.9350 os        1 125     -0.569200
      6 C5'        -0.1330   -2.2980   -0.5790 c3        1 125      0.221400
      7 C4'        -1.2990   -1.5890    0.1560 c3        1 125      0.066100
      8 O4'        -1.0600   -1.6740    1.5830 os        1 125     -0.431600
      9 C3'        -1.4460   -0.0970   -0.2000 c3        1 125      0.084100
     10 O3'        -2.5650    0.1380   -1.0190 oh        1 125     -0.661800
     11 C2'        -1.5250    0.6470    1.1420 c3        1 125      0.105100
     12 O2'        -2.8350    0.9280    1.6390 os        1 125     -0.425600
     13 C1'        -0.9390   -0.3810    2.1640 c3        1 125      0.303500
     14 N1          0.4550   -0.0790    2.5200 n         1 125     -0.370000
     15 C2          0.8090   -0.0630    3.8870 c         1 125      0.797500
     16 O2         -0.0330   -0.1710    4.8150 o         1 125     -0.704500
     17 N3          2.1600    0.1240    4.2280 n         1 125     -0.599500
     18 C4          3.1890    0.2450    3.2700 c         1 125      0.716700
     19 O4          4.3510    0.3950    3.7050 o         1 125     -0.685500
     20 C5          2.7700    0.1850    1.8730 cc        1 125     -0.288400
     21 C5M         3.7850    0.2870    0.8040 c3        1 125     -0.044900
     22 C6          1.4490    0.0130    1.5540 cd        1 125      0.051600
     23 CA'        -3.5560    1.8860    0.8780 c3        1 125      0.121400
     24 CB'        -4.8830    1.2330    0.4600 c3        1 125      0.125900
     25 FC'        -5.8710    2.1840    0.2620 f         1 125     -0.279300
     26 H5'         0.8430   -1.9290   -0.1570 h1        1 125      0.000700
     27 H5''       -0.2320   -3.3980   -0.3330 h1        1 125      0.000700
     28 H4'        -2.2640   -2.1330   -0.0180 h1        1 125      0.051700
     29 H3'        -0.5050    0.2350   -0.7600 h1        1 125      0.154700
     30 HO3'       -2.2100    0.1080   -1.9390 ho        1 125      0.492000
     31 H2'        -0.9440    1.6050    1.0990 h1        1 125      0.055700
     32 H1'        -1.5440   -0.4090    3.1190 h2        1 125      0.109700
     33 H3          2.3810    0.1320    5.1960 hn        1 125      0.320500
     34 H71         3.3050    0.0860   -0.2000 hc        1 125      0.059367
     35 H72         4.2400    1.3080    0.7990 hc        1 125      0.059367
     36 H73         4.6030   -0.4540    0.9790 hc        1 125      0.059367
     37 H6          1.1420   -0.0570    0.4600 h4        1 125      0.299000
     38 HA'1       -3.7490    2.7570    1.5590 h1        1 125      0.047700
     39 HA'2       -2.9910    2.2220   -0.0290 h1        1 125      0.047700
     40 HB'1       -4.7250    0.6540   -0.4920 h1        1 125      0.065700
     41 HB'2       -5.2230    0.5270    1.2660 h1        1 125      0.065700
@<TRIPOS>BOND
     1    1    2 1   
     2    1    3 1   
     3    1    4 1   
     4    1    5 1   
     5    5    6 1   
     6    6    7 1   
     7    6   26 1   
     8    6   27 1   
     9    7    8 1   
    10    7    9 1   
    11    7   28 1   
    12    8   13 1   
    13    9   10 1   
    14    9   11 1   
    15    9   29 1   
    16   10   30 1   
    17   11   12 1   
    18   11   13 1   
    19   11   31 1   
    20   12   23 1   
    21   13   14 1   
    22   13   32 1   
    23   14   15 1   
    24   14   22 1   
    25   15   16 2   
    26   15   17 1   
    27   17   18 1   
    28   17   33 1   
    29   18   19 2   
    30   18   20 1   
    31   20   21 1   
    32   20   22 2   
    33   21   34 1   
    34   21   35 1   
    35   21   36 1   
    36   22   37 1   
    37   23   24 1   
    38   23   38 1   
    39   23   39 1   
    40   24   25 1   
    41   24   40 1   
    42   24   41 1   
@<TRIPOS>SUBSTRUCTURE
     1 125         1 TEMP              0 ****  ****    0 ROOT
