@<TRIPOS>MOLECULE
125
   41    41     1     0     0
SMALL
bcc


@<TRIPOS>ATOM
      1 P          -0.6700   -4.7040    1.5520 p4        1 125      1.711200
      2 OP1         0.2480   -5.4960    0.6510 o         1 125     -0.911000
      3 OP2         0.0460   -4.3820    2.8420 os        1 125     -1.269000
      4 OP3        -1.9060   -5.5180    1.8520 o         1 125     -0.959800
      5 O5'        -1.0860   -3.3610    0.8310 os        1 125     -0.567200
      6 C5'        -0.1200   -2.3450    0.6930 c3        1 125      0.222400
      7 C4'        -0.2190   -1.7830   -0.5590 c3        1 125      0.064100
      8 O4'        -1.4430   -0.9100   -0.6450 os        1 125     -0.431600
      9 C3'         1.0330   -0.8110   -0.8380 c3        1 125      0.117100
     10 O3'         1.9410   -1.4170   -1.8640 oh        1 125     -0.629800
     11 C2'         0.5370    0.2290   -1.2680 c3        1 125      0.100100
     12 O2'         0.4740    0.1870   -2.7500 os        1 125     -0.383600
     13 C1'        -0.9870    0.3030   -0.6400 c3        1 125      0.273500
     14 N1         -0.9440    0.7950    0.6680 n         1 125     -0.371000
     15 C2         -1.7040    0.1280    1.7240 c         1 125      0.795500
     16 O2         -2.3370   -0.8780    1.4730 o         1 125     -0.711500
     17 N3         -1.7230    0.6850    3.0770 n         1 125     -0.598500
     18 C4         -0.9290    1.8190    3.3890 c         1 125      0.716700
     19 O4         -0.9660    2.2970    4.5050 o         1 125     -0.684500
     20 C5         -0.1130    2.4520    2.3440 cc        1 125     -0.288400
     21 C5M         0.6650    3.7120    2.6520 c3        1 125     -0.044900
     22 C6         -0.1320    1.9160    0.9770 cd        1 125      0.051600
     23 CA'         0.8770    1.3850   -3.3720 c3        1 125      0.092400
     24 CB'         0.7600    1.2380   -4.8730 c3        1 125      0.148900
     25 FC'        -0.4220    0.6770   -5.1770 f         1 125     -0.268300
     26 H5'        -0.2710   -1.6550    1.3740 h1        1 125      0.000200
     27 H5''        0.7760   -2.7290    0.8090 h1        1 125      0.000200
     28 H4'        -0.2590   -2.4840   -1.2400 h1        1 125      0.052700
     29 H3'         1.5220   -0.6380   -0.0080 h1        1 125      0.156700
     30 HO3'        2.7150   -1.6320   -1.4840 ho        1 125      0.478000
     31 H2'         1.0610    1.0000   -0.9740 h1        1 125      0.062700
     32 H1'        -1.5530    0.8770   -1.1960 h2        1 125      0.095700
     33 H3         -2.1980    0.2670    3.7340 hn        1 125      0.320500
     34 H71         0.1240    4.3000    3.2200 hc        1 125      0.059367
     35 H72         1.4930    3.4780    3.1210 hc        1 125      0.059367
     36 H73         0.8820    4.1750    1.8160 hc        1 125      0.059367
     37 H6          0.4080    2.3350    0.2810 h4        1 125      0.303000
     38 HA'1        1.8070    1.5790   -3.1350 h1        1 125      0.036200
     39 HA'2        0.3030    2.1190   -3.0700 h1        1 125      0.036200
     40 HB'1        0.8200    2.1210   -5.2930 h1        1 125      0.053200
     41 HB'2        1.4860    0.6690   -5.2030 h1        1 125      0.053200
@<TRIPOS>BOND
     1    1    2 1   
     2    1    4 2   
     3    1    5 1   
     4    5    6 1   
     5    6    7 1   
     6    6   26 1   
     7    6   27 1   
     8    7    8 1   
     9    7    9 1   
    10    7   28 1   
    11    8   13 1   
    12    9   10 1   
    13    9   11 1   
    14    9   29 1   
    15   10   30 1   
    16   11   12 1   
    17   11   13 1   
    18   11   31 1   
    19   12   23 1   
    20   13   14 1   
    21   13   32 1   
    22   14   15 1   
    23   14   22 1   
    24   15   16 2   
    25   15   17 1   
    26   17   18 1   
    27   17   33 1   
    28   18   19 2   
    29   18   20 1   
    30   20   21 1   
    31   20   22 2   
    32   21   34 1   
    33   21   35 1   
    34   21   36 1   
    35   22   37 1   
    36   23   24 1   
    37   23   38 1   
    38   23   39 1   
    39   24   25 1   
    40   24   40 1   
    41   24   41 1   
@<TRIPOS>SUBSTRUCTURE
     1 125         1 TEMP              0 ****  ****    0 ROOT
