@<TRIPOS>MOLECULE
126
   59    60     1     0     0
SMALL
bcc


@<TRIPOS>ATOM
      1 P           0.4990    1.5720    4.1770 p5        1 126      1.342900
      2 OP1         1.4750    0.9380    3.2010 o         1 126     -0.923500
      3 OP2         1.0660    2.3460    5.3180 o         1 126     -0.923500
      4 OP3        -0.7050    0.6830    4.3760 o         1 126     -0.923500
      5 O5'        -0.2750    2.7460    3.1620 os        1 126     -0.567200
      6 C5'        -0.0060    2.7270    1.8240 c3        1 126      0.223400
      7 C4'        -1.0420    1.9160    1.0030 c3        1 126      0.064100
      8 O4'        -0.5370    1.7830   -0.3500 os        1 126     -0.433600
      9 C3'        -1.3050    0.4970    1.5440 c3        1 126      0.115100
     10 O3'        -2.5700    0.3880    2.1430 oh        1 126     -0.627800
     11 C2'        -1.1410   -0.4460    0.3380 c3        1 126      0.099100
     12 O2'        -2.4060   -0.7750   -0.2250 os        1 126     -0.393600
     13 C1'        -0.3530    0.4180   -0.7010 c3        1 126      0.271500
     14 N1          1.0710    0.0640   -0.7730 n         1 126     -0.368000
     15 C2          1.6300   -0.2020   -2.0390 c         1 126      0.799500
     16 O2          0.9340   -0.2980   -3.0870 o         1 126     -0.733500
     17 N3          3.0130   -0.4190   -2.1320 n         1 126     -0.596500
     18 C4          3.8810   -0.3500   -1.0180 c         1 126      0.716700
     19 O4          5.0940   -0.5490   -1.2390 o         1 126     -0.680500
     20 C5          3.2500   -0.0570    0.2650 cc        1 126     -0.286400
     21 C5M         4.0850    0.0310    1.4810 c3        1 126     -0.045900
     22 C6          1.8980    0.1500    0.3400 cd        1 126      0.050600
     23 CA'        -2.3670   -1.9660   -1.0070 c3        1 126      0.084400
     24 CB'        -3.7380   -2.1080   -1.6580 c3        1 126      0.127400
     25 OC'        -3.7750   -1.5840   -2.9790 os        1 126     -0.433600
     26 CD'        -3.6360   -0.1670   -3.0530 c3        1 126      0.117400
     27 CE'        -2.3940    0.1860   -3.8640 c3        1 126      0.096400
     28 OF'        -2.7740    0.1890   -5.2430 os        1 126     -0.427600
     29 CG'        -1.7440    0.6430   -6.1040 c3        1 126      0.133400
     30 CH'        -0.5610   -0.3210   -6.1130 c3        1 126      0.076400
     31 OI'         0.1730   -0.0490   -7.3100 os        1 126     -0.436600
     32 CK'         1.4660   -0.6260   -7.2860 c3        1 126      0.122700
     33 H5'         1.0230    2.3210    1.6140 h1        1 126     -0.000300
     34 H5''       -0.0560    3.7850    1.4260 h1        1 126     -0.000300
     35 H4'        -2.0040    2.4840    0.9080 h1        1 126      0.052700
     36 H3'        -0.4980    0.2460    2.3170 h1        1 126      0.158700
     37 HO3'       -2.3940    0.4890    3.1050 ho        1 126      0.477000
     38 H2'        -0.5920   -1.3750    0.6370 h1        1 126      0.062700
     39 H1'        -0.7900    0.3080   -1.7390 h2        1 126      0.088700
     40 H3          3.3830   -0.6020   -3.0360 hn        1 126      0.320500
     41 H71         4.5340   -0.9650    1.7150 hc        1 126      0.060033
     42 H72         4.9180    0.7580    1.3230 hc        1 126      0.060033
     43 H73         3.4510    0.3710    2.3540 hc        1 126      0.060033
     44 H6          1.4190    0.3960    1.3470 h4        1 126      0.307000
     45 HA'1       -2.1630   -2.8430   -0.3370 h1        1 126      0.036200
     46 HA'2       -1.5630   -1.8970   -1.7860 h1        1 126      0.036200
     47 HB'1       -4.5200   -1.6150   -1.0220 h1        1 126      0.051200
     48 HB'2       -3.9820   -3.1940   -1.8010 h1        1 126      0.051200
     49 HD'1       -3.5470    0.2930   -2.0330 h1        1 126      0.065200
     50 HD'2       -4.5590    0.2040   -3.5730 h1        1 126      0.065200
     51 HE'1       -1.5750   -0.5650   -3.7000 h1        1 126      0.056200
     52 HE'2       -2.0270    1.2080   -3.5750 h1        1 126      0.056200
     53 HG'1       -1.4040    1.6690   -5.8060 h1        1 126      0.045700
     54 HG'2       -2.2280    0.6830   -7.1160 h1        1 126      0.045700
     55 HH'1       -0.9190   -1.3840   -6.1390 h1        1 126      0.060700
     56 HH'2        0.0860   -0.1690   -5.2080 h1        1 126      0.060700
     57 HK'1        1.9260   -0.3280   -8.2610 h1        1 126      0.027700
     58 HK'2        2.0640   -0.2260   -6.4300 h1        1 126      0.027700
     59 HK'3        1.3970   -1.7400   -7.2110 h1        1 126      0.027700
@<TRIPOS>BOND
     1    1    2 1   
     2    1    3 1   
     3    1    4 1   
     4    1    5 1   
     5    5    6 1   
     6    6    7 1   
     7    6   33 1   
     8    6   34 1   
     9    7    8 1   
    10    7    9 1   
    11    7   35 1   
    12    8   13 1   
    13    9   10 1   
    14    9   11 1   
    15    9   36 1   
    16   10   37 1   
    17   11   12 1   
    18   11   13 1   
    19   11   38 1   
    20   12   23 1   
    21   13   14 1   
    22   13   39 1   
    23   14   15 1   
    24   14   22 1   
    25   15   16 2   
    26   15   17 1   
    27   17   18 1   
    28   17   40 1   
    29   18   19 2   
    30   18   20 1   
    31   20   21 1   
    32   20   22 2   
    33   21   41 1   
    34   21   42 1   
    35   21   43 1   
    36   22   44 1   
    37   23   24 1   
    38   23   45 1   
    39   23   46 1   
    40   24   25 1   
    41   24   47 1   
    42   24   48 1   
    43   25   26 1   
    44   26   27 1   
    45   26   49 1   
    46   26   50 1   
    47   27   28 1   
    48   27   51 1   
    49   27   52 1   
    50   28   29 1   
    51   29   30 1   
    52   29   53 1   
    53   29   54 1   
    54   30   31 1   
    55   30   55 1   
    56   30   56 1   
    57   31   32 1   
    58   32   57 1   
    59   32   58 1   
    60   32   59 1   
@<TRIPOS>SUBSTRUCTURE
     1 126         1 TEMP              0 ****  ****    0 ROOT
