@<TRIPOS>MOLECULE
126
   59    59     1     0     0
SMALL
bcc


@<TRIPOS>ATOM
      1 P           0.2320    8.0290    2.0810 p4        1 126      1.711200
      2 OP1         1.7300    8.1770    1.9910 o         1 126     -0.922000
      3 OP2        -0.1590    7.7340    3.5090 os        1 126     -1.248000
      4 OP3        -0.4300    9.3140    1.6320 o         1 126     -0.970800
      5 O5'        -0.2370    6.8390    1.1470 os        1 126     -0.568200
      6 C5'         0.4620    5.6040    1.2200 c3        1 126      0.222400
      7 C4'        -0.4750    4.4500    0.7640 c3        1 126      0.064100
      8 O4'        -0.5950    4.4490   -0.5240 os        1 126     -0.431600
      9 C3'         0.1480    3.0880    1.1080 c3        1 126      0.117100
     10 O3'        -0.5450    2.4950    2.1020 oh        1 126     -0.629800
     11 C2'         0.0520    2.2480   -0.1880 c3        1 126      0.101100
     12 O2'        -0.5410    0.8840    0.1150 os        1 126     -0.386600
     13 C1'        -0.7330    2.9140   -0.9570 c3        1 126      0.273500
     14 N1         -0.3360    2.7490   -2.3400 n         1 126     -0.370000
     15 C2         -1.1960    2.0050   -3.2580 c         1 126      0.795500
     16 O2         -2.1420    1.3800   -2.8250 o         1 126     -0.711500
     17 N3         -0.9930    2.1140   -4.7070 n         1 126     -0.598500
     18 C4          0.1390    2.8090   -5.2180 c         1 126      0.716700
     19 O4          0.3330    2.8580   -6.4180 o         1 126     -0.685500
     20 C5          1.0520    3.4960   -4.2990 cc        1 126     -0.288400
     21 C5M         2.3190    4.1450   -4.8310 c3        1 126     -0.044900
     22 C6          0.7960    3.4530   -2.8410 cd        1 126      0.052600
     23 CA'         0.4400   -0.1710    0.2260 c3        1 126      0.122400
     24 CB'        -0.0400   -1.2170    1.2660 c3        1 126      0.120400
     25 OC'        -0.0690   -2.5060    0.6640 os        1 126     -0.420600
     26 CD'         0.2530   -3.5700    1.5610 c3        1 126      0.134400
     27 CE'        -0.7500   -4.7180    1.3740 c3        1 126      0.092400
     28 OF'        -0.0730   -5.9580    1.4710 os        1 126     -0.433600
     29 CG'        -0.8120   -6.9660    2.1500 c3        1 126      0.131400
     30 CH'        -0.4090   -8.3400    1.6140 c3        1 126      0.123400
     31 OI'        -0.6170   -9.3170    2.6170 os        1 126     -0.423600
     32 CK'        -0.6690  -10.6450    2.1220 c3        1 126      0.120700
     33 H5'         0.7500    5.4450    2.1450 h1        1 126      0.000200
     34 H5''        1.2480    5.6380    0.6340 h1        1 126      0.000200
     35 H4'        -1.3540    4.5380    1.1880 h1        1 126      0.052700
     36 H3'         1.0820    3.2010    1.3680 h1        1 126      0.155700
     37 HO3'       -0.1540    2.6770    2.8900 ho        1 126      0.478000
     38 H2'         0.9360    2.1540   -0.6000 h1        1 126      0.062700
     39 H1'        -1.6530    2.6140   -0.8360 h2        1 126      0.095700
     40 H3         -1.5750    1.7100   -5.2800 hn        1 126      0.320500
     41 H71         2.8110    4.5540   -4.0930 hc        1 126      0.059367
     42 H72         2.8780    3.4640   -5.2580 hc        1 126      0.059367
     43 H73         2.0810    4.8360   -5.4900 hc        1 126      0.059367
     44 H6          1.4200    3.8830   -2.2200 h4        1 126      0.303000
     45 HA'1        1.2980    0.2090    0.5160 h1        1 126      0.038200
     46 HA'2        0.5530   -0.6060   -0.6490 h1        1 126      0.038200
     47 HB'1       -0.9390   -0.9820    1.5750 h1        1 126      0.041700
     48 HB'2        0.5800   -1.2260    2.0350 h1        1 126      0.041700
     49 HD'1        0.2090   -3.2440    2.4850 h1        1 126      0.051700
     50 HD'2        1.1590   -3.8930    1.3720 h1        1 126      0.051700
     51 HE'1       -1.4410   -4.6660    2.0720 h1        1 126      0.041700
     52 HE'2       -1.1720   -4.6430    0.4890 h1        1 126      0.041700
     53 HG'1       -1.7740   -6.8250    2.0000 h1        1 126      0.041700
     54 HG'2       -0.6200   -6.9210    3.1140 h1        1 126      0.041700
     55 HH'1        0.5340   -8.3270    1.3630 h1        1 126      0.037200
     56 HH'2       -0.9530   -8.5560    0.8310 h1        1 126      0.037200
     57 HK'1        0.0000  -10.7560    1.4090 h1        1 126      0.028367
     58 HK'2       -1.5650  -10.8260    1.7620 h1        1 126      0.028367
     59 HK'3       -0.4760  -11.2730    2.8510 h1        1 126      0.028367
@<TRIPOS>BOND
     1    1    2 1   
     2    1    4 2   
     3    1    5 1   
     4    5    6 1   
     5    6    7 1   
     6    6   33 1   
     7    6   34 1   
     8    7    8 1   
     9    7    9 1   
    10    7   35 1   
    11    8   13 1   
    12    9   10 1   
    13    9   11 1   
    14    9   36 1   
    15   10   37 1   
    16   11   12 1   
    17   11   13 1   
    18   11   38 1   
    19   12   23 1   
    20   13   14 1   
    21   13   39 1   
    22   14   15 1   
    23   14   22 1   
    24   15   16 2   
    25   15   17 1   
    26   17   18 1   
    27   17   40 1   
    28   18   19 2   
    29   18   20 1   
    30   20   21 1   
    31   20   22 2   
    32   21   41 1   
    33   21   42 1   
    34   21   43 1   
    35   22   44 1   
    36   23   24 1   
    37   23   45 1   
    38   23   46 1   
    39   24   25 1   
    40   24   47 1   
    41   24   48 1   
    42   25   26 1   
    43   26   27 1   
    44   26   49 1   
    45   26   50 1   
    46   27   28 1   
    47   27   51 1   
    48   27   52 1   
    49   28   29 1   
    50   29   30 1   
    51   29   53 1   
    52   29   54 1   
    53   30   31 1   
    54   30   55 1   
    55   30   56 1   
    56   31   32 1   
    57   32   57 1   
    58   32   58 1   
    59   32   59 1   
@<TRIPOS>SUBSTRUCTURE
     1 126         1 TEMP              0 ****  ****    0 ROOT
