@<TRIPOS>MOLECULE
127
   44    45     1     0     0
SMALL
bcc


@<TRIPOS>ATOM
      1 P           0.4380   -0.8970   -2.7400 p5        1 127      1.344900
      2 OP1         1.4160   -0.4280   -1.6770 o         1 127     -0.923500
      3 OP2         0.9920   -1.5400   -3.9660 o         1 127     -0.923500
      4 OP3        -0.7310    0.0570   -2.8400 o         1 127     -0.923500
      5 O5'        -0.3970   -2.1570   -1.8910 os        1 127     -0.568200
      6 C5'        -0.1470   -2.3200   -0.5580 c3        1 127      0.222400
      7 C4'        -1.1600   -1.5670    0.3430 c3        1 127      0.066100
      8 O4'        -0.7190   -1.6680    1.7190 os        1 127     -0.432600
      9 C3'        -1.2940   -0.0680    0.0100 c3        1 127      0.082100
     10 O3'        -2.5160    0.2200   -0.6250 oh        1 127     -0.661800
     11 C2'        -1.1340    0.6730    1.3460 c3        1 127      0.107100
     12 O2'        -2.3450    1.0120    2.0240 os        1 127     -0.447600
     13 C1'        -0.4500   -0.3850    2.2710 c3        1 127      0.303500
     14 N1          0.9940   -0.1490    2.4120 n         1 127     -0.371000
     15 C2          1.5510   -0.1630    3.7100 c         1 127      0.798500
     16 O2          0.8530   -0.2380    4.7540 o         1 127     -0.703500
     17 N3          2.9440   -0.0440    3.8430 n         1 127     -0.598500
     18 C4          3.8220    0.0380    2.7400 c         1 127      0.716700
     19 O4          5.0420    0.1270    2.9940 o         1 127     -0.683500
     20 C5          3.1940    0.0110    1.4220 cc        1 127     -0.286400
     21 C5M         4.0400    0.0750    0.2130 c3        1 127     -0.044900
     22 C6          1.8330   -0.0950    1.3070 cd        1 127      0.049600
     23 CA'        -3.1160    2.0210    1.3780 c3        1 127      0.115400
     24 CB'        -4.5120    1.4790    1.1120 c3        1 127      0.059400
     25 OC'        -5.3070    1.3830    2.3190 os        1 127     -0.246100
     26 ND'        -4.8880    0.5640    3.2830 n3        1 127     -0.636300
     27 H5'         0.8950   -1.9920   -0.2890 h1        1 127      0.001200
     28 H5''       -0.2540   -3.4150   -0.2970 h1        1 127      0.001200
     29 H4'        -2.1620   -2.0690    0.3120 h1        1 127      0.050700
     30 H3'        -0.4380    0.2260   -0.6910 h1        1 127      0.157700
     31 HO3'       -2.3110    0.1740   -1.5890 ho        1 127      0.492000
     32 H2'        -0.5230    1.6040    1.2150 h1        1 127      0.056700
     33 H1'        -0.9040   -0.3890    3.3060 h2        1 127      0.106700
     34 H3          3.3100   -0.0550    4.7670 hn        1 127      0.321500
     35 H71         4.5360    1.0750    0.1400 hc        1 127      0.059367
     36 H72         4.8390   -0.7050    0.2610 hc        1 127      0.059367
     37 H73         3.4050   -0.0940   -0.7080 hc        1 127      0.059367
     38 H6          1.3620   -0.1400    0.2720 h4        1 127      0.299000
     39 HA'1       -3.1550    2.8860    2.0940 h1        1 127      0.052200
     40 HA'2       -2.6560    2.3370    0.4060 h1        1 127      0.052200
     41 HB'1       -5.0980    2.2000    0.4860 h1        1 127      0.073200
     42 HB'2       -4.4460    0.4800    0.6060 h1        1 127      0.073200
     43 HD'1       -4.7330   -0.3710    2.9080 hn        1 127      0.335300
     44 HD'2       -3.9760    0.8670    3.6260 hn        1 127      0.335300
@<TRIPOS>BOND
     1    1    2 1   
     2    1    3 1   
     3    1    4 1   
     4    1    5 1   
     5    5    6 1   
     6    6    7 1   
     7    6   27 1   
     8    6   28 1   
     9    7    8 1   
    10    7    9 1   
    11    7   29 1   
    12    8   13 1   
    13    9   10 1   
    14    9   11 1   
    15    9   30 1   
    16   10   31 1   
    17   11   12 1   
    18   11   13 1   
    19   11   32 1   
    20   12   23 1   
    21   13   14 1   
    22   13   33 1   
    23   14   15 1   
    24   14   22 1   
    25   15   16 2   
    26   15   17 1   
    27   17   18 1   
    28   17   34 1   
    29   18   19 2   
    30   18   20 1   
    31   20   21 1   
    32   20   22 2   
    33   21   35 1   
    34   21   36 1   
    35   21   37 1   
    36   22   38 1   
    37   23   24 1   
    38   23   39 1   
    39   23   40 1   
    40   24   25 1   
    41   24   41 1   
    42   24   42 1   
    43   25   26 1   
    44   26   43 1   
    45   26   44 1   
@<TRIPOS>SUBSTRUCTURE
     1 127         1 TEMP              0 ****  ****    0 ROOT
