@<TRIPOS>MOLECULE
127
   44    44     1     0     0
SMALL
bcc


@<TRIPOS>ATOM
      1 P          -0.6020   -4.5450    3.0550 p4        1 127      1.713200
      2 OP1         0.8710   -4.3320    3.3120 o         1 127     -0.939000
      3 OP2        -1.3040   -4.8320    4.3610 os        1 127     -1.212000
      4 OP3        -0.7860   -5.7140    2.1170 o         1 127     -0.987800
      5 O5'        -1.2170   -3.2430    2.4010 os        1 127     -0.568200
      6 C5'        -0.5370   -2.6510    1.3190 c3        1 127      0.222400
      7 C4'        -1.5470   -1.8690    0.4400 c3        1 127      0.066100
      8 O4'        -1.7970   -0.4490    1.0350 os        1 127     -0.432600
      9 C3'        -1.0600   -1.6640   -0.7100 c3        1 127      0.082100
     10 O3'        -2.1290   -1.6330   -1.7090 oh        1 127     -0.661800
     11 C2'        -0.3120   -0.1970   -0.6370 c3        1 127      0.107100
     12 O2'        -0.2010    0.3770   -1.9770 os        1 127     -0.447600
     13 C1'        -1.0450    0.5370    0.0890 c3        1 127      0.303500
     14 N1         -0.2270    1.4540    0.8660 n         1 127     -0.371000
     15 C2          1.0830    1.8660    0.3660 c         1 127      0.798500
     16 O2          1.4660    1.4830   -0.7210 o         1 127     -0.703500
     17 N3          1.9460    2.7120    1.1870 n         1 127     -0.598500
     18 C4          1.4520    3.2710    2.3940 c         1 127      0.716700
     19 O4          2.1140    4.0900    2.9990 o         1 127     -0.683500
     20 C5          0.1040    2.9210    2.8650 cc        1 127     -0.286400
     21 C5M        -0.4680    3.5970    4.0900 c3        1 127     -0.044900
     22 C6         -0.7290    2.0000    2.0760 cd        1 127      0.049600
     23 CA'         0.6830   -0.3210   -2.8240 c3        1 127      0.115400
     24 CB'         0.5790    0.2340   -4.2280 c3        1 127      0.059400
     25 OC'         1.8590    0.6080   -4.6800 os        1 127     -0.246100
     26 ND'         1.8110    0.9040   -6.0170 n3        1 127     -0.636300
     27 H5'         0.1450   -2.0350    1.6600 h1        1 127      0.001200
     28 H5''       -0.1070   -3.3480    0.7820 h1        1 127      0.001200
     29 H4'        -2.3890   -2.3610    0.3690 h1        1 127      0.050700
     30 H3'        -0.4120   -2.3620   -0.9310 h1        1 127      0.157700
     31 HO3'       -2.2040   -2.4340   -2.0880 ho        1 127      0.492000
     32 H2'         0.5740   -0.2900   -0.2350 h1        1 127      0.056700
     33 H1'        -1.6830    1.0320   -0.4620 h2        1 127      0.106700
     34 H3          2.7970    2.8950    0.9150 hn        1 127      0.321500
     35 H71        -0.7030    4.5240    3.8720 hc        1 127      0.059367
     36 H72        -1.2700    3.1170    4.3840 hc        1 127      0.059367
     37 H73         0.1990    3.5900    4.8090 hc        1 127      0.059367
     38 H6         -1.5980    1.7160    2.4170 h4        1 127      0.299000
     39 HA'1        1.6010   -0.2140   -2.4980 h1        1 127      0.052200
     40 HA'2        0.4470   -1.2710   -2.8300 h1        1 127      0.052200
     41 HB'1       -0.0090    1.0180   -4.2260 h1        1 127      0.073200
     42 HB'2        0.2090   -0.4510   -4.8230 h1        1 127      0.073200
     43 HD'1        1.9080    1.8070   -6.1330 hn        1 127      0.335300
     44 HD'2        2.4880    0.4650   -6.4510 hn        1 127      0.335300
@<TRIPOS>BOND
     1    1    2 1   
     2    1    4 2   
     3    1    5 1   
     4    5    6 1   
     5    6    7 1   
     6    6   27 1   
     7    6   28 1   
     8    7    8 1   
     9    7    9 1   
    10    7   29 1   
    11    8   13 1   
    12    9   10 1   
    13    9   11 1   
    14    9   30 1   
    15   10   31 1   
    16   11   12 1   
    17   11   13 1   
    18   11   32 1   
    19   12   23 1   
    20   13   14 1   
    21   13   33 1   
    22   14   15 1   
    23   14   22 1   
    24   15   16 2   
    25   15   17 1   
    26   17   18 1   
    27   17   34 1   
    28   18   19 2   
    29   18   20 1   
    30   20   21 1   
    31   20   22 2   
    32   21   35 1   
    33   21   36 1   
    34   21   37 1   
    35   22   38 1   
    36   23   24 1   
    37   23   39 1   
    38   23   40 1   
    39   24   25 1   
    40   24   41 1   
    41   24   42 1   
    42   25   26 1   
    43   26   43 1   
    44   26   44 1   
@<TRIPOS>SUBSTRUCTURE
     1 127         1 TEMP              0 ****  ****    0 ROOT
