@<TRIPOS>MOLECULE
129
   16    15     1     0     0
SMALL
bcc


@<TRIPOS>ATOM
      1 P           0.0080    0.0300   -0.1610 p5        1 129      1.205700
      2 O1P         1.4570    0.4620   -0.1550 o         1 129     -0.945167
      3 O2P        -0.6820    0.0220    1.1770 o         1 129     -0.945167
      4 O3P        -0.3010   -1.1320   -1.0730 o         1 129     -0.945167
      5 C4         -0.8020    1.4550   -1.0520 c3        1 129     -0.311600
      6 C3         -0.0440    1.4540   -2.3260 c3        1 129      0.057000
      7 N2         -0.3170    2.5620   -3.2840 n         1 129     -0.285300
      8 C1          0.2580    3.8020   -2.9790 c         1 129      0.616900
      9 O1         -0.2150    4.9150   -3.2880 o         1 129     -0.671100
     10 O2         -1.5610    2.6000   -3.7500 oh        1 129     -0.442100
     11 H41        -0.6540    2.3540   -0.4300 hc        1 129      0.026700
     12 H42        -1.8750    1.2190   -1.1550 hc        1 129      0.026700
     13 H31        -0.2650    0.4900   -2.8700 h1        1 129      0.096700
     14 H32         1.0620    1.4800   -2.0860 h1        1 129      0.096700
     15 H1          1.2710    3.7020   -2.5210 h5        1 129      0.026200
     16 HO2        -2.1730    2.4830   -2.9930 ho        1 129      0.392000
@<TRIPOS>BOND
     1    1    2 1   
     2    1    3 1   
     3    1    4 1   
     4    1    5 1   
     5    5    6 1   
     6    5   11 1   
     7    5   12 1   
     8    6    7 1   
     9    6   13 1   
    10    6   14 1   
    11    7    8 1   
    12    7   10 1   
    13    8    9 2   
    14    8   15 1   
    15   10   16 1   
@<TRIPOS>SUBSTRUCTURE
     1 129         1 TEMP              0 ****  ****    0 ROOT
