@<TRIPOS>MOLECULE
129
   16    15     1     0     0
SMALL
bcc


@<TRIPOS>ATOM
      1 P          -0.0650    0.0630   -1.7810 p5        1 129      1.205700
      2 O1P        -1.2330   -0.8910   -1.6710 o         1 129     -0.945167
      3 O2P        -0.3140    1.3180   -2.5750 o         1 129     -0.945167
      4 O3P         1.2740   -0.6000   -1.9900 o         1 129     -0.945167
      5 C4          0.0740    0.6850   -0.0270 c3        1 129     -0.311600
      6 C3          0.2510   -0.5890    0.7070 c3        1 129      0.057000
      7 N2          0.2700   -0.5220    2.1960 n         1 129     -0.285300
      8 C1         -0.9700   -0.3670    2.8270 c         1 129      0.616900
      9 O1         -1.1620    0.2090    3.9180 o         1 129     -0.671100
     10 O2          1.2720    0.1860    2.7080 oh        1 129     -0.442100
     11 H41        -0.8630    1.2230    0.2020 hc        1 129      0.026700
     12 H42         0.9400    1.3680    0.0190 hc        1 129      0.026700
     13 H31         1.2310   -1.0490    0.3890 h1        1 129      0.096700
     14 H32        -0.5840   -1.2930    0.4130 h1        1 129      0.096700
     15 H1         -1.7860   -0.9250    2.3080 h5        1 129      0.026200
     16 HO2         1.3360    1.0270    2.2070 ho        1 129      0.392000
@<TRIPOS>BOND
     1    1    2 1   
     2    1    3 1   
     3    1    4 1   
     4    1    5 1   
     5    5    6 1   
     6    5   11 1   
     7    5   12 1   
     8    6    7 1   
     9    6   13 1   
    10    6   14 1   
    11    7    8 1   
    12    7   10 1   
    13    8    9 2   
    14    8   15 1   
    15   10   16 1   
@<TRIPOS>SUBSTRUCTURE
     1 129         1 TEMP              0 ****  ****    0 ROOT
