@<TRIPOS>MOLECULE
129
   16    14     1     0     0
SMALL
bcc


@<TRIPOS>ATOM
      1 P           1.6070    1.7660    0.8400 p4        1 129      1.574000
      2 O1P         3.0910    1.6770    1.0720 o         1 129     -0.943000
      3 O2P         0.9060    2.0070    2.1490 os        1 129     -1.269000
      4 O3P         1.3140    2.9070   -0.1060 o         1 129     -0.991800
      5 C4          1.0210    0.2210    0.1210 c3        1 129     -0.311600
      6 C3         -0.4890    0.2520    0.0140 c3        1 129      0.057000
      7 N2         -0.9500   -0.9500   -0.6510 n         1 129     -0.285300
      8 C1         -1.5870   -1.9720    0.0970 c         1 129      0.616900
      9 O1         -1.6500   -3.1100   -0.3520 o         1 129     -0.671100
     10 O2         -0.8040   -1.0840   -2.0420 oh        1 129     -0.442100
     11 H41         1.4090    0.1080   -0.7710 hc        1 129      0.026700
     12 H42         1.2890   -0.5190    0.6860 hc        1 129      0.026700
     13 H31        -0.8790    0.2980    0.9110 h1        1 129      0.096700
     14 H32        -0.7650    1.0410   -0.5050 h1        1 129      0.096700
     15 H1         -1.9390   -1.7780    0.9830 h5        1 129      0.026200
     16 HO2        -1.5730   -0.8630   -2.4450 ho        1 129      0.392000
@<TRIPOS>BOND
     1    1    2 1   
     2    1    4 2   
     3    1    5 1   
     4    5    6 1   
     5    5   11 1   
     6    5   12 1   
     7    6    7 1   
     8    6   13 1   
     9    6   14 1   
    10    7    8 1   
    11    7   10 1   
    12    8    9 2   
    13    8   15 1   
    14   10   16 1   
@<TRIPOS>SUBSTRUCTURE
     1 129         1 TEMP              0 ****  ****    0 ROOT
