@<TRIPOS>MOLECULE
12A
   55    53     1     0     0
SMALL
bcc


@<TRIPOS>ATOM
      1 OP3        -4.0230   -7.6680   -2.1500 o         1 12A     -0.734500
      2 P          -2.7220   -7.6440   -1.3650 p5        1 12A      1.347900
      3 OP1        -3.0290   -7.6630    0.1210 o         1 12A     -0.734500
      4 OP2        -1.8950   -8.8570   -1.7230 o         1 12A     -0.734500
      5 O5'        -1.8990   -6.3020   -1.7290 os        1 12A     -0.591200
      6 C5'        -0.6400   -6.0930   -1.1120 c3        1 12A      0.177400
      7 C4'         0.1460   -5.0080   -1.8900 c3        1 12A      0.036100
      8 O4'        -0.1830   -3.8360   -1.4760 os        1 12A     -0.424600
      9 C3'         1.6630   -5.1320   -1.5920 c3        1 12A      0.271100
     10 O3'         2.3250   -5.5800   -2.6870 oh        1 12A     -0.978800
     11 C2'         2.1320   -3.7040   -1.2320 c3        1 12A      0.029100
     12 O2'         3.3760   -3.3500   -2.0140 oh        1 12A     -0.641800
     13 C1'         1.1550   -2.9370   -1.5690 c3        1 12A      0.225800
     14 N9          1.0670   -1.8090   -0.6590 n3        1 12A     -0.076400
     15 C8          0.8390   -1.9550    0.6730 c1        1 12A      0.195400
     16 N7          0.6580   -0.7070    1.2120 ne        1 12A     -0.441400
     17 C5          0.7760    0.2040    0.2110 cg        1 12A     -0.176000
     18 C6          0.6650    1.5890    0.1970 c1        1 12A      0.580000
     19 N6          0.5170    2.2880    1.4180 n         1 12A     -0.494700
     20 N1          0.8050    2.2580   -0.9520 n1        1 12A     -0.576800
     21 C2          1.0640    1.5640   -2.1420 c1        1 12A      0.459900
     22 N3          1.1720    0.2170   -2.1290 n1        1 12A     -0.491800
     23 C4          1.0290   -0.4730   -0.9510 c1        1 12A      0.001700
     24 S2          1.6260    2.3430   -3.6760 ss        1 12A     -0.184200
     25 C2M         0.2060    2.8250   -4.6580 c3        1 12A     -0.047000
     26 CC         -0.0470    3.6180    1.4260 c         1 12A      0.779100
     27 OO         -0.3950    4.1360    0.3830 o         1 12A     -0.604100
     28 N          -0.2940    4.2950    2.6940 n         1 12A     -0.495900
     29 CA         -1.0350    5.5120    2.7200 c3        1 12A     -0.030300
     30 C          -0.2440    6.5960    2.0440 c         1 12A      0.921600
     31 O          -0.8240    7.4150    1.2730 o         1 12A     -0.835300
     32 OXT         1.0080    6.6690    2.2210 o         1 12A     -0.835300
     33 CB         -1.3080    5.9060    4.1650 c3        1 12A      0.108100
     34 OG1        -1.5090    4.7870    4.9070 oh        1 12A     -0.605800
     35 CG2        -2.5700    6.8010    4.2300 c3        1 12A     -0.129100
     36 H5'        -0.1410   -6.9130   -1.1170 h1        1 12A      0.025200
     37 H5''       -0.7740   -5.7980   -0.1870 h1        1 12A      0.025200
     38 H4'        -0.0230   -5.0900   -2.8650 h1        1 12A      0.072700
     39 H3'         1.8080   -5.7250   -0.8500 h1        1 12A     -0.058300
     40 HO3'        2.7390   -6.3600   -2.4920 ho        1 12A      0.436000
     41 H2'         2.3040   -3.6350   -0.2570 h1        1 12A      0.030700
     42 HO2'        4.1010   -3.6460   -1.5740 ho        1 12A      0.436000
     43 H1'         1.2830   -2.6150   -2.4980 h2        1 12A      0.087700
     44 H8          0.8200   -2.8230    1.1760 DU        1 12A      0.218000
     45 HN6         0.8290    1.9210    2.1950 hn        1 12A      0.337500
     46 H2M1        0.5090    3.2850   -5.4650 h1        1 12A      0.067367
     47 H2M2       -0.2990    2.0340   -4.9070 h1        1 12A      0.067367
     48 H2M3       -0.3600    3.4210   -4.1390 h1        1 12A      0.067367
     49 H          -0.0350    3.8980    3.4850 hn        1 12A      0.301500
     50 HA         -1.8820    5.3880    2.2500 h1        1 12A      0.081700
     51 HB         -0.5480    6.3940    4.5160 h1        1 12A      0.039700
     52 HG1        -1.4380    4.9870    5.7710 ho        1 12A      0.379000
     53 HG21       -2.4620    7.4770    4.9590 hc        1 12A      0.039033
     54 HG22       -3.3580    6.2430    4.4140 hc        1 12A      0.039033
     55 HG23       -2.6870    7.2480    3.3950 hc        1 12A      0.039033
@<TRIPOS>BOND
     1    1    2 1   
     2    2    3 1   
     3    2    4 1   
     4    2    5 1   
     5    5    6 1   
     6    6    7 1   
     7    6   36 1   
     8    6   37 1   
     9    7    8 1   
    10    7    9 1   
    11    7   38 1   
    12    8   13 1   
    13    9   10 1   
    14    9   11 1   
    15    9   39 1   
    16   10   40 1   
    17   11   12 1   
    18   11   13 1   
    19   11   41 1   
    20   12   42 1   
    21   13   14 1   
    22   13   43 1   
    23   14   15 2   
    24   14   23 1   
    25   15   16 2   
    26   16   17 1   
    27   17   23 3   
    28   18   19 1   
    29   18   20 3   
    30   19   26 1   
    31   19   45 1   
    32   21   22 3   
    33   21   24 1   
    34   24   25 1   
    35   25   46 1   
    36   25   47 1   
    37   25   48 1   
    38   26   27 2   
    39   26   28 1   
    40   28   29 1   
    41   28   49 1   
    42   29   30 1   
    43   29   33 1   
    44   29   50 1   
    45   30   31 1   
    46   30   32 1   
    47   33   34 1   
    48   33   35 1   
    49   33   51 1   
    50   34   52 1   
    51   35   53 1   
    52   35   54 1   
    53   35   55 1   
@<TRIPOS>SUBSTRUCTURE
     1 12A         1 TEMP              0 ****  ****    0 ROOT
