@<TRIPOS>MOLECULE
12A
   55    57     1     0     0
SMALL
bcc


@<TRIPOS>ATOM
      1 OP3        -1.8510   -0.5980   -8.6370 o         1 12A     -0.932167
      2 P          -1.6100   -1.0810   -7.2400 p5        1 12A      1.335900
      3 OP1        -2.7590   -1.6880   -6.4900 o         1 12A     -0.932167
      4 OP2        -0.2730   -1.7490   -6.9780 o         1 12A     -0.932167
      5 O5'        -1.3300    0.3870   -6.3430 os        1 12A     -0.559200
      6 C5'        -1.0570    0.1910   -5.0180 c3        1 12A      0.231400
      7 C4'         0.4640    0.3290   -4.7550 c3        1 12A      0.055100
      8 O4'         0.6920    1.0470   -3.5180 os        1 12A     -0.435600
      9 C3'         1.2030   -1.0180   -4.6780 c3        1 12A      0.130100
     10 O3'         2.0920   -1.1680   -5.7610 oh        1 12A     -0.687800
     11 C2'         2.0220   -0.9750   -3.3700 c3        1 12A      0.102100
     12 O2'         3.4200   -0.8830   -3.5460 oh        1 12A     -0.611800
     13 C1'         1.5310    0.3180   -2.6350 c3        1 12A      0.218800
     14 N9          0.8120    0.0550   -1.3950 na        1 12A     -0.256000
     15 C8         -0.5420   -0.3180   -1.2530 cc        1 12A      0.445700
     16 N7         -0.9510   -0.4030    0.0260 nd        1 12A     -0.584100
     17 C5          0.1700   -0.0520    0.7910 ca        1 12A     -0.215200
     18 C6          0.4000    0.0650    2.2020 ca        1 12A      0.657200
     19 N6         -0.6260   -0.2510    3.0890 n         1 12A     -0.566400
     20 N1          1.6370    0.4330    2.6420 nb        1 12A     -0.770000
     21 C2          2.6030    0.7080    1.7100 ca        1 12A      0.764300
     22 N3          2.5260    0.6470    0.3540 nb        1 12A     -0.700000
     23 C4          1.2960    0.2540   -0.0940 ca        1 12A      0.446800
     24 S2          4.1570    1.2070    2.3260 ss        1 12A     -0.279400
     25 C2M         3.9640    1.2800    4.0680 c3        1 12A     -0.048000
     26 CC         -0.6870    0.2040    4.4440 c         1 12A      0.779100
     27 OO         -0.0850    1.2420    4.8050 o         1 12A     -0.630100
     28 N          -1.5080   -0.5080    5.3100 n         1 12A     -0.533900
     29 CA         -1.5260   -0.2160    6.7240 c3        1 12A     -0.062300
     30 C          -1.5320   -1.5260    7.5900 c         1 12A      0.904600
     31 O          -0.7960   -1.5440    8.6100 o         1 12A     -0.831800
     32 OXT        -2.3080   -2.4590    7.2310 o         1 12A     -0.831800
     33 CB         -2.7640    0.6100    7.1550 c3        1 12A      0.151100
     34 OG1        -3.9970   -0.0470    6.8940 oh        1 12A     -0.644800
     35 CG2        -2.8220    1.9630    6.4710 c3        1 12A     -0.094100
     36 H5'        -1.4130   -0.8220   -4.6750 h1        1 12A     -0.000800
     37 H5''       -1.5700    0.9860   -4.4000 h1        1 12A     -0.000800
     38 H4'         0.9150    0.9740   -5.5580 h1        1 12A      0.076700
     39 H3'         0.4750   -1.8750   -4.6670 h1        1 12A      0.105700
     40 HO3'        1.5210   -1.4000   -6.5360 ho        1 12A      0.515000
     41 H2'         1.8610   -1.8980   -2.7540 h1        1 12A      0.069700
     42 HO2'        3.5840   -0.5430   -4.4360 ho        1 12A      0.426000
     43 H1'         2.4080    0.9840   -2.3770 h2        1 12A      0.089700
     44 H8         -1.1630   -0.4960   -2.1490 h5        1 12A      0.107800
     45 HN6        -1.4400   -0.6570    2.6840 hn        1 12A      0.342500
     46 H2M1        4.9330    1.6810    4.4450 h1        1 12A      0.069700
     47 H2M2        3.1330    1.9520    4.3810 h1        1 12A      0.069700
     48 H2M3        3.7770    0.2780    4.5150 h1        1 12A      0.069700
     49 H          -1.8390   -1.4160    5.0670 hn        1 12A      0.327500
     50 HA         -0.6100    0.3840    6.9960 h1        1 12A      0.078700
     51 HB         -2.6760    0.7470    8.2730 h1        1 12A      0.027700
     52 HG1        -3.8310   -1.0020    6.9440 ho        1 12A      0.439000
     53 HG21       -3.4990    2.6500    7.0310 hc        1 12A      0.033367
     54 HG22       -1.7980    2.4040    6.4220 hc        1 12A      0.033367
     55 HG23       -3.2150    1.8520    5.4320 hc        1 12A      0.033367
@<TRIPOS>BOND
     1    1    2 1   
     2    2    3 1   
     3    2    4 1   
     4    2    5 1   
     5    5    6 1   
     6    6    7 1   
     7    6   36 1   
     8    6   37 1   
     9    7    8 1   
    10    7    9 1   
    11    7   38 1   
    12    8   13 1   
    13    9   10 1   
    14    9   11 1   
    15    9   39 1   
    16   10   40 1   
    17   11   12 1   
    18   11   13 1   
    19   11   41 1   
    20   12   42 1   
    21   13   14 1   
    22   13   43 1   
    23   14   15 1   
    24   14   23 1   
    25   15   16 2   
    26   15   44 1   
    27   16   17 1   
    28   17   18 ar  
    29   17   23 ar  
    30   18   19 1   
    31   18   20 ar  
    32   19   26 1   
    33   19   45 1   
    34   20   21 ar  
    35   21   22 ar  
    36   21   24 1   
    37   22   23 ar  
    38   24   25 1   
    39   25   46 1   
    40   25   47 1   
    41   25   48 1   
    42   26   27 2   
    43   26   28 1   
    44   28   29 1   
    45   28   49 1   
    46   29   30 1   
    47   29   33 1   
    48   29   50 1   
    49   30   31 1   
    50   30   32 1   
    51   33   34 1   
    52   33   35 1   
    53   33   51 1   
    54   34   52 1   
    55   35   53 1   
    56   35   54 1   
    57   35   55 1   
@<TRIPOS>SUBSTRUCTURE
     1 12A         1 TEMP              0 ****  ****    0 ROOT
