@<TRIPOS>MOLECULE
12B
   20    18     1     0     0
SMALL
bcc


@<TRIPOS>ATOM
      1 CAA        -0.0550    0.6790   -0.3860 c1        1 12B     -0.093000
      2 CAB         1.3730    0.6790   -0.3860 c1        1 12B      0.077000
      3 CAF         2.0710    0.6790    0.8290 c1        1 12B     -0.160000
      4 CAK         1.3620    0.6790    2.0470 c1        1 12B     -0.117500
      5 CAJ        -0.0520    0.6790    2.0420 c1        1 12B     -0.117500
      6 CAD        -0.7500    0.6790    0.8230 c1        1 12B     -0.009000
      7 CAI        -1.9350   -0.0820    0.9570 c2        1 12B     -0.083000
      8 CAM        -2.4120   -0.8400   -0.1290 c1        1 12B     -0.145000
      9 CAH        -1.7130   -0.8400   -1.3460 c1        1 12B     -0.037000
     10 CAC        -0.4930   -0.0010   -1.5520 c2        1 12B     -0.123000
     11 CAG         0.7210   -0.4430   -2.3100 c2        1 12B      0.365000
     12 OAL         0.7280   -0.9410   -3.4180 o         1 12B     -0.313000
     13 NAE         1.8330   -0.0410   -1.6030 n         1 12B     -0.341000
     14 HAF         3.0470    0.6790    0.8310 ha        1 12B      0.142000
     15 HAK         1.8460    0.7240    2.8930 ha        1 12B      0.135500
     16 HAJ        -0.5430    0.6790    2.8860 ha        1 12B      0.135500
     17 HAI        -2.4210   -0.0830    1.8040 ha        1 12B      0.139000
     18 HAM        -3.2510   -1.3330   -0.0490 ha        1 12B      0.138000
     19 HAH        -2.0560   -1.3700   -2.0910 ha        1 12B      0.152000
     20 HAE         2.7000   -0.1810   -1.8450 hn        1 12B      0.256000
@<TRIPOS>BOND
     1    1    6 1   
     2    1   10 1   
     3    2    3 1   
     4    2   13 1   
     5    3   14 1   
     6    4    5 1   
     7    4   15 1   
     8    5   16 1   
     9    6    7 1   
    10    7    8 1   
    11    7   17 1   
    12    8   18 1   
    13    9   10 1   
    14    9   19 1   
    15   10   11 1   
    16   11   12 1   
    17   11   13 1   
    18   13   20 1   
@<TRIPOS>SUBSTRUCTURE
     1 12B         1 TEMP              0 ****  ****    0 ROOT
