@<TRIPOS>MOLECULE
12B
   20    22     1     0     0
SMALL
bcc


@<TRIPOS>ATOM
      1 CAA         0.2260   -0.0230   -0.0000 ca        1 12B     -0.093000
      2 CAB         0.1100    1.4160   -0.0000 ca        1 12B      0.031800
      3 CAF         1.2710    2.1590    0.0000 ca        1 12B     -0.160000
      4 CAK         2.5080    1.4540    0.0000 ca        1 12B     -0.097000
      5 CAJ         2.6080    0.0790   -0.0000 ca        1 12B     -0.138000
      6 CAD         1.4300   -0.7210   -0.0000 ca        1 12B     -0.009000
      7 CAI         1.3060   -2.1410   -0.0010 ca        1 12B     -0.083000
      8 CAM         0.0600   -2.7330   -0.0010 ca        1 12B     -0.145000
      9 CAH        -1.1590   -1.9890   -0.0010 ca        1 12B     -0.037000
     10 CAC        -1.0710   -0.6240   -0.0000 ca        1 12B     -0.123000
     11 CAG        -2.0380    0.5260   -0.0000 c         1 12B      0.319800
     12 OAL        -3.2720    0.5170   -0.0000 o         1 12B     -0.313000
     13 NAE        -1.2620    1.7240   -0.0000 n         1 12B     -0.300300
     14 HAF         1.2700    3.2560    0.0000 ha        1 12B      0.142000
     15 HAK         3.4280    2.0610    0.0000 ha        1 12B      0.134000
     16 HAJ         3.5900   -0.4130   -0.0000 ha        1 12B      0.137000
     17 HAI         2.2180   -2.7550   -0.0010 ha        1 12B      0.139000
     18 HAM        -0.0170   -3.8320   -0.0010 ha        1 12B      0.138000
     19 HAH        -2.1230   -2.5180   -0.0010 ha        1 12B      0.152000
     20 HAE        -1.6360    2.6350    0.0000 hn        1 12B      0.305700
@<TRIPOS>BOND
     1    1    2 ar  
     2    1    6 ar  
     3    1   10 ar  
     4    2    3 ar  
     5    2   13 1   
     6    3    4 ar  
     7    3   14 1   
     8    4    5 ar  
     9    4   15 1   
    10    5    6 ar  
    11    5   16 1   
    12    6    7 ar  
    13    7    8 ar  
    14    7   17 1   
    15    8    9 ar  
    16    8   18 1   
    17    9   10 ar  
    18    9   19 1   
    19   10   11 1   
    20   11   12 2   
    21   11   13 1   
    22   13   20 1   
@<TRIPOS>SUBSTRUCTURE
     1 12B         1 TEMP              0 ****  ****    0 ROOT
