@<TRIPOS>MOLECULE
12C
   53    58     1     0     0
SMALL
bcc


@<TRIPOS>ATOM
      1 C1         -0.0210   -0.0430   -0.0690 ca        1 12C     -0.143800
      2 C2          1.3630   -0.3210   -0.0430 ca        1 12C     -0.110000
      3 C3          2.0540   -0.3880    1.1550 ca        1 12C      0.005400
      4 CL          3.7120   -0.7220    1.1600 cl        1 12C     -0.034400
      5 C4          1.3840   -0.1800    2.3810 ca        1 12C     -0.048000
      6 C5          0.0330    0.0840    2.3890 ca        1 12C     -0.153000
      7 C6         -0.6970    0.1520    1.1670 ca        1 12C      0.114600
      8 N1         -2.0560    0.4070    1.1870 n         1 12C     -0.419100
      9 C7         -2.8410    0.4410    0.0380 c         1 12C      0.704700
     10 O1         -4.0530    0.6880    0.1790 o         1 12C     -0.604500
     11 C8         -2.1710    0.1950   -1.2670 cc        1 12C     -0.133800
     12 C9         -3.0210    0.1130   -2.4550 cc        1 12C      0.410100
     13 C10        -0.8050    0.0220   -1.2940 cd        1 12C      0.098800
     14 N2         -0.0770   -0.1390   -2.5580 n4        1 12C     -0.660800
     15 C11         0.7970    1.0430   -2.8890 c3        1 12C      0.080500
     16 N3         -4.3660    0.5180   -2.5140 na        1 12C     -0.206300
     17 C12        -4.8200    0.2300   -3.7980 ca        1 12C     -0.056200
     18 C13        -3.6880   -0.3400   -4.5130 ca        1 12C      0.078400
     19 N4         -2.5970   -0.3960   -3.6530 nd        1 12C     -0.647100
     20 C14        -6.0680    0.4050   -4.4250 ca        1 12C     -0.121000
     21 C15        -6.1720    0.0110   -5.7440 ca        1 12C     -0.086000
     22 C16        -5.0790   -0.5470   -6.4490 ca        1 12C     -0.124000
     23 C17        -3.8440   -0.7290   -5.8600 ca        1 12C     -0.078000
     24 C18         0.0210    2.1900   -3.6190 c3        1 12C      0.130800
     25 N5          0.6230    2.5300   -4.9060 n3        1 12C     -0.641600
     26 C19         0.6250    1.3360   -5.7630 c3        1 12C      0.123800
     27 C20         1.4530    0.1850   -5.1610 c3        1 12C     -0.115900
     28 C21         2.0130    2.9540   -4.6820 c3        1 12C      0.123800
     29 C22         2.8490    1.8650   -3.9850 c3        1 12C     -0.115900
     30 C23         1.9820    0.6170   -3.7940 c3        1 12C     -0.086700
     31 H2          1.9290   -0.4960   -0.9720 ha        1 12C      0.139000
     32 H4          1.9470   -0.2340    3.3300 ha        1 12C      0.180000
     33 H5         -0.4880    0.2410    3.3480 ha        1 12C      0.169000
     34 HN1        -2.5120    0.5550    2.0670 hn        1 12C      0.364500
     35 HN2         0.5110   -0.9780   -2.4820 hn        1 12C      0.480800
     36 H11         1.2030    1.4400   -1.9130 hx        1 12C      0.108700
     37 HN3        -4.9100    0.8420   -1.7480 hn        1 12C      0.349700
     38 H14        -6.9200    0.8350   -3.8810 ha        1 12C      0.158000
     39 H15        -7.1330    0.1280   -6.2710 ha        1 12C      0.155000
     40 H16        -5.2290   -0.8430   -7.5000 ha        1 12C      0.154000
     41 H17        -3.0020   -1.1670   -6.4130 ha        1 12C      0.151000
     42 H181       -1.0560    1.9230   -3.7960 h1        1 12C      0.088200
     43 H182        0.0470    3.1000   -2.9580 h1        1 12C      0.088200
     44 H191        1.0440    1.6310   -6.7640 h1        1 12C      0.079200
     45 H192       -0.4390    1.0090   -5.9210 h1        1 12C      0.079200
     46 H201        2.3200   -0.0520   -5.8300 hc        1 12C      0.066200
     47 H202        0.8360   -0.7430   -5.0820 hc        1 12C      0.066200
     48 H211        2.4640    3.2100   -5.6800 h1        1 12C      0.079200
     49 H212        2.0010    3.8920   -4.0620 h1        1 12C      0.079200
     50 H221        3.7400    1.6000   -4.6090 hc        1 12C      0.066200
     51 H222        3.2230    2.2320   -2.9970 hc        1 12C      0.066200
     52 H23         2.5800   -0.2010   -3.3160 hc        1 12C      0.070700
     53 H22        -0.7510   -0.2920   -3.3510 hn        1 12C      0.480800
@<TRIPOS>BOND
     1    1    2 ar  
     2    1    7 ar  
     3    1   13 1   
     4    2    3 ar  
     5    2   31 1   
     6    3    4 1   
     7    3    5 ar  
     8    5    6 ar  
     9    5   32 1   
    10    6    7 ar  
    11    6   33 1   
    12    7    8 1   
    13    8    9 1   
    14    8   34 1   
    15    9   10 2   
    16    9   11 1   
    17   11   12 1   
    18   11   13 2   
    19   12   16 1   
    20   12   19 2   
    21   13   14 1   
    22   14   15 1   
    23   14   35 1   
    24   14   53 1   
    25   15   24 1   
    26   15   30 1   
    27   15   36 1   
    28   16   17 1   
    29   16   37 1   
    30   17   18 ar  
    31   17   20 ar  
    32   18   19 1   
    33   18   23 ar  
    34   20   21 ar  
    35   20   38 1   
    36   21   22 ar  
    37   21   39 1   
    38   22   23 ar  
    39   22   40 1   
    40   23   41 1   
    41   24   25 1   
    42   24   42 1   
    43   24   43 1   
    44   25   26 1   
    45   25   28 1   
    46   26   27 1   
    47   26   44 1   
    48   26   45 1   
    49   27   30 1   
    50   27   46 1   
    51   27   47 1   
    52   28   29 1   
    53   28   48 1   
    54   28   49 1   
    55   29   30 1   
    56   29   50 1   
    57   29   51 1   
    58   30   52 1   
@<TRIPOS>SUBSTRUCTURE
     1 12C         1 TEMP              0 ****  ****    0 ROOT
