@<TRIPOS>MOLECULE
12C
   52    57     1     0     0
SMALL
bcc


@<TRIPOS>ATOM
      1 C1         -0.0440    0.0410   -0.1480 ca        1 12C     -0.140800
      2 C2          1.3510   -0.1500   -0.1410 ca        1 12C     -0.055000
      3 C3          2.0640   -0.1530    1.0490 ca        1 12C     -0.034600
      4 Cl          3.7490   -0.3730    1.0280 cl        1 12C     -0.084400
      5 C4          1.4060    0.0170    2.2790 ca        1 12C     -0.062000
      6 C5          0.0330    0.1490    2.3080 ca        1 12C     -0.186000
      7 C6         -0.7190    0.1320    1.1000 ca        1 12C      0.112600
      8 N1         -2.1000    0.1850    1.1450 ns        1 12C     -0.442100
      9 C7         -2.8930    0.0720   -0.0010 c         1 12C      0.726700
     10 O1         -4.1300    0.0700    0.1820 o         1 12C     -0.663500
     11 C8         -2.2180    0.0180   -1.3000 cc        1 12C     -0.334800
     12 C9         -3.0840   -0.0860   -2.4750 cc        1 12C      0.495100
     13 C10        -0.8290    0.0710   -1.3910 cd        1 12C      0.311800
     14 N2         -0.1560    0.0810   -2.6060 nu        1 12C     -0.739000
     15 C11         0.8030    1.1280   -2.9040 c3        1 12C      0.173500
     16 N3         -4.3530    0.5450   -2.5340 na        1 12C     -0.252300
     17 C12        -4.9120    0.1930   -3.7660 ca        1 12C     -0.076200
     18 C13        -3.9040   -0.5930   -4.4570 ca        1 12C      0.070400
     19 N4         -2.7840   -0.7470   -3.6220 nd        1 12C     -0.608100
     20 C14        -6.1400    0.4930   -4.3680 ca        1 12C     -0.127000
     21 C15        -6.3550    0.0110   -5.6510 ca        1 12C     -0.117000
     22 C16        -5.3850   -0.7480   -6.3300 ca        1 12C     -0.150000
     23 C17        -4.1620   -1.0560   -5.7550 ca        1 12C     -0.078000
     24 C18         0.1950    2.3340   -3.7040 c3        1 12C      0.109800
     25 N5          0.9480    2.6450   -4.9220 n3        1 12C     -0.658600
     26 C19         0.9200    1.4650   -5.8010 c3        1 12C      0.131300
     27 C20         1.5420    0.2230   -5.1380 c3        1 12C     -0.109900
     28 C21         2.3440    2.9220   -4.5550 c3        1 12C      0.131300
     29 C22         3.0140    1.7350   -3.8400 c3        1 12C     -0.109900
     30 C23         2.0060    0.5910   -3.7300 c3        1 12C     -0.067700
     31 H2          1.8910   -0.3260   -1.0880 ha        1 12C      0.165000
     32 H4          1.9830    0.0300    3.2180 ha        1 12C      0.155000
     33 H5         -0.4850    0.2580    3.2740 ha        1 12C      0.147000
     34 HN1        -2.5570    0.2420    2.0300 hn        1 12C      0.339500
     35 HN2        -0.6990   -0.1830   -3.4070 hn        1 12C      0.450800
     36 H11         1.2060    1.5410   -1.9340 h1        1 12C      0.066700
     37 HN3        -4.8630    0.8330   -1.7330 hn        1 12C      0.325700
     38 H14        -6.9010    1.0850   -3.8440 ha        1 12C      0.138000
     39 H15        -7.3110    0.2250   -6.1530 ha        1 12C      0.131000
     40 H16        -5.6090   -1.1050   -7.3470 ha        1 12C      0.131000
     41 H17        -3.4100   -1.6510   -6.2930 ha        1 12C      0.143000
     42 H181        0.2030    3.2420   -3.0420 h1        1 12C      0.066700
     43 H182       -0.8710    2.1340   -4.0000 h1        1 12C      0.066700
     44 H191       -0.1490    1.2610   -6.0790 h1        1 12C      0.058700
     45 H192        1.4780    1.7210   -6.7420 h1        1 12C      0.058700
     46 H201        0.8000   -0.6130   -5.1040 hc        1 12C      0.051700
     47 H202        2.4180   -0.1320   -5.7360 hc        1 12C      0.051700
     48 H211        2.3580    3.8300   -3.8930 h1        1 12C      0.058700
     49 H212        2.9070    3.1740   -5.4940 h1        1 12C      0.058700
     50 H221        3.9080    1.3910   -4.4170 hc        1 12C      0.051700
     51 H222        3.3630    2.0420   -2.8220 hc        1 12C      0.051700
     52 H23         2.4680   -0.2950   -3.2280 hc        1 12C      0.067700
@<TRIPOS>BOND
     1    1    2 ar  
     2    1    7 ar  
     3    1   13 1   
     4    2    3 ar  
     5    2   31 1   
     6    3    4 1   
     7    3    5 ar  
     8    5    6 ar  
     9    5   32 1   
    10    6    7 ar  
    11    6   33 1   
    12    7    8 1   
    13    8    9 1   
    14    8   34 1   
    15    9   10 2   
    16    9   11 1   
    17   11   12 1   
    18   11   13 2   
    19   12   16 1   
    20   12   19 2   
    21   13   14 1   
    22   14   15 1   
    23   14   35 1   
    24   15   24 1   
    25   15   30 1   
    26   15   36 1   
    27   16   17 1   
    28   16   37 1   
    29   17   18 ar  
    30   17   20 ar  
    31   18   19 1   
    32   18   23 ar  
    33   20   21 ar  
    34   20   38 1   
    35   21   22 ar  
    36   21   39 1   
    37   22   23 ar  
    38   22   40 1   
    39   23   41 1   
    40   24   25 1   
    41   24   42 1   
    42   24   43 1   
    43   25   26 1   
    44   25   28 1   
    45   26   27 1   
    46   26   44 1   
    47   26   45 1   
    48   27   30 1   
    49   27   46 1   
    50   27   47 1   
    51   28   29 1   
    52   28   48 1   
    53   28   49 1   
    54   29   30 1   
    55   29   50 1   
    56   29   51 1   
    57   30   52 1   
@<TRIPOS>SUBSTRUCTURE
     1 12C         1 TEMP              0 ****  ****    0 ROOT
