@<TRIPOS>MOLECULE
12C
   52    57     1     0     0
SMALL
bcc


@<TRIPOS>ATOM
      1 C1         -1.9320    1.0000   -0.1180 ca        1 12C     -0.140800
      2 C2         -2.9590    0.1290   -0.5290 ca        1 12C     -0.055000
      3 C3         -4.2910    0.5070   -0.4410 ca        1 12C     -0.034600
      4 CL         -5.5120   -0.5690   -0.9310 cl        1 12C     -0.084400
      5 C4         -4.6450    1.7770    0.0460 ca        1 12C     -0.062000
      6 C5         -3.6580    2.6720    0.4020 ca        1 12C     -0.186000
      7 C6         -2.2860    2.3130    0.2970 ca        1 12C      0.112600
      8 N1         -1.3040    3.2450    0.5800 n         1 12C     -0.442100
      9 C7          0.0580    2.9790    0.3990 c         1 12C      0.726700
     10 O1          0.8400    3.9270    0.6290 o         1 12C     -0.663500
     11 C8          0.4460    1.6210    0.0110 cc        1 12C     -0.334800
     12 C9          1.8790    1.3810   -0.1550 cc        1 12C      0.495100
     13 C10        -0.5110    0.6270   -0.1790 cd        1 12C      0.311800
     14 N2         -0.1780   -0.6860   -0.4900 nh        1 12C     -0.739000
     15 C11        -0.6790   -1.7810    0.3190 c3        1 12C      0.173500
     16 N3          2.8490    2.0270    0.6540 na        1 12C     -0.252300
     17 C12         4.0980    1.6030    0.1880 ca        1 12C     -0.076200
     18 C13         3.8290    0.6320   -0.8590 ca        1 12C      0.070400
     19 N4          2.4400    0.5240   -1.0460 nd        1 12C     -0.608100
     20 C14         5.4070    1.9130    0.5740 ca        1 12C     -0.127000
     21 C15         6.4380    1.2560   -0.0830 ca        1 12C     -0.117000
     22 C16         6.1890    0.3120   -1.0960 ca        1 12C     -0.150000
     23 C17         4.9010   -0.0120   -1.4940 ca        1 12C     -0.078000
     24 C18         0.3110   -2.2360    1.4500 c3        1 12C      0.109800
     25 N5          0.5870   -3.6750    1.4170 n3        1 12C     -0.658600
     26 C19         1.2050   -4.0020    0.1230 c3        1 12C      0.131300
     27 C20         0.2990   -3.6440   -1.0690 c3        1 12C     -0.109900
     28 C21        -0.6870   -4.4010    1.5240 c3        1 12C      0.131300
     29 C22        -1.6640   -4.0520    0.3870 c3        1 12C     -0.109900
     30 C23        -0.9990   -3.0350   -0.5420 c3        1 12C     -0.067700
     31 H2         -2.7120   -0.8600   -0.9540 ha        1 12C      0.165000
     32 H4         -5.7070    2.0610    0.1290 ha        1 12C      0.155000
     33 H5         -3.9360    3.6760    0.7600 ha        1 12C      0.147000
     34 HN1        -1.5710    4.1630    0.8630 hn        1 12C      0.339500
     35 HN2         0.7650   -0.8340   -0.7980 hn        1 12C      0.450800
     36 H11        -1.6350   -1.4540    0.8240 h1        1 12C      0.066700
     37 HN3         2.6790    2.8650    1.1560 hn        1 12C      0.325700
     38 H14         5.6090    2.6480    1.3640 ha        1 12C      0.138000
     39 H15         7.4800    1.4790    0.1930 ha        1 12C      0.131000
     40 H16         7.0440   -0.1790   -1.5830 ha        1 12C      0.131000
     41 H17         4.7160   -0.7500   -2.2870 ha        1 12C      0.143000
     42 H181        1.2930   -1.6950    1.3770 h1        1 12C      0.066700
     43 H182       -0.1460   -1.9860    2.4460 h1        1 12C      0.066700
     44 H191        2.1780   -3.4450    0.0500 h1        1 12C      0.058700
     45 H192        1.4360   -5.1010    0.1170 h1        1 12C      0.058700
     46 H201        0.8200   -2.9310   -1.7550 hc        1 12C      0.051700
     47 H202        0.0630   -4.5650   -1.6600 hc        1 12C      0.051700
     48 H211       -0.4610   -5.5020    1.5140 h1        1 12C      0.058700
     49 H212       -1.1480   -4.1540    2.5190 h1        1 12C      0.058700
     50 H221       -2.6120   -3.6310    0.8060 hc        1 12C      0.051700
     51 H222       -1.9270   -4.9710   -0.1930 hc        1 12C      0.051700
     52 H23        -1.6790   -2.7720   -1.3900 hc        1 12C      0.067700
@<TRIPOS>BOND
     1    1    2 ar  
     2    1    7 ar  
     3    1   13 1   
     4    2    3 ar  
     5    2   31 1   
     6    3    4 1   
     7    3    5 ar  
     8    5    6 ar  
     9    5   32 1   
    10    6    7 ar  
    11    6   33 1   
    12    7    8 1   
    13    8    9 1   
    14    8   34 1   
    15    9   10 2   
    16    9   11 1   
    17   11   12 1   
    18   11   13 2   
    19   12   16 1   
    20   12   19 2   
    21   13   14 1   
    22   14   15 1   
    23   14   35 1   
    24   15   24 1   
    25   15   30 1   
    26   15   36 1   
    27   16   17 1   
    28   16   37 1   
    29   17   18 ar  
    30   17   20 ar  
    31   18   19 1   
    32   18   23 ar  
    33   20   21 ar  
    34   20   38 1   
    35   21   22 ar  
    36   21   39 1   
    37   22   23 ar  
    38   22   40 1   
    39   23   41 1   
    40   24   25 1   
    41   24   42 1   
    42   24   43 1   
    43   25   26 1   
    44   25   28 1   
    45   26   27 1   
    46   26   44 1   
    47   26   45 1   
    48   27   30 1   
    49   27   46 1   
    50   27   47 1   
    51   28   29 1   
    52   28   48 1   
    53   28   49 1   
    54   29   30 1   
    55   29   50 1   
    56   29   51 1   
    57   30   52 1   
@<TRIPOS>SUBSTRUCTURE
     1 12C         1 TEMP              0 ****  ****    0 ROOT
