@<TRIPOS>MOLECULE
12C
   52    47     1     0     0
SMALL
bcc


@<TRIPOS>ATOM
      1 C1          1.0710   -0.2030    2.3790 c1        1 12C     -0.131000
      2 C2          2.4830   -0.1720    2.3880 c1        1 12C     -0.057000
      3 C3          3.1730   -0.1560    3.6000 c1        1 12C     -0.114000
      4 CL          4.8850    0.1280    3.7940 cl        1 12C     -0.006000
      5 C4          2.4680   -0.1700    4.8050 c2        1 12C     -0.061000
      6 C5          1.0750   -0.1990    4.7980 c1        1 12C     -0.187000
      7 C6          0.3750   -0.2160    3.5710 c1        1 12C      0.123000
      8 N1         -1.0170   -0.2540    3.5640 n3        1 12C     -0.297000
      9 C7         -1.6990   -0.2780    2.3730 c1        1 12C      0.367000
     10 O1         -2.9150   -0.3520    2.3690 o         1 12C     -0.385000
     11 C8         -0.9970   -0.2650    1.1640 c1        1 12C     -0.239000
     12 C9         -2.2620   -0.2720    0.5440 c1        1 12C      0.081000
     13 C10         0.3780   -0.2270    1.1680 c2        1 12C      0.222000
     14 N2          0.7640   -0.4520   -0.2150 n3        1 12C     -0.287000
     15 C11         1.9210    0.3450   -0.8270 c3        1 12C     -0.020000
     16 N3         -3.0130   -1.2190   -0.0910 n2        1 12C     -0.207000
     17 C12        -4.2150   -0.6620   -0.4040 c1        1 12C     -0.032000
     18 C13        -4.2080    0.6330    0.0380 c1        1 12C     -0.071000
     19 N4         -3.0020    0.8700    0.6220 n1        1 12C     -0.179000
     20 C14        -5.3570   -1.1800   -1.0540 c1        1 12C     -0.127000
     21 C15        -6.4740   -0.3740   -1.2450 c1        1 12C     -0.134000
     22 C16        -6.4670    0.9410   -0.7970 c1        1 12C     -0.134000
     23 C17        -5.3430    1.4510   -0.1570 c1        1 12C     -0.078000
     24 C18         1.3690    1.2800   -1.8050 c3        1 12C     -0.131000
     25 N5          1.8790    1.1120   -3.1450 n3        1 12C     -0.183000
     26 C19         1.9710   -0.2620   -3.6110 c3        1 12C     -0.105000
     27 C20         2.5200   -1.1910   -2.6400 c3        1 12C     -0.187500
     28 C21         3.4180    1.5290   -2.9860 c3        1 12C     -0.105000
     29 C22         4.1000    0.3130   -1.7310 c3        1 12C     -0.187500
     30 C23         2.8790   -0.5880   -1.3730 c3        1 12C     -0.110000
     31 H2          2.9770   -0.2060    1.5450 ha        1 12C      0.164000
     32 H4          2.9550   -0.1580    5.6580 ha        1 12C      0.155000
     33 H5          0.5800   -0.2090    5.6460 ha        1 12C      0.148000
     34 HN1        -1.4800   -0.2600    4.3580 hn        1 12C      0.253000
     35 HN2         0.3260   -1.0830   -0.7160 hn        1 12C      0.233000
     36 H11         2.3580    0.8600   -0.1150 h1        1 12C      0.106000
     37 HN3        -2.7580   -2.0840   -0.2610 DU        1 12C      0.274000
     38 H14        -5.3620   -2.1090   -1.3710 ha        1 12C      0.138000
     39 H15        -7.2670   -0.7340   -1.6970 ha        1 12C      0.131000
     40 H16        -7.2550    1.5100   -0.9320 ha        1 12C      0.131000
     41 H17        -5.3380    2.3800    0.1600 ha        1 12C      0.144000
     42 H181        0.3930    1.1660   -1.8270 h1        1 12C      0.117000
     43 H182        1.5710    2.1960   -1.5070 h1        1 12C      0.117000
     44 H191        1.0700   -0.5680   -3.8580 h1        1 12C      0.097500
     45 H192        2.5390   -0.2810   -4.4150 h1        1 12C      0.097500
     46 H201        3.3250   -1.6070   -3.0270 hc        1 12C      0.088750
     47 H202        1.8540   -1.8960   -2.4730 hc        1 12C      0.088750
     48 H211        3.4910    2.4490   -2.6490 h1        1 12C      0.097500
     49 H212        3.8890    1.4370   -3.8450 h1        1 12C      0.097500
     50 H221        4.4240    0.7870   -0.9330 hc        1 12C      0.088750
     51 H222        4.8200   -0.2260   -2.1290 hc        1 12C      0.088750
     52 H23         3.1280   -1.2730   -0.7100 hc        1 12C      0.104000
@<TRIPOS>BOND
     1    1    7 1   
     2    1   13 1   
     3    2    3 1   
     4    2   31 1   
     5    3    5 1   
     6    5    6 1   
     7    5   32 1   
     8    6   33 1   
     9    7    8 1   
    10    8    9 1   
    11    8   34 1   
    12    9   10 1   
    13   11   13 1   
    14   12   16 1   
    15   12   19 1   
    16   13   14 1   
    17   14   15 1   
    18   14   35 1   
    19   15   24 1   
    20   15   30 1   
    21   15   36 1   
    22   16   17 1   
    23   17   20 1   
    24   18   23 1   
    25   20   38 1   
    26   21   22 1   
    27   21   39 1   
    28   22   40 1   
    29   23   41 1   
    30   24   25 1   
    31   24   42 1   
    32   24   43 1   
    33   25   26 1   
    34   25   28 1   
    35   26   27 1   
    36   26   44 1   
    37   26   45 1   
    38   27   30 1   
    39   27   46 1   
    40   27   47 1   
    41   28   29 1   
    42   28   48 1   
    43   28   49 1   
    44   29   30 1   
    45   29   50 1   
    46   29   51 1   
    47   30   52 1   
@<TRIPOS>SUBSTRUCTURE
     1 12C         1 TEMP              0 ****  ****    0 ROOT
