@<TRIPOS>MOLECULE
12E
   43    44     1     0     0
SMALL
bcc


@<TRIPOS>ATOM
      1 C1          0.2340   -0.2480    0.0430 c3        1 12E      0.341300
      2 N1         -0.0630   -0.4120   -1.4490 n4        1 12E     -0.602800
      3 S1         -2.6300   -0.8950   -0.7990 s         1 12E      0.320600
      4 C2          1.7560   -0.4150    0.2980 c3        1 12E      0.112100
      5 N2         -1.6660   -1.1050   -3.2410 n4        1 12E     -0.318900
      6 O2          2.0830   -1.7190   -0.1300 oh        1 12E     -0.636800
      7 C3          1.9720   -0.1940    1.8050 c3        1 12E      0.119100
      8 N3         -1.0650   -0.1750   -4.1010 n2        1 12E     -0.631400
      9 O3          3.3680   -0.2820    1.9900 oh        1 12E     -0.589800
     10 C4          1.4420    1.1990    2.2080 c3        1 12E      0.079100
     11 N4         -0.1120    3.1240   -7.9120 nb        1 12E     -0.571000
     12 O4          1.5120    1.2210    3.6190 oh        1 12E     -0.574800
     13 C5         -0.0240    1.3640    1.7680 c3        1 12E      0.116100
     14 O5         -0.1590    1.0730    0.3530 os        1 12E     -0.429600
     15 C6         -0.5160    2.8070    1.9090 c3        1 12E      0.136400
     16 O6         -1.8970    2.7920    1.6030 oh        1 12E     -0.610800
     17 C7         -1.4640   -0.7930   -1.7430 c         1 12E      0.003400
     18 C8         -1.7520    0.3960   -5.0660 ce        1 12E      0.609800
     19 C9         -1.1520    1.3210   -6.0100 ca        1 12E     -0.198900
     20 C10        -2.0060    1.9780   -6.9210 ca        1 12E     -0.176800
     21 C11        -1.4330    2.8700   -7.8470 ca        1 12E      0.410200
     22 C12         0.6950    2.4870   -7.0430 ca        1 12E      0.410200
     23 C13         0.2290    1.5780   -6.0730 ca        1 12E     -0.176800
     24 H1         -0.3680   -1.0170    0.6140 hx        1 12E      0.120700
     25 HN1         0.1490    0.4940   -1.9060 hn        1 12E      0.497300
     26 H2          2.3560    0.3410   -0.2840 h1        1 12E      0.096700
     27 HN2        -2.6940   -1.2300   -3.3610 hn        1 12E      0.467300
     28 HO2         2.9130   -1.9770    0.3090 ho        1 12E      0.488000
     29 H3          1.4500   -0.9920    2.4060 h1        1 12E      0.084700
     30 HO3         3.5410   -0.1560    2.9370 ho        1 12E      0.461000
     31 H4          2.0830    1.9990    1.7460 h1        1 12E      0.084700
     32 HO4         1.6320    2.1400    3.8990 ho        1 12E      0.439000
     33 H5         -0.6930    0.6670    2.3450 h1        1 12E      0.095700
     34 H6          0.0190    3.4810    1.1880 h1        1 12E      0.065200
     35 H6A        -0.3260    3.1370    2.9650 h1        1 12E      0.065200
     36 HO6        -2.2940    3.5630    2.0320 ho        1 12E      0.439000
     37 H8         -2.8450    0.2100   -5.2420 h4        1 12E      0.038800
     38 H10        -3.0930    1.8090   -6.9210 ha        1 12E      0.158500
     39 H11        -2.0670    3.4090   -8.5810 h4        1 12E      0.067100
     40 H12         1.7760    2.7160   -7.1330 h4        1 12E      0.067100
     41 H13         0.9460    1.0840   -5.4030 ha        1 12E      0.158500
     42 H121        0.6010   -1.1250   -1.8040 hn        1 12E      0.497300
     43 H22        -1.2070   -2.0170   -3.4430 hn        1 12E      0.467300
@<TRIPOS>BOND
     1    1    2 1   
     2    1    4 1   
     3    1   14 1   
     4    1   24 1   
     5    2   17 1   
     6    2   25 1   
     7    2   42 1   
     8    3   17 2   
     9    4    6 1   
    10    4    7 1   
    11    4   26 1   
    12    5    8 1   
    13    5   17 1   
    14    5   27 1   
    15    5   43 1   
    16    6   28 1   
    17    7    9 1   
    18    7   10 1   
    19    7   29 1   
    20    8   18 2   
    21    9   30 1   
    22   10   12 1   
    23   10   13 1   
    24   10   31 1   
    25   11   21 ar  
    26   11   22 ar  
    27   12   32 1   
    28   13   14 1   
    29   13   15 1   
    30   13   33 1   
    31   15   16 1   
    32   15   34 1   
    33   15   35 1   
    34   16   36 1   
    35   18   19 1   
    36   18   37 1   
    37   19   20 ar  
    38   19   23 ar  
    39   20   21 ar  
    40   20   38 1   
    41   21   39 1   
    42   22   23 ar  
    43   22   40 1   
    44   23   41 1   
@<TRIPOS>SUBSTRUCTURE
     1 12E         1 TEMP              0 ****  ****    0 ROOT
