@<TRIPOS>MOLECULE
12E
   41    42     1     0     0
SMALL
bcc


@<TRIPOS>ATOM
      1 C1         -1.6980   -0.0660    0.7550 c3        1 12E      0.236500
      2 N1         -0.2620   -0.1630    0.9440 n         1 12E     -0.478900
      3 S1         -0.5130   -2.5520    2.0850 s         1 12E     -0.517400
      4 C2         -2.2800    1.2250    1.3960 c3        1 12E      0.090100
      5 N2          1.6620   -1.6350    1.0690 n         1 12E     -0.295900
      6 O2         -2.2270    1.1830    2.8090 oh        1 12E     -0.597800
      7 C3         -3.7760    1.3190    1.0460 c3        1 12E      0.109100
      8 N3          2.4780   -0.7950    0.4390 n2        1 12E     -0.463300
      9 O3         -4.3080    2.5650    1.4600 oh        1 12E     -0.606800
     10 C4         -3.9690    1.2480   -0.4770 c3        1 12E      0.118100
     11 N4          6.5160    1.5040   -1.7290 nb        1 12E     -0.654000
     12 O4         -5.3460    1.1730   -0.8010 oh        1 12E     -0.592800
     13 C5         -3.2990   -0.0290   -1.0150 c3        1 12E      0.149100
     14 O5         -1.9120   -0.0040   -0.6690 os        1 12E     -0.439600
     15 C6         -3.3550   -0.0710   -2.5430 c3        1 12E      0.135400
     16 O6         -3.2960   -1.4380   -2.9170 oh        1 12E     -0.594800
     17 C7          0.2900   -1.3880    1.3020 c         1 12E      0.579400
     18 C8          3.7470   -1.0760    0.2900 ce        1 12E      0.380800
     19 C9          4.6610   -0.1690   -0.4100 ca        1 12E     -0.088900
     20 C10         6.0400   -0.4240   -0.3350 ca        1 12E     -0.224300
     21 C11         6.9200    0.4390   -1.0090 ca        1 12E      0.391700
     22 C12         5.1920    1.7350   -1.7940 ca        1 12E      0.391700
     23 C13         4.2260    0.9340   -1.1560 ca        1 12E     -0.224300
     24 H1         -2.2120   -0.9800    1.1930 h2        1 12E      0.122700
     25 HN1         0.2590    0.4420    0.3380 hn        1 12E      0.324500
     26 H2         -1.7400    2.1350    1.0160 h1        1 12E      0.061700
     27 HN2         1.9890   -2.5060    1.4670 hn        1 12E      0.341500
     28 HO2        -1.3050    1.0630    3.0660 ho        1 12E      0.424000
     29 H3         -4.3360    0.4820    1.5500 h1        1 12E      0.070700
     30 HO3        -4.1490    2.6310    2.4120 ho        1 12E      0.429000
     31 H4         -3.5160    2.1600   -0.9560 h1        1 12E      0.059700
     32 HO4        -5.7730    1.9130   -0.3470 ho        1 12E      0.426000
     33 H5         -3.7900   -0.9440   -0.5830 h1        1 12E      0.086700
     34 H6         -4.3280    0.3780   -2.8830 h1        1 12E      0.047200
     35 H6A        -2.4920    0.4950   -2.9820 h1        1 12E      0.047200
     36 HO6        -3.2390   -1.4560   -3.8800 ho        1 12E      0.404000
     37 H8          4.2310   -2.0020    0.6740 h4        1 12E      0.000800
     38 H10         6.4300   -1.2760    0.2360 ha        1 12E      0.150500
     39 H11         8.0120    0.2710   -0.9720 h4        1 12E      0.026100
     40 H12         4.8860    2.6130   -2.3920 h4        1 12E      0.026100
     41 H13         3.1600    1.1780   -1.2530 ha        1 12E      0.150500
@<TRIPOS>BOND
     1    1    2 1   
     2    1    4 1   
     3    1   14 1   
     4    1   24 1   
     5    2   17 1   
     6    2   25 1   
     7    3   17 2   
     8    4    6 1   
     9    4    7 1   
    10    4   26 1   
    11    5    8 1   
    12    5   17 1   
    13    5   27 1   
    14    6   28 1   
    15    7    9 1   
    16    7   10 1   
    17    7   29 1   
    18    8   18 2   
    19    9   30 1   
    20   10   12 1   
    21   10   13 1   
    22   10   31 1   
    23   11   21 ar  
    24   11   22 ar  
    25   12   32 1   
    26   13   14 1   
    27   13   15 1   
    28   13   33 1   
    29   15   16 1   
    30   15   34 1   
    31   15   35 1   
    32   16   36 1   
    33   18   19 1   
    34   18   37 1   
    35   19   20 ar  
    36   19   23 ar  
    37   20   21 ar  
    38   20   38 1   
    39   21   39 1   
    40   22   23 ar  
    41   22   40 1   
    42   23   41 1   
@<TRIPOS>SUBSTRUCTURE
     1 12E         1 TEMP              0 ****  ****    0 ROOT
