@<TRIPOS>MOLECULE
12E
   41    39     1     0     0
SMALL
bcc


@<TRIPOS>ATOM
      1 C1          1.1990   -0.2620    0.9950 c3        1 12E      0.091000
      2 N1          0.7680   -0.1560   -0.3630 n         1 12E     -0.293000
      3 S1         -1.5450   -1.0120    0.4450 s         1 12E     -0.239000
      4 C2          2.7080   -0.2630    1.0270 c3        1 12E     -0.021000
      5 N2         -0.9030   -0.5340   -2.1090 n         1 12E     -0.282000
      6 O2          3.1770   -1.4490    0.4150 oh        1 12E     -0.324000
      7 C3          3.2450   -0.1930    2.4160 c3        1 12E     -0.002000
      8 N3         -0.7180   -1.6480   -2.8490 n2        1 12E     -0.043000
      9 O3          4.7050   -0.0130    2.3530 oh        1 12E     -0.333000
     10 C4          2.6620    0.9210    3.1880 c3        1 12E      0.011000
     11 N4         -5.2780    0.2000   -4.4140 n1        1 12E     -0.126000
     12 O4          3.0960    0.8110    4.5740 oh        1 12E     -0.320000
     13 C5          1.1520    0.9210    3.1490 c3        1 12E     -0.003000
     14 O5          0.6210    0.8510    1.7740 os        1 12E     -0.312000
     15 C6          0.6550    2.1840    3.8090 c3        1 12E     -0.010000
     16 O6         -0.6350    1.9990    4.2350 oh        1 12E     -0.319000
     17 C7         -0.5010   -0.5140   -0.7040 c2        1 12E      0.163000
     18 C8         -1.6300   -2.0160   -3.7350 c1        1 12E     -0.116000
     19 C9         -2.9200   -1.1620   -3.9240 c1        1 12E     -0.051000
     20 C10        -4.1060   -1.5200   -3.2570 c2        1 12E     -0.177000
     21 C11        -5.2740   -0.8320   -3.5110 c1        1 12E     -0.064000
     22 C12        -4.1000    0.5560   -5.0770 c1        1 12E     -0.067000
     23 C13        -2.9280   -0.1310   -4.8240 c1        1 12E     -0.160000
     24 H1          0.8660   -1.1300    1.3760 h2        1 12E      0.163000
     25 HN1         1.3110    0.1920   -0.9740 hn        1 12E      0.239000
     26 H2          3.0400    0.5170    0.5130 h1        1 12E      0.101000
     27 HN2        -1.2940    0.2380   -2.5020 hn        1 12E      0.261000
     28 HO2         3.7400   -1.2410   -0.2390 ho        1 12E      0.222000
     29 H3          3.0390   -1.0690    2.8950 h1        1 12E      0.110000
     30 HO3         5.1290   -0.8180    2.5570 ho        1 12E      0.228000
     31 H4          2.9900    1.7650    2.8190 h1        1 12E      0.101000
     32 HO4         3.8050    1.3550    4.7130 ho        1 12E      0.226000
     33 H5          0.8340    0.1750    3.6370 h1        1 12E      0.118000
     34 H6          0.6840    2.9150    3.1740 h1        1 12E      0.104500
     35 H6A         1.2380    2.4020    4.5960 h1        1 12E      0.104500
     36 HO6        -0.8900    2.7040    4.7290 ho        1 12E      0.208000
     37 H8         -1.4980   -2.8020   -4.2570 ha        1 12E      0.177000
     38 H10        -4.1020   -2.2610   -2.6110 ha        1 12E      0.150000
     39 H11        -6.1440   -1.0940   -3.0230 ha        1 12E      0.167000
     40 H12        -4.1050    1.2920   -5.7200 ha        1 12E      0.166000
     41 H13        -2.0920    0.1240   -5.2970 ha        1 12E      0.150000
@<TRIPOS>BOND
     1    1    2 1   
     2    1    4 1   
     3    1   14 1   
     4    1   24 1   
     5    2   17 1   
     6    2   25 1   
     7    3   17 1   
     8    4    6 1   
     9    4    7 1   
    10    4   26 1   
    11    5    8 1   
    12    5   17 1   
    13    5   27 1   
    14    6   28 1   
    15    7    9 1   
    16    7   10 1   
    17    7   29 1   
    18    8   18 1   
    19    9   30 1   
    20   10   12 1   
    21   10   13 1   
    22   10   31 1   
    23   11   22 1   
    24   12   32 1   
    25   13   14 1   
    26   13   15 1   
    27   13   33 1   
    28   15   16 1   
    29   15   34 1   
    30   15   35 1   
    31   16   36 1   
    32   18   37 1   
    33   19   20 1   
    34   19   23 1   
    35   20   21 1   
    36   20   38 1   
    37   21   39 1   
    38   22   40 1   
    39   23   41 1   
@<TRIPOS>SUBSTRUCTURE
     1 12E         1 TEMP              0 ****  ****    0 ROOT
