@<TRIPOS>MOLECULE
12E
   43    44     1     0     0
SMALL
bcc


@<TRIPOS>ATOM
      1 C1          0.2300   -0.3100    0.0400 c3        1 12E      0.340300
      2 N1         -0.0450   -0.4860   -1.4550 ny        1 12E     -0.602800
      3 S1         -2.6080   -1.0240   -0.8340 s         1 12E      0.318600
      4 C2          1.7560   -0.4320    0.3040 c3        1 12E      0.113100
      5 N2         -1.6250   -1.1620   -3.2740 ny        1 12E     -0.317900
      6 O2          2.1120   -1.7380   -0.0910 oh        1 12E     -0.635800
      7 C3          1.9720   -0.1630    1.8050 c3        1 12E      0.085100
      8 N3         -1.0350   -0.2030   -4.1080 n2        1 12E     -0.632400
      9 O3          3.3690   -0.2260    1.9900 oh        1 12E     -0.585800
     10 C4          1.4020    1.2230    2.1640 c3        1 12E      0.073100
     11 N4         -0.1170    3.2030   -7.8340 nb        1 12E     -0.570000
     12 O4          1.5760    1.4860    3.5350 oh        1 12E     -0.550800
     13 C5         -0.0740    1.3130    1.7510 c3        1 12E      0.114100
     14 O5         -0.2160    0.9970    0.3430 os        1 12E     -0.428600
     15 C6         -0.6180    2.7390    1.8860 c3        1 12E      0.136400
     16 O6         -2.0230    2.6460    1.7430 oh        1 12E     -0.615800
     17 C7         -1.4380   -0.8820   -1.7680 c         1 12E      0.003400
     18 C8         -1.7270    0.3840   -5.0620 ce        1 12E      0.610800
     19 C9         -1.1370    1.3390   -5.9810 ca        1 12E     -0.199900
     20 C10        -1.9970    2.0050   -6.8780 ca        1 12E     -0.176800
     21 C11        -1.4350    2.9280   -7.7800 ca        1 12E      0.411200
     22 C12         0.6960    2.5550   -6.9780 ca        1 12E      0.411200
     23 C13         0.2400    1.6170   -6.0320 ca        1 12E     -0.176800
     24 H1         -0.3520   -1.0990    0.6040 hx        1 12E      0.119700
     25 HN1         0.1680    0.4200   -1.9140 hn        1 12E      0.498300
     26 H2          2.3390    0.3230   -0.2970 h1        1 12E      0.096700
     27 HN2        -1.1500   -2.0610   -3.4940 hn        1 12E      0.467800
     28 HO2         2.9480   -1.9670    0.3530 ho        1 12E      0.489000
     29 H3          1.4780   -0.9670    2.4210 h1        1 12E      0.067700
     30 HO3         3.5760    0.2050    2.8350 ho        1 12E      0.462000
     31 H4          2.0060    2.0300    1.6520 h1        1 12E      0.124700
     32 HO4         1.0600    0.8440    4.0440 ho        1 12E      0.420000
     33 H5         -0.7090    0.5960    2.3420 h1        1 12E      0.080700
     34 H6         -0.3170    3.1300    2.8960 h1        1 12E      0.076700
     35 H6A        -0.2030    3.3960    1.0770 h1        1 12E      0.076700
     36 HO6        -2.4100    3.3950    2.2160 ho        1 12E      0.440000
     37 H8         -2.8160    0.1860   -5.2450 h4        1 12E      0.039800
     38 H10        -3.0820    1.8220   -6.8870 ha        1 12E      0.158500
     39 H11        -2.0730    3.4760   -8.5030 h4        1 12E      0.067100
     40 H12         1.7740    2.8020   -7.0590 h4        1 12E      0.067100
     41 H13         0.9620    1.1170   -5.3720 ha        1 12E      0.158500
     42 H121        0.6300   -1.1960   -1.7970 hn        1 12E      0.498300
     43 H22        -2.6510   -1.3000   -3.4040 hn        1 12E      0.467800
@<TRIPOS>BOND
     1    1    2 1   
     2    1    4 1   
     3    1   14 1   
     4    1   24 1   
     5    2   17 1   
     6    2   25 1   
     7    2   42 1   
     8    3   17 2   
     9    4    6 1   
    10    4    7 1   
    11    4   26 1   
    12    5    8 1   
    13    5   17 1   
    14    5   27 1   
    15    5   43 1   
    16    6   28 1   
    17    7    9 1   
    18    7   10 1   
    19    7   29 1   
    20    8   18 2   
    21    9   30 1   
    22   10   12 1   
    23   10   13 1   
    24   10   31 1   
    25   11   21 ar  
    26   11   22 ar  
    27   12   32 1   
    28   13   14 1   
    29   13   15 1   
    30   13   33 1   
    31   15   16 1   
    32   15   34 1   
    33   15   35 1   
    34   16   36 1   
    35   18   19 1   
    36   18   37 1   
    37   19   20 ar  
    38   19   23 ar  
    39   20   21 ar  
    40   20   38 1   
    41   21   39 1   
    42   22   23 ar  
    43   22   40 1   
    44   23   41 1   
@<TRIPOS>SUBSTRUCTURE
     1 12E         1 TEMP              0 ****  ****    0 ROOT
