@<TRIPOS>MOLECULE
12E
   43    44     1     0     0
SMALL
bcc


@<TRIPOS>ATOM
      1 C1          0.2280   -0.2600    0.0420 c3        1 12E      0.343300
      2 N1         -0.0570   -0.4450   -1.4520 n4        1 12E     -0.603800
      3 S1         -2.6230   -0.9550   -0.8170 s         1 12E      0.314600
      4 C2          1.7520   -0.4020    0.2990 c3        1 12E      0.111100
      5 N2         -1.6480   -1.1320   -3.2570 n4        1 12E     -0.317900
      6 O2          2.0950   -1.7090   -0.1020 oh        1 12E     -0.635800
      7 C3          1.9700   -0.1430    1.8000 c3        1 12E      0.117100
      8 N3         -1.0550   -0.1870   -4.1050 n2        1 12E     -0.631400
      9 O3          3.3660   -0.2190    1.9840 oh        1 12E     -0.589800
     10 C4          1.4320    1.2580    2.1630 c3        1 12E      0.080100
     11 N4         -0.1370    3.1790   -7.8670 nb        1 12E     -0.571000
     12 O4          1.5090    1.3310    3.5720 oh        1 12E     -0.576800
     13 C5         -0.0390    1.3950    1.7340 c3        1 12E      0.089100
     14 O5         -0.1930    1.0560    0.3330 os        1 12E     -0.432600
     15 C6         -0.5470    2.8420    1.8230 c3        1 12E      0.137400
     16 O6         -1.9450    2.8600    1.6650 oh        1 12E     -0.589800
     17 C7         -1.4540   -0.8340   -1.7550 c         1 12E      0.005400
     18 C8         -1.7510    0.4010   -5.0550 ce        1 12E      0.610800
     19 C9         -1.1590    1.3420   -5.9890 ca        1 12E     -0.199900
     20 C10        -2.0220    2.0160   -6.8780 ca        1 12E     -0.176800
     21 C11        -1.4570    2.9250   -7.7930 ca        1 12E      0.410200
     22 C12         0.6780    2.5240   -7.0190 ca        1 12E      0.410200
     23 C13         0.2210    1.5980   -6.0600 ca        1 12E     -0.176800
     24 H1         -0.3640   -1.0340    0.6170 hx        1 12E      0.120700
     25 HN1         0.1590    0.4570   -1.9180 hn        1 12E      0.497800
     26 H2          2.3420    0.3490   -0.3020 h1        1 12E      0.095700
     27 HN2        -2.6750   -1.2670   -3.3810 hn        1 12E      0.467800
     28 HO2         2.9260   -1.9500    0.3450 ho        1 12E      0.488000
     29 H3          1.4520   -0.9270    2.4210 h1        1 12E      0.083700
     30 HO3         3.5390   -0.0740    2.9290 ho        1 12E      0.460000
     31 H4          2.0610    2.0470    1.6680 h1        1 12E      0.085700
     32 HO4         1.7040    2.2470    3.8150 ho        1 12E      0.439000
     33 H5         -0.6900    0.7100    2.3430 h1        1 12E      0.086700
     34 H6         -0.2150    3.2720    2.8040 h1        1 12E      0.081700
     35 H6A        -0.1340    3.4510    0.9720 h1        1 12E      0.081700
     36 HO6        -2.3470    2.8700    2.5440 ho        1 12E      0.427000
     37 H8         -2.8450    0.2160   -5.2250 h4        1 12E      0.039800
     38 H10        -3.1090    1.8490   -6.8710 ha        1 12E      0.158500
     39 H11        -2.0970    3.4790   -8.5110 h4        1 12E      0.067100
     40 H12         1.7590    2.7530   -7.1160 h4        1 12E      0.067100
     41 H13         0.9440    1.0910   -5.4070 ha        1 12E      0.158500
     42 H121        0.6120   -1.1610   -1.7920 hn        1 12E      0.497800
     43 H22        -1.1780   -2.0360   -3.4680 hn        1 12E      0.467800
@<TRIPOS>BOND
     1    1    2 1   
     2    1    4 1   
     3    1   14 1   
     4    1   24 1   
     5    2   17 1   
     6    2   25 1   
     7    2   42 1   
     8    3   17 2   
     9    4    6 1   
    10    4    7 1   
    11    4   26 1   
    12    5    8 1   
    13    5   17 1   
    14    5   27 1   
    15    5   43 1   
    16    6   28 1   
    17    7    9 1   
    18    7   10 1   
    19    7   29 1   
    20    8   18 2   
    21    9   30 1   
    22   10   12 1   
    23   10   13 1   
    24   10   31 1   
    25   11   21 ar  
    26   11   22 ar  
    27   12   32 1   
    28   13   14 1   
    29   13   15 1   
    30   13   33 1   
    31   15   16 1   
    32   15   34 1   
    33   15   35 1   
    34   16   36 1   
    35   18   19 1   
    36   18   37 1   
    37   19   20 ar  
    38   19   23 ar  
    39   20   21 ar  
    40   20   38 1   
    41   21   39 1   
    42   22   23 ar  
    43   22   40 1   
    44   23   41 1   
@<TRIPOS>SUBSTRUCTURE
     1 12E         1 TEMP              0 ****  ****    0 ROOT
