@<TRIPOS>MOLECULE
12G
   49    52     1     0     0
SMALL
bcc


@<TRIPOS>ATOM
      1 CLA         0.2170   -1.0980   -0.3470 cl        1 12G     -0.101400
      2 CBB         1.7470   -0.3480   -0.2880 ca        1 12G      0.045400
      3 CAM         2.4100   -0.3280    0.9450 ca        1 12G     -0.126000
      4 CAI         3.6630    0.2680    1.0520 ca        1 12G     -0.108000
      5 CAK         4.2550    0.8500   -0.0690 ca        1 12G     -0.126000
      6 CAO         3.5940    0.8290   -1.2940 ca        1 12G     -0.086000
      7 CBE         2.3340    0.2300   -1.4230 ca        1 12G     -0.088300
      8 CBF         1.6640    0.2080   -2.7720 c3        1 12G      0.206200
      9 NBG         2.4340   -0.5170   -3.8080 n         1 12G     -0.346000
     10 CBC         2.8730   -1.8530   -3.6370 ca        1 12G      0.000600
     11 CAR         4.1620   -2.2500   -4.0540 ca        1 12G     -0.142000
     12 CAP         4.5740   -3.5650   -3.8920 ca        1 12G     -0.127000
     13 CAZ         3.7260   -4.5240   -3.3160 ca        1 12G     -0.008300
     14 CAT         4.1720   -5.9270   -3.1690 c3        1 12G     -0.181100
     15 CAU         5.5710   -6.0590   -2.5140 c         1 12G      0.919600
     16 OAD         5.6340   -6.6510   -1.4030 o         1 12G     -0.836800
     17 OAA         6.5670   -5.6040   -3.1440 o         1 12G     -0.836800
     18 CAQ         2.4500   -4.1240   -2.8990 ca        1 12G     -0.127000
     19 CAS         2.0180   -2.8110   -3.0570 ca        1 12G     -0.142000
     20 CAX         2.8290    0.3460   -4.8180 c         1 12G      0.663700
     21 OAC         3.5120    0.1360   -5.8330 o         1 12G     -0.617500
     22 CAW         2.1990    1.6960   -4.5080 ce        1 12G      0.077900
     23 OAE         2.3150    2.7480   -5.3470 oh        1 12G     -0.450100
     24 CAY         1.5020    1.6260   -3.3410 cf        1 12G     -0.270400
     25 CAV         0.6960    2.6690   -2.7110 c         1 12G      0.616900
     26 OAB         1.0370    3.8560   -2.7050 o         1 12G     -0.500100
     27 CBD        -0.6050    2.2250   -2.1410 ca        1 12G     -0.144600
     28 CBA        -1.0010    2.5270   -0.8310 ca        1 12G      0.060400
     29 CL2         0.0230    3.3630    0.2350 cl        1 12G     -0.073400
     30 CAL        -2.2580    2.1220   -0.3620 ca        1 12G     -0.135000
     31 CAH        -3.1210    1.4220   -1.2000 ca        1 12G     -0.109000
     32 CAJ        -2.7330    1.1140   -2.5040 ca        1 12G     -0.138000
     33 CAN        -1.4820    1.5090   -2.9680 ca        1 12G     -0.091000
     34 H1          1.9460   -0.7970    1.8260 ha        1 12G      0.145000
     35 H2          4.1880    0.2700    2.0180 ha        1 12G      0.135000
     36 H3          5.2490    1.3150    0.0090 ha        1 12G      0.137000
     37 H4          4.0660    1.2840   -2.1790 ha        1 12G      0.142000
     38 H5          0.6440   -0.2750   -2.6970 h1        1 12G      0.095700
     39 H6          4.8410   -1.5200   -4.5240 ha        1 12G      0.127000
     40 H7          5.5970   -3.8830   -4.1750 ha        1 12G      0.160000
     41 H8          4.2420   -6.3930   -4.1870 hc        1 12G      0.041200
     42 H9          3.4360   -6.5140   -2.5620 hc        1 12G      0.041200
     43 H11         1.7780   -4.8570   -2.4290 ha        1 12G      0.160000
     44 H12         1.0120   -2.5300   -2.7130 ha        1 12G      0.127000
     45 H13         2.8680    2.4500   -6.0960 ho        1 12G      0.448000
     46 H14        -2.5600    2.3570    0.6700 ha        1 12G      0.146000
     47 H15        -4.1080    1.1080   -0.8290 ha        1 12G      0.134000
     48 H16        -3.4120    0.5550   -3.1650 ha        1 12G      0.137000
     49 H17        -1.1690    1.2600   -3.9950 ha        1 12G      0.146000
@<TRIPOS>BOND
     1    1    2 1   
     2    2    3 ar  
     3    2    7 ar  
     4    3    4 ar  
     5    3   34 1   
     6    4    5 ar  
     7    4   35 1   
     8    5    6 ar  
     9    5   36 1   
    10    6    7 ar  
    11    6   37 1   
    12    7    8 1   
    13    8    9 1   
    14    8   24 1   
    15    8   38 1   
    16    9   10 1   
    17    9   20 1   
    18   10   11 ar  
    19   10   19 ar  
    20   11   12 ar  
    21   11   39 1   
    22   12   13 ar  
    23   12   40 1   
    24   13   14 1   
    25   13   18 ar  
    26   14   15 1   
    27   14   41 1   
    28   14   42 1   
    29   15   16 1   
    30   15   17 1   
    31   18   19 ar  
    32   18   43 1   
    33   19   44 1   
    34   20   21 2   
    35   20   22 1   
    36   22   23 1   
    37   22   24 2   
    38   23   45 1   
    39   24   25 1   
    40   25   26 2   
    41   25   27 1   
    42   27   28 ar  
    43   27   33 ar  
    44   28   29 1   
    45   28   30 ar  
    46   30   31 ar  
    47   30   46 1   
    48   31   32 ar  
    49   31   47 1   
    50   32   33 ar  
    51   32   48 1   
    52   33   49 1   
@<TRIPOS>SUBSTRUCTURE
     1 12G         1 TEMP              0 ****  ****    0 ROOT
