@<TRIPOS>MOLECULE
12G
   49    52     1     0     0
SMALL
bcc


@<TRIPOS>ATOM
      1 CLA         0.2240   -1.1610   -0.3520 cl        1 12G     -0.101400
      2 CBB         1.7410   -0.3840   -0.3020 ca        1 12G      0.045400
      3 CAM         2.4180   -0.3670    0.9240 ca        1 12G     -0.126000
      4 CAI         3.6620    0.2500    1.0230 ca        1 12G     -0.108000
      5 CAK         4.2310    0.8550   -0.0980 ca        1 12G     -0.126000
      6 CAO         3.5560    0.8370   -1.3150 ca        1 12G     -0.086000
      7 CBE         2.3050    0.2170   -1.4370 ca        1 12G     -0.088300
      8 CBF         1.6190    0.1990   -2.7780 c3        1 12G      0.206200
      9 NBG         2.3900   -0.5010   -3.8310 n         1 12G     -0.346000
     10 CBC         2.8540   -1.8310   -3.6800 ca        1 12G      0.000600
     11 CAR         4.1460   -2.2000   -4.1160 ca        1 12G     -0.142000
     12 CAP         4.5820   -3.5100   -3.9730 ca        1 12G     -0.127000
     13 CAZ         3.7570   -4.4900   -3.3990 ca        1 12G     -0.008300
     14 CAT         4.2290   -5.8870   -3.2740 c3        1 12G     -0.181100
     15 CAU         5.6370   -6.0020   -2.6350 c         1 12G      0.919600
     16 OAD         6.6180   -5.5220   -3.2700 o         1 12G     -0.836800
     17 OAA         5.7220   -6.6040   -1.5310 o         1 12G     -0.836800
     18 CAQ         2.4790   -4.1170   -2.9640 ca        1 12G     -0.127000
     19 CAS         2.0230   -2.8100   -3.1030 ca        1 12G     -0.142000
     20 CAX         2.7590    0.3800   -4.8360 c         1 12G      0.663700
     21 OAC         3.4330    0.1930   -5.8600 o         1 12G     -0.617500
     22 CAW         2.1100    1.7150   -4.5020 ce        1 12G      0.077900
     23 OAE         2.1980    2.7790   -5.3310 oh        1 12G     -0.450100
     24 CAY         1.4270    1.6200   -3.3290 cf        1 12G     -0.270400
     25 CAV         0.6110    2.6420   -2.6780 c         1 12G      0.616900
     26 OAB         0.9310    3.8350   -2.6630 o         1 12G     -0.500100
     27 CBD        -0.6750    2.1700   -2.0970 ca        1 12G     -0.144600
     28 CBA        -1.0590    2.4500   -0.7780 ca        1 12G      0.060400
     29 CL2        -0.0350    3.2920    0.2840 cl        1 12G     -0.073400
     30 CAL        -2.3030    2.0190   -0.2970 ca        1 12G     -0.135000
     31 CAH        -3.1640    1.3130   -1.1330 ca        1 12G     -0.109000
     32 CAJ        -2.7880    1.0260   -2.4450 ca        1 12G     -0.137000
     33 CAN        -1.5500    1.4470   -2.9200 ca        1 12G     -0.091000
     34 H1          1.9720   -0.8540    1.8040 ha        1 12G      0.145000
     35 H2          4.1980    0.2490    1.9830 ha        1 12G      0.135000
     36 H3          5.2170    1.3360   -0.0250 ha        1 12G      0.137000
     37 H4          4.0100    1.3100   -2.2000 ha        1 12G      0.142000
     38 H5          0.6090   -0.3020   -2.6970 h1        1 12G      0.095700
     39 H6          4.8060   -1.4540   -4.5830 ha        1 12G      0.127000
     40 H7          5.6080   -3.8070   -4.2710 ha        1 12G      0.160000
     41 H8          3.5100   -6.4930   -2.6660 hc        1 12G      0.041200
     42 H9          4.2970   -6.3400   -4.2980 hc        1 12G      0.041200
     43 H11         1.8240   -4.8670   -2.4960 ha        1 12G      0.160000
     44 H12         1.0150   -2.5510   -2.7450 ha        1 12G      0.127000
     45 H13         2.7460    2.4990   -6.0900 ho        1 12G      0.448000
     46 H14        -2.5950    2.2360    0.7410 ha        1 12G      0.146000
     47 H15        -4.1410    0.9780   -0.7530 ha        1 12G      0.134000
     48 H16        -3.4660    0.4630   -3.1030 ha        1 12G      0.137000
     49 H17        -1.2460    1.2150   -3.9540 ha        1 12G      0.146000
@<TRIPOS>BOND
     1    1    2 1   
     2    2    3 ar  
     3    2    7 ar  
     4    3    4 ar  
     5    3   34 1   
     6    4    5 ar  
     7    4   35 1   
     8    5    6 ar  
     9    5   36 1   
    10    6    7 ar  
    11    6   37 1   
    12    7    8 1   
    13    8    9 1   
    14    8   24 1   
    15    8   38 1   
    16    9   10 1   
    17    9   20 1   
    18   10   11 ar  
    19   10   19 ar  
    20   11   12 ar  
    21   11   39 1   
    22   12   13 ar  
    23   12   40 1   
    24   13   14 1   
    25   13   18 ar  
    26   14   15 1   
    27   14   41 1   
    28   14   42 1   
    29   15   16 1   
    30   15   17 1   
    31   18   19 ar  
    32   18   43 1   
    33   19   44 1   
    34   20   21 2   
    35   20   22 1   
    36   22   23 1   
    37   22   24 2   
    38   23   45 1   
    39   24   25 1   
    40   25   26 2   
    41   25   27 1   
    42   27   28 ar  
    43   27   33 ar  
    44   28   29 1   
    45   28   30 ar  
    46   30   31 ar  
    47   30   46 1   
    48   31   32 ar  
    49   31   47 1   
    50   32   33 ar  
    51   32   48 1   
    52   33   49 1   
@<TRIPOS>SUBSTRUCTURE
     1 12G         1 TEMP              0 ****  ****    0 ROOT
