@<TRIPOS>MOLECULE
12G
   49    52     1     0     0
SMALL
bcc


@<TRIPOS>ATOM
      1 ClA         0.2260   -1.1270   -0.3380 cl        1 12G     -0.101400
      2 CBB         1.7490   -0.3600   -0.3020 ca        1 12G      0.045400
      3 CAM         2.4320   -0.3360    0.9200 ca        1 12G     -0.126000
      4 CAI         3.6800    0.2740    1.0080 ca        1 12G     -0.108000
      5 CAK         4.2480    0.8630   -0.1210 ca        1 12G     -0.126000
      6 CAO         3.5680    0.8370   -1.3350 ca        1 12G     -0.086000
      7 CBE         2.3120    0.2250   -1.4450 ca        1 12G     -0.088300
      8 CBF         1.6210    0.1980   -2.7830 c3        1 12G      0.206200
      9 NBG         2.3830   -0.5170   -3.8320 n         1 12G     -0.346000
     10 CBC         2.8390   -1.8480   -3.6720 ca        1 12G      0.000600
     11 CAR         4.1250   -2.2310   -4.1120 ca        1 12G     -0.142000
     12 CAP         4.5530   -3.5420   -3.9580 ca        1 12G     -0.127000
     13 CAZ         3.7250   -4.5110   -3.3690 ca        1 12G     -0.008300
     14 CAT         4.1880   -5.9090   -3.2330 c3        1 12G     -0.181100
     15 CAU         5.5990   -6.0280   -2.6030 c         1 12G      0.919600
     16 OAD         6.5800   -5.5610   -3.2490 o         1 12G     -0.836800
     17 OAA         5.6880   -6.6200   -1.4930 o         1 12G     -0.836800
     18 CAQ         2.4530   -4.1250   -2.9300 ca        1 12G     -0.127000
     19 CAS         2.0040   -2.8160   -3.0790 ca        1 12G     -0.142000
     20 CAX         2.7520    0.3530   -4.8480 c         1 12G      0.663700
     21 OAC         3.4210    0.1520   -5.8730 o         1 12G     -0.617500
     22 CAW         2.1130    1.6950   -4.5240 ce        1 12G      0.077900
     23 OAE         2.2040    2.7490   -5.3640 oh        1 12G     -0.450100
     24 CAY         1.4350    1.6150   -3.3470 cf        1 12G     -0.269400
     25 CAV         0.6270    2.6480   -2.7030 c         1 12G      0.616900
     26 OAB         0.9560    3.8390   -2.6980 o         1 12G     -0.500100
     27 CBD        -0.6600    2.1890   -2.1150 ca        1 12G     -0.145600
     28 CBA        -1.0400    2.4830   -0.7970 ca        1 12G      0.060400
     29 Cl2        -0.0090    3.3280    0.2550 cl        1 12G     -0.073400
     30 CAL        -2.2860    2.0640   -0.3110 ca        1 12G     -0.135000
     31 CAH        -3.1530    1.3570   -1.1380 ca        1 12G     -0.109000
     32 CAJ        -2.7820    1.0550   -2.4490 ca        1 12G     -0.138000
     33 CAN        -1.5410    1.4650   -2.9300 ca        1 12G     -0.091000
     34 H1          1.9860   -0.8100    1.8080 ha        1 12G      0.145000
     35 H2          4.2200    0.2790    1.9660 ha        1 12G      0.135000
     36 H3          5.2380    1.3380   -0.0580 ha        1 12G      0.137000
     37 H4          4.0210    1.2980   -2.2270 ha        1 12G      0.142000
     38 H5          0.6080   -0.2960   -2.6940 h1        1 12G      0.095700
     39 H6          4.7880   -1.4930   -4.5910 ha        1 12G      0.127000
     40 H7          5.5750   -3.8490   -4.2600 ha        1 12G      0.160000
     41 H8          3.4690   -6.5050   -2.6150 hc        1 12G      0.041200
     42 H9          4.2460   -6.3730   -4.2530 hc        1 12G      0.041200
     43 H11         1.7960   -4.8650   -2.4510 ha        1 12G      0.160000
     44 H12         1.0010   -2.5470   -2.7180 ha        1 12G      0.127000
     45 H13         2.7470    2.4590   -6.1220 ho        1 12G      0.448000
     46 H14        -2.5750    2.2930    0.7260 ha        1 12G      0.146000
     47 H15        -4.1310    1.0310   -0.7530 ha        1 12G      0.134000
     48 H16        -3.4640    0.4910   -3.1000 ha        1 12G      0.137000
     49 H17        -1.2420    1.2210   -3.9620 ha        1 12G      0.146000
@<TRIPOS>BOND
     1    1    2 1   
     2    2    3 ar  
     3    2    7 ar  
     4    3    4 ar  
     5    3   34 1   
     6    4    5 ar  
     7    4   35 1   
     8    5    6 ar  
     9    5   36 1   
    10    6    7 ar  
    11    6   37 1   
    12    7    8 1   
    13    8    9 1   
    14    8   24 1   
    15    8   38 1   
    16    9   10 1   
    17    9   20 1   
    18   10   11 ar  
    19   10   19 ar  
    20   11   12 ar  
    21   11   39 1   
    22   12   13 ar  
    23   12   40 1   
    24   13   14 1   
    25   13   18 ar  
    26   14   15 1   
    27   14   41 1   
    28   14   42 1   
    29   15   16 1   
    30   15   17 1   
    31   18   19 ar  
    32   18   43 1   
    33   19   44 1   
    34   20   21 2   
    35   20   22 1   
    36   22   23 1   
    37   22   24 2   
    38   23   45 1   
    39   24   25 1   
    40   25   26 2   
    41   25   27 1   
    42   27   28 ar  
    43   27   33 ar  
    44   28   29 1   
    45   28   30 ar  
    46   30   31 ar  
    47   30   46 1   
    48   31   32 ar  
    49   31   47 1   
    50   32   33 ar  
    51   32   48 1   
    52   33   49 1   
@<TRIPOS>SUBSTRUCTURE
     1 12G         1 TEMP              0 ****  ****    0 ROOT
