@<TRIPOS>MOLECULE
12H
   38    37     1     0     0
SMALL
bcc


@<TRIPOS>ATOM
      1 C1          0.4070    0.0000    7.3180 c3        1 12H      0.131400
      2 C2         -0.4390   -0.0000    6.0570 c3        1 12H     -0.083400
      3 C3          0.4420   -0.0000    4.8280 c3        1 12H     -0.079400
      4 C4         -0.3850    0.0000    3.5600 c3        1 12H     -0.078400
      5 C5          0.4980    0.0000    2.3300 c3        1 12H     -0.079400
      6 C6         -0.3250   -0.0000    1.0600 c3        1 12H     -0.079400
      7 C7          0.5590   -0.0000   -0.1690 c3        1 12H     -0.078400
      8 C8         -0.2610    0.0000   -1.4420 c3        1 12H     -0.078400
      9 C9          0.6230    0.0000   -2.6710 c3        1 12H     -0.079400
     10 C10        -0.1970    0.0000   -3.9440 c3        1 12H     -0.062400
     11 C11         0.6750    0.0000   -5.1750 c3        1 12H     -0.193400
     12 C12        -0.1460   -0.0000   -6.4750 c         1 12H      0.907600
     13 O13        -0.4840   -0.0000    8.4230 oh        1 12H     -0.602800
     14 O14        -1.4100    0.0000   -6.4090 o         1 12H     -0.853800
     15 O15         0.4990   -0.0000   -7.5640 o         1 12H     -0.853800
     16 H11         1.0610    0.9130    7.3550 h1        1 12H      0.018700
     17 H12         1.0610   -0.9130    7.3550 h1        1 12H      0.018700
     18 H21        -1.1050   -0.9020    6.0580 hc        1 12H      0.054700
     19 H22        -1.1050    0.9020    6.0580 hc        1 12H      0.054700
     20 H31         1.1080    0.9030    4.8410 hc        1 12H      0.037700
     21 H32         1.1080   -0.9030    4.8410 hc        1 12H      0.037700
     22 H41        -1.0510   -0.9020    3.5450 hc        1 12H      0.040700
     23 H42        -1.0510    0.9020    3.5450 hc        1 12H      0.040700
     24 H51         1.1640    0.9020    2.3450 hc        1 12H      0.036700
     25 H52         1.1640   -0.9020    2.3450 hc        1 12H      0.036700
     26 H61        -0.9910   -0.9020    1.0420 hc        1 12H      0.038700
     27 H62        -0.9910    0.9020    1.0420 hc        1 12H      0.038700
     28 H71         1.2260    0.9020   -0.1520 hc        1 12H      0.033700
     29 H72         1.2260   -0.9020   -0.1520 hc        1 12H      0.033700
     30 H81        -0.9270   -0.9020   -1.4600 hc        1 12H      0.036700
     31 H82        -0.9270    0.9020   -1.4600 hc        1 12H      0.036700
     32 H91         1.2900    0.9020   -2.6530 hc        1 12H      0.024700
     33 H92         1.2900   -0.9020   -2.6530 hc        1 12H      0.024700
     34 H101       -0.8680   -0.8990   -3.9700 hc        1 12H      0.044700
     35 H102       -0.8680    0.8990   -3.9700 hc        1 12H      0.044700
     36 H111        1.3370    0.9030   -5.1800 hc        1 12H      0.018700
     37 H112        1.3370   -0.9030   -5.1800 hc        1 12H      0.018700
     38 H13         0.0640   -0.0000    9.2160 ho        1 12H      0.394000
@<TRIPOS>BOND
     1    1    2 1   
     2    1   13 1   
     3    1   16 1   
     4    1   17 1   
     5    2    3 1   
     6    2   18 1   
     7    2   19 1   
     8    3    4 1   
     9    3   20 1   
    10    3   21 1   
    11    4    5 1   
    12    4   22 1   
    13    4   23 1   
    14    5    6 1   
    15    5   24 1   
    16    5   25 1   
    17    6    7 1   
    18    6   26 1   
    19    6   27 1   
    20    7    8 1   
    21    7   28 1   
    22    7   29 1   
    23    8    9 1   
    24    8   30 1   
    25    8   31 1   
    26    9   10 1   
    27    9   32 1   
    28    9   33 1   
    29   10   11 1   
    30   10   34 1   
    31   10   35 1   
    32   11   12 1   
    33   11   36 1   
    34   11   37 1   
    35   12   14 1   
    36   12   15 1   
    37   13   38 1   
@<TRIPOS>SUBSTRUCTURE
     1 12H         1 TEMP              0 ****  ****    0 ROOT
