@<TRIPOS>MOLECULE
12H
   38    37     1     0     0
SMALL
bcc


@<TRIPOS>ATOM
      1 C1         -5.5330    0.7050   -3.1300 c3        1 12H      0.131400
      2 C2         -4.2560   -0.0790   -2.9270 c3        1 12H     -0.083400
      3 C3         -3.4230    0.5820   -1.8510 c3        1 12H     -0.079400
      4 C4         -2.1920   -0.2550   -1.5810 c3        1 12H     -0.078400
      5 C5         -1.2880    0.4760   -0.6130 c3        1 12H     -0.079400
      6 C6         -0.1130   -0.4070   -0.2540 c3        1 12H     -0.079400
      7 C7          0.8710    0.3780    0.5840 c3        1 12H     -0.078400
      8 C8          1.9360   -0.5550    1.1180 c3        1 12H     -0.078400
      9 C9          2.9950    0.2490    1.8400 c3        1 12H     -0.078400
     10 C10         4.0100   -0.6900    2.4530 c3        1 12H     -0.065400
     11 C11         5.1290    0.1140    3.0780 c3        1 12H     -0.194400
     12 C12         6.0650   -0.8140    3.8200 c         1 12H      0.907600
     13 O13        -6.1910    0.2410   -4.2880 oh        1 12H     -0.602800
     14 O14         5.9330   -0.9820    5.0600 o         1 12H     -0.853300
     15 O15         6.9780   -1.4170    3.1970 o         1 12H     -0.853300
     16 H11        -5.3190    1.6560   -3.2340 h1        1 12H      0.018700
     17 H12        -6.1170    0.5850   -2.3520 h1        1 12H      0.018700
     18 H21        -3.7500   -0.1000   -3.7640 hc        1 12H      0.054700
     19 H22        -4.4740   -0.9930   -2.6550 hc        1 12H      0.054700
     20 H31        -3.9510    0.6580   -1.0310 hc        1 12H      0.037700
     21 H32        -3.1530    1.4730   -2.1490 hc        1 12H      0.037700
     22 H41        -1.7130   -0.4110   -2.4200 hc        1 12H      0.040700
     23 H42        -2.4590   -1.1120   -1.1930 hc        1 12H      0.040700
     24 H51        -1.7890    0.6980    0.1970 hc        1 12H      0.036700
     25 H52        -0.9610    1.2990   -1.0300 hc        1 12H      0.036700
     26 H61        -0.4300   -1.1810    0.2540 hc        1 12H      0.038200
     27 H62         0.3270   -0.7130   -1.0730 hc        1 12H      0.038200
     28 H71         0.4000    0.7980    1.3320 hc        1 12H      0.034200
     29 H72         1.2900    1.0690    0.0330 hc        1 12H      0.034200
     30 H81         1.5290   -1.1910    1.7400 hc        1 12H      0.036700
     31 H82         2.3460   -1.0410    0.3750 hc        1 12H      0.036700
     32 H91         3.4420    0.8430    1.2050 hc        1 12H      0.025700
     33 H92         2.5760    0.7820    2.5450 hc        1 12H      0.025700
     34 H101        3.5770   -1.2350    3.1410 hc        1 12H      0.044200
     35 H102        4.3760   -1.2730    1.7590 hc        1 12H      0.044200
     36 H111        4.7520    0.7650    3.7030 hc        1 12H      0.018700
     37 H112        5.6230    0.5840    2.3770 hc        1 12H      0.018700
     38 H13        -7.0430    0.4970   -4.2670 ho        1 12H      0.394000
@<TRIPOS>BOND
     1    1    2 1   
     2    1   13 1   
     3    1   16 1   
     4    1   17 1   
     5    2    3 1   
     6    2   18 1   
     7    2   19 1   
     8    3    4 1   
     9    3   20 1   
    10    3   21 1   
    11    4    5 1   
    12    4   22 1   
    13    4   23 1   
    14    5    6 1   
    15    5   24 1   
    16    5   25 1   
    17    6    7 1   
    18    6   26 1   
    19    6   27 1   
    20    7    8 1   
    21    7   28 1   
    22    7   29 1   
    23    8    9 1   
    24    8   30 1   
    25    8   31 1   
    26    9   10 1   
    27    9   32 1   
    28    9   33 1   
    29   10   11 1   
    30   10   34 1   
    31   10   35 1   
    32   11   12 1   
    33   11   36 1   
    34   11   37 1   
    35   12   14 1   
    36   12   15 1   
    37   13   38 1   
@<TRIPOS>SUBSTRUCTURE
     1 12H         1 TEMP              0 ****  ****    0 ROOT
