@<TRIPOS>MOLECULE
12I
   33    32     1     0     0
SMALL
bcc


@<TRIPOS>ATOM
      1 N1         -1.8980   -0.2250   -3.3260 n1        1 12I     -0.170000
      2 C2         -0.5920   -0.6340   -3.2800 c1        1 12I     -0.009000
      3 C3         -2.5050    0.2510   -2.2010 c1        1 12I      0.024000
      4 N3          0.3530   -0.0490    0.1770 n3        1 12I     -0.228000
      5 C4         -1.8130    0.3190   -1.0350 c1        1 12I     -0.129000
      6 N4          2.8700   -0.5200    1.4220 n3        1 12I     -0.259000
      7 C5         -2.4550    0.7660    0.1420 c2        1 12I     -0.084000
      8 C6         -3.7930    1.1340    0.1060 c1        1 12I     -0.145000
      9 C7         -4.4980    1.0650   -1.0840 c1        1 12I     -0.105000
     10 C8         -0.4860   -0.0970   -0.9910 c2        1 12I      0.145000
     11 C9          1.4590    0.8150   -0.0670 c3        1 12I     -0.060000
     12 C10         2.4670    0.8010    1.0700 c3        1 12I     -0.070000
     13 C11         1.7630   -1.3830    1.6660 c3        1 12I     -0.070000
     14 C17        -3.8700    0.6270   -2.2380 c2        1 12I     -0.114000
     15 C12         0.7540   -1.3680    0.5290 c3        1 12I     -0.060000
     16 N9          0.1090   -0.5660   -2.1010 n2        1 12I     -0.226000
     17 C13         3.7090   -0.4710    2.5970 c3        1 12I     -0.119000
     18 H2         -0.1600   -0.9740   -4.0850 ha        1 12I      0.190000
     19 H17        -4.3680    0.5780   -3.0770 ha        1 12I      0.154000
     20 H91C        1.9060    0.5320   -0.8910 h1        1 12I      0.094500
     21 H92C        1.1270    1.7290   -0.1850 h1        1 12I      0.094500
     22 H121        1.1540   -1.7970   -0.2550 h1        1 12I      0.094500
     23 H122       -0.0360   -1.8770    0.8000 h1        1 12I      0.094500
     24 H5         -1.9570    0.8150    0.9810 ha        1 12I      0.149000
     25 H101        2.0670    1.2290    1.8530 h1        1 12I      0.078750
     26 H102        3.2570    1.3110    0.8000 h1        1 12I      0.078750
     27 H111        1.3160   -1.1000    2.4890 h1        1 12I      0.078750
     28 H112        2.0940   -2.2980    1.7840 h1        1 12I      0.078750
     29 H131        4.5350    0.0210    2.3890 h1        1 12I      0.073000
     30 H132        3.9350   -1.3860    2.8770 h1        1 12I      0.073000
     31 H133        3.2300   -0.0140    3.3240 h1        1 12I      0.073000
     32 H6         -4.2360    1.4430    0.9190 ha        1 12I      0.137000
     33 H7         -5.4410    1.3250   -1.1100 ha        1 12I      0.137000
@<TRIPOS>BOND
     1    1    3 1   
     2    2   16 1   
     3    2   18 1   
     4    3   14 1   
     5    4   10 1   
     6    4   11 1   
     7    4   15 1   
     8    5    7 1   
     9    5   10 1   
    10    6   12 1   
    11    6   13 1   
    12    6   17 1   
    13    7    8 1   
    14    7   24 1   
    15    8   32 1   
    16    9   14 1   
    17    9   33 1   
    18   10   16 1   
    19   11   12 1   
    20   11   20 1   
    21   11   21 1   
    22   12   25 1   
    23   12   26 1   
    24   13   15 1   
    25   13   27 1   
    26   13   28 1   
    27   14   19 1   
    28   15   22 1   
    29   15   23 1   
    30   17   29 1   
    31   17   30 1   
    32   17   31 1   
@<TRIPOS>SUBSTRUCTURE
     1 12I         1 TEMP              0 ****  ****    0 ROOT
