@<TRIPOS>MOLECULE
12I
   33    35     1     0     0
SMALL
bcc


@<TRIPOS>ATOM
      1 N1         -0.1630    0.1910   -0.1230 nb        1 12I     -0.696000
      2 C2          1.1610    0.3070   -0.1610 ca        1 12I      0.653900
      3 C3         -0.7240    0.0260    1.1320 ca        1 12I      0.417600
      4 N3          2.3660    0.0470    3.2800 nh        1 12I     -0.737300
      5 C4          0.0850   -0.0210    2.3120 ca        1 12I     -0.259600
      6 N4          4.5030   -0.5370    5.1570 n3        1 12I     -0.733600
      7 C5         -0.5400   -0.1230    3.5760 ca        1 12I     -0.084000
      8 C6         -1.9100   -0.2190    3.6740 ca        1 12I     -0.145000
      9 C7         -2.7120   -0.2120    2.5110 ca        1 12I     -0.105000
     10 C8          1.5320    0.0790    2.1200 ca        1 12I      0.666200
     11 C9          3.6600    0.7100    3.1590 c3        1 12I      0.176800
     12 C10         4.3940    0.7650    4.5140 c3        1 12I      0.166800
     13 C11         3.2260   -1.2330    5.2270 c3        1 12I      0.166800
     14 C17        -2.1430   -0.0880    1.2670 ca        1 12I     -0.179300
     15 C12         2.4970   -1.2840    3.8690 c3        1 12I      0.176800
     16 N9          2.0510    0.2520    0.8910 nb        1 12I     -0.752000
     17 C13         5.1660   -0.4680    6.4390 c3        1 12I      0.157100
     18 H2          1.6310    0.4540   -1.1570 h5        1 12I      0.053100
     19 H17        -2.7670   -0.0690    0.3590 ha        1 12I      0.154000
     20 H91C        4.3270    0.1990    2.4070 h1        1 12I      0.055200
     21 H92C        3.4830    1.7660    2.8140 h1        1 12I      0.055200
     22 H121        1.4700   -1.7110    4.0370 h1        1 12I      0.055200
     23 H122        3.0580   -1.9790    3.1800 h1        1 12I      0.055200
     24 H5          0.0710   -0.1050    4.4930 ha        1 12I      0.149000
     25 H101        3.8770    1.5170    5.1790 h1        1 12I      0.039450
     26 H102        5.4390    1.1370    4.3180 h1        1 12I      0.039450
     27 H111        3.4310   -2.2940    5.5420 h1        1 12I      0.039450
     28 H112        2.5360   -0.7700    5.9910 h1        1 12I      0.039450
     29 H131        5.2970   -1.5100    6.8330 h1        1 12I      0.033700
     30 H132        4.6000    0.1340    7.2030 h1        1 12I      0.033700
     31 H133        6.1770   -0.0050    6.2970 h1        1 12I      0.033700
     32 H6         -2.3940   -0.2960    4.6580 ha        1 12I      0.137000
     33 H7         -3.8040   -0.3000    2.6150 ha        1 12I      0.137000
@<TRIPOS>BOND
     1    1    2 ar  
     2    1    3 ar  
     3    2   16 ar  
     4    2   18 1   
     5    3    5 ar  
     6    3   14 ar  
     7    4   10 1   
     8    4   11 1   
     9    4   15 1   
    10    5    7 ar  
    11    5   10 ar  
    12    6   12 1   
    13    6   13 1   
    14    6   17 1   
    15    7    8 ar  
    16    7   24 1   
    17    8    9 ar  
    18    8   32 1   
    19    9   14 ar  
    20    9   33 1   
    21   10   16 ar  
    22   11   12 1   
    23   11   20 1   
    24   11   21 1   
    25   12   25 1   
    26   12   26 1   
    27   13   15 1   
    28   13   27 1   
    29   13   28 1   
    30   14   19 1   
    31   15   22 1   
    32   15   23 1   
    33   17   29 1   
    34   17   30 1   
    35   17   31 1   
@<TRIPOS>SUBSTRUCTURE
     1 12I         1 TEMP              0 ****  ****    0 ROOT
