@<TRIPOS>MOLECULE
12I
   33    35     1     0     0
SMALL
bcc


@<TRIPOS>ATOM
      1 N1         -0.1610    0.1820   -0.1250 nb        1 12I     -0.696000
      2 C2          1.1630    0.2970   -0.1630 ca        1 12I      0.653900
      3 C3         -0.7230    0.0220    1.1300 ca        1 12I      0.417600
      4 N3          2.3660    0.0450    3.2800 nh        1 12I     -0.737300
      5 C4          0.0860   -0.0220    2.3110 ca        1 12I     -0.259600
      6 N4          4.5020   -0.5360    5.1590 n3        1 12I     -0.733600
      7 C5         -0.5400   -0.1190    3.5750 ca        1 12I     -0.084000
      8 C6         -1.9100   -0.2130    3.6720 ca        1 12I     -0.145000
      9 C7         -2.7110   -0.2080    2.5090 ca        1 12I     -0.105000
     10 C8          1.5320    0.0750    2.1190 ca        1 12I      0.666200
     11 C9          3.6610    0.7070    3.1570 c3        1 12I      0.176800
     12 C10         4.3960    0.7640    4.5120 c3        1 12I      0.166800
     13 C11         3.2240   -1.2290    5.2310 c3        1 12I      0.166800
     14 C17        -2.1420   -0.0890    1.2650 ca        1 12I     -0.179300
     15 C12         2.4950   -1.2830    3.8730 c3        1 12I      0.176800
     16 N9          2.0520    0.2430    0.8900 nb        1 12I     -0.752000
     17 C13         5.1640   -0.4640    6.4410 c3        1 12I      0.157100
     18 H2          1.6340    0.4400   -1.1590 h5        1 12I      0.053100
     19 H17        -2.7650   -0.0730    0.3570 ha        1 12I      0.154000
     20 H91C        4.3280    0.1920    2.4060 h1        1 12I      0.055200
     21 H92C        3.4860    1.7620    2.8090 h1        1 12I      0.055200
     22 H121        3.0550   -1.9820    3.1870 h1        1 12I      0.055200
     23 H122        1.4670   -1.7080    4.0420 h1        1 12I      0.055200
     24 H5          0.0710   -0.0990    4.4920 ha        1 12I      0.149000
     25 H101        3.8790    1.5200    5.1740 h1        1 12I      0.039450
     26 H102        5.4410    1.1340    4.3150 h1        1 12I      0.039450
     27 H111        3.4260   -2.2900    5.5500 h1        1 12I      0.039450
     28 H112        2.5340   -0.7620    5.9940 h1        1 12I      0.039450
     29 H131        4.5990    0.1420    7.2030 h1        1 12I      0.033700
     30 H132        6.1760   -0.0020    6.2980 h1        1 12I      0.033700
     31 H133        5.2940   -1.5040    6.8390 h1        1 12I      0.033700
     32 H6         -2.3950   -0.2860    4.6570 ha        1 12I      0.137000
     33 H7         -3.8040   -0.2940    2.6130 ha        1 12I      0.137000
@<TRIPOS>BOND
     1    1    2 ar  
     2    1    3 ar  
     3    2   16 ar  
     4    2   18 1   
     5    3    5 ar  
     6    3   14 ar  
     7    4   10 1   
     8    4   11 1   
     9    4   15 1   
    10    5    7 ar  
    11    5   10 ar  
    12    6   12 1   
    13    6   13 1   
    14    6   17 1   
    15    7    8 ar  
    16    7   24 1   
    17    8    9 ar  
    18    8   32 1   
    19    9   14 ar  
    20    9   33 1   
    21   10   16 ar  
    22   11   12 1   
    23   11   20 1   
    24   11   21 1   
    25   12   25 1   
    26   12   26 1   
    27   13   15 1   
    28   13   27 1   
    29   13   28 1   
    30   14   19 1   
    31   15   22 1   
    32   15   23 1   
    33   17   29 1   
    34   17   30 1   
    35   17   31 1   
@<TRIPOS>SUBSTRUCTURE
     1 12I         1 TEMP              0 ****  ****    0 ROOT
