@<TRIPOS>MOLECULE
12I
   33    35     1     0     0
SMALL
bcc


@<TRIPOS>ATOM
      1 N1          2.9970   -1.7720   -0.0480 nb        1 12I     -0.696000
      2 C2          1.9050   -2.5270    0.0340 ca        1 12I      0.653900
      3 C3          2.7920   -0.4020   -0.0370 ca        1 12I      0.417600
      4 N3         -0.9620   -0.2650    0.1940 nh        1 12I     -0.737300
      5 C4          1.4770    0.1560    0.0510 ca        1 12I     -0.259600
      6 N4         -3.7970    0.2290   -0.1890 n3        1 12I     -0.733600
      7 C5          1.3240    1.5600    0.1270 ca        1 12I     -0.084000
      8 C6          2.4230    2.3870    0.0730 ca        1 12I     -0.145000
      9 C7          3.7210    1.8440   -0.0520 ca        1 12I     -0.105000
     10 C8          0.3630   -0.7910    0.0940 ca        1 12I      0.666200
     11 C9         -1.9550   -1.1400    0.8080 c3        1 12I      0.176800
     12 C10        -3.2960   -0.4070    1.0220 c3        1 12I      0.166800
     13 C11        -2.7930    1.0550   -0.8420 c3        1 12I      0.166800
     14 C17         3.9120    0.4850   -0.1020 ca        1 12I     -0.179300
     15 C12        -1.4550    0.3170   -1.0520 c3        1 12I      0.176800
     16 N9          0.5900   -2.1170    0.0960 nb        1 12I     -0.752000
     17 C13        -5.0380    0.9360    0.0300 c3        1 12I      0.157100
     18 H2          2.0480   -3.6290    0.0410 h5        1 12I      0.053100
     19 H17         4.9230    0.0590   -0.1870 ha        1 12I      0.154000
     20 H91C       -2.1430   -2.0640    0.1900 h1        1 12I      0.055200
     21 H92C       -1.5680   -1.4600    1.8150 h1        1 12I      0.055200
     22 H121       -0.7000    1.0590   -1.4320 h1        1 12I      0.055200
     23 H122       -1.5970   -0.4750   -1.8420 h1        1 12I      0.055200
     24 H5          0.3200    1.9960    0.2490 ha        1 12I      0.149000
     25 H101       -3.1760    0.3350    1.8640 h1        1 12I      0.039450
     26 H102       -4.0540   -1.1760    1.3430 h1        1 12I      0.039450
     27 H111       -3.1880    1.3370   -1.8580 h1        1 12I      0.039450
     28 H112       -2.5950    2.0080   -0.2700 h1        1 12I      0.039450
     29 H131       -4.9380    1.8050    0.7380 h1        1 12I      0.033700
     30 H132       -5.4130    1.3210   -0.9540 h1        1 12I      0.033700
     31 H133       -5.7920    0.2200    0.4500 h1        1 12I      0.033700
     32 H6          2.3020    3.4780    0.1340 ha        1 12I      0.137000
     33 H7          4.5830    2.5270   -0.1020 ha        1 12I      0.137000
@<TRIPOS>BOND
     1    1    2 ar  
     2    1    3 ar  
     3    2   16 ar  
     4    2   18 1   
     5    3    5 ar  
     6    3   14 ar  
     7    4   10 1   
     8    4   11 1   
     9    4   15 1   
    10    5    7 ar  
    11    5   10 ar  
    12    6   12 1   
    13    6   13 1   
    14    6   17 1   
    15    7    8 ar  
    16    7   24 1   
    17    8    9 ar  
    18    8   32 1   
    19    9   14 ar  
    20    9   33 1   
    21   10   16 ar  
    22   11   12 1   
    23   11   20 1   
    24   11   21 1   
    25   12   25 1   
    26   12   26 1   
    27   13   15 1   
    28   13   27 1   
    29   13   28 1   
    30   14   19 1   
    31   15   22 1   
    32   15   23 1   
    33   17   29 1   
    34   17   30 1   
    35   17   31 1   
@<TRIPOS>SUBSTRUCTURE
     1 12I         1 TEMP              0 ****  ****    0 ROOT
