@<TRIPOS>MOLECULE
12I
   33    35     1     0     0
SMALL
bcc


@<TRIPOS>ATOM
      1 N1         -0.1600    0.1710   -0.1270 nb        1 12I     -0.696000
      2 C2          1.1640    0.2860   -0.1650 ca        1 12I      0.653900
      3 C3         -0.7220    0.0140    1.1290 ca        1 12I      0.417600
      4 N3          2.3660    0.0450    3.2790 nh        1 12I     -0.737300
      5 C4          0.0860   -0.0260    2.3100 ca        1 12I     -0.259600
      6 N4          4.5010   -0.5280    5.1610 n3        1 12I     -0.733600
      7 C5         -0.5400   -0.1200    3.5740 ca        1 12I     -0.084000
      8 C6         -1.9100   -0.2160    3.6710 ca        1 12I     -0.145000
      9 C7         -2.7110   -0.2150    2.5080 ca        1 12I     -0.105000
     10 C8          1.5330    0.0710    2.1180 ca        1 12I      0.666200
     11 C9          3.6610    0.7070    3.1550 c3        1 12I      0.176800
     12 C10         4.3940    0.7700    4.5100 c3        1 12I      0.166800
     13 C11         3.2240   -1.2230    5.2340 c3        1 12I      0.166800
     14 C17        -2.1420   -0.0990    1.2640 ca        1 12I     -0.179300
     15 C12         2.4960   -1.2810    3.8770 c3        1 12I      0.176800
     16 N9          2.0530    0.2360    0.8890 nb        1 12I     -0.752000
     17 C13         5.1630   -0.4520    6.4440 c3        1 12I      0.157100
     18 H2          1.6350    0.4270   -1.1610 h5        1 12I      0.053100
     19 H17        -2.7650   -0.0860    0.3560 ha        1 12I      0.154000
     20 H91C        3.4850    1.7610    2.8030 h1        1 12I      0.055200
     21 H92C        4.3280    0.1910    2.4060 h1        1 12I      0.055200
     22 H121        1.4680   -1.7070    4.0460 h1        1 12I      0.055200
     23 H122        3.0570   -1.9820    3.1920 h1        1 12I      0.055200
     24 H5          0.0710   -0.0980    4.4910 ha        1 12I      0.149000
     25 H101        3.8770    1.5260    5.1700 h1        1 12I      0.039450
     26 H102        5.4390    1.1400    4.3130 h1        1 12I      0.039450
     27 H111        3.4270   -2.2820    5.5570 h1        1 12I      0.039450
     28 H112        2.5340   -0.7540    5.9950 h1        1 12I      0.039450
     29 H131        4.5970    0.1560    7.2030 h1        1 12I      0.033700
     30 H132        5.2930   -1.4910    6.8450 h1        1 12I      0.033700
     31 H133        6.1740    0.0100    6.3000 h1        1 12I      0.033700
     32 H6         -2.3950   -0.2870    4.6560 ha        1 12I      0.137000
     33 H7         -3.8040   -0.3020    2.6110 ha        1 12I      0.137000
@<TRIPOS>BOND
     1    1    2 ar  
     2    1    3 ar  
     3    2   16 ar  
     4    2   18 1   
     5    3    5 ar  
     6    3   14 ar  
     7    4   10 1   
     8    4   11 1   
     9    4   15 1   
    10    5    7 ar  
    11    5   10 ar  
    12    6   12 1   
    13    6   13 1   
    14    6   17 1   
    15    7    8 ar  
    16    7   24 1   
    17    8    9 ar  
    18    8   32 1   
    19    9   14 ar  
    20    9   33 1   
    21   10   16 ar  
    22   11   12 1   
    23   11   20 1   
    24   11   21 1   
    25   12   25 1   
    26   12   26 1   
    27   13   15 1   
    28   13   27 1   
    29   13   28 1   
    30   14   19 1   
    31   15   22 1   
    32   15   23 1   
    33   17   29 1   
    34   17   30 1   
    35   17   31 1   
@<TRIPOS>SUBSTRUCTURE
     1 12I         1 TEMP              0 ****  ****    0 ROOT
