@<TRIPOS>MOLECULE
12J
   36    37     1     0     0
SMALL
bcc


@<TRIPOS>ATOM
      1 I          -1.9180   -1.0870    3.0930 i         1 12J     -0.122900
      2 N           0.3060   -1.7800    0.2840 n         1 12J     -0.462100
      3 C1         -2.7620   -1.4390    1.2880 ca        1 12J      0.045900
      4 O1         -0.3710    0.3740   -0.2650 o         1 12J     -0.557100
      5 C2         -2.0680   -1.2750    0.0870 ca        1 12J     -0.111600
      6 O2          4.2620    0.8490   -0.3940 os        1 12J     -0.327900
      7 C3         -2.7060   -1.5140   -1.1350 ca        1 12J     -0.097000
      8 C4         -4.0380   -1.9250   -1.1590 ca        1 12J     -0.115000
      9 C5         -4.7330   -2.0940    0.0380 ca        1 12J     -0.118000
     10 C6         -4.0980   -1.8490    1.2550 ca        1 12J     -0.103000
     11 C7         -0.6440   -0.7990    0.0360 c         1 12J      0.675700
     12 C8          1.7010   -1.6250    0.3250 ca        1 12J      0.098600
     13 C9          2.3510   -0.4370   -0.0460 ca        1 12J     -0.189000
     14 C10         3.7570   -0.3700    0.0060 ca        1 12J      0.160100
     15 C11         4.5210   -1.4650    0.4230 ca        1 12J     -0.236000
     16 C12         3.8640   -2.6400    0.7870 ca        1 12J     -0.070000
     17 C13         2.4820   -2.7360    0.7460 ca        1 12J     -0.219000
     18 C14         5.6920    1.0110   -0.3970 c3        1 12J      0.141100
     19 C15         5.9470    2.1930   -1.3170 c3        1 12J     -0.111100
     20 C16         6.1960    1.2850    1.0060 c3        1 12J     -0.111100
     21 HN         -0.0320   -2.6760    0.5600 hn        1 12J      0.321500
     22 H3         -2.1540   -1.3650   -2.0760 ha        1 12J      0.152000
     23 H4         -4.5380   -2.1110   -2.1210 ha        1 12J      0.143000
     24 H5         -5.7850   -2.4160    0.0250 ha        1 12J      0.142000
     25 H6         -4.6610   -1.9790    2.1940 ha        1 12J      0.149000
     26 H9          1.7940    0.4550   -0.3750 ha        1 12J      0.187000
     27 H11         5.6160   -1.4170    0.4740 ha        1 12J      0.138000
     28 H12         4.4560   -3.5070    1.1170 ha        1 12J      0.131000
     29 H13         1.9980   -3.6780    1.0430 ha        1 12J      0.130000
     30 H14         6.1770    0.0890   -0.8230 h1        1 12J      0.046700
     31 H15         5.4180    3.1000   -0.9390 hc        1 12J      0.048367
     32 H15A        7.0430    2.3960   -1.3570 hc        1 12J      0.048367
     33 H15B        5.5730    1.9690   -2.3450 hc        1 12J      0.048367
     34 H16         5.9390    0.4390    1.6870 hc        1 12J      0.048367
     35 H16A        7.3040    1.4150    0.9890 hc        1 12J      0.048367
     36 H16B        5.7280    2.2150    1.4090 hc        1 12J      0.048367
@<TRIPOS>BOND
     1    1    3 1   
     2    2   11 1   
     3    2   12 1   
     4    2   21 1   
     5    3    5 ar  
     6    3   10 ar  
     7    4   11 2   
     8    5    7 ar  
     9    5   11 1   
    10    6   14 1   
    11    6   18 1   
    12    7    8 ar  
    13    7   22 1   
    14    8    9 ar  
    15    8   23 1   
    16    9   10 ar  
    17    9   24 1   
    18   10   25 1   
    19   12   13 ar  
    20   12   17 ar  
    21   13   14 ar  
    22   13   26 1   
    23   14   15 ar  
    24   15   16 ar  
    25   15   27 1   
    26   16   17 ar  
    27   16   28 1   
    28   17   29 1   
    29   18   19 1   
    30   18   20 1   
    31   18   30 1   
    32   19   31 1   
    33   19   32 1   
    34   19   33 1   
    35   20   34 1   
    36   20   35 1   
    37   20   36 1   
@<TRIPOS>SUBSTRUCTURE
     1 12J         1 TEMP              0 ****  ****    0 ROOT
