@<TRIPOS>MOLECULE
12J
   36    37     1     0     0
SMALL
bcc


@<TRIPOS>ATOM
      1 I           3.0260   -2.9530    1.1880 i         1 12J     -0.122900
      2 N           2.5390   -0.1940    3.5280 n         1 12J     -0.462100
      3 C1          3.3080   -1.0710    0.4980 ca        1 12J      0.045900
      4 O1          0.6270    0.0400    2.2290 o         1 12J     -0.557100
      5 C2          2.7430    0.0490    1.1150 ca        1 12J     -0.111600
      6 O2         -1.2300   -0.1690    6.4970 os        1 12J     -0.327900
      7 C3          2.9550    1.3260    0.5840 ca        1 12J     -0.097000
      8 C4          3.7360    1.4880   -0.5590 ca        1 12J     -0.115000
      9 C5          4.3030    0.3730   -1.1740 ca        1 12J     -0.118000
     10 C6          4.0870   -0.9010   -0.6490 ca        1 12J     -0.103000
     11 C7          1.8610   -0.0540    2.3250 c         1 12J      0.675700
     12 C8          1.9830   -0.3350    4.8100 ca        1 12J      0.099600
     13 C9          0.6090   -0.1990    5.0670 ca        1 12J     -0.189000
     14 C10         0.1340   -0.3360    6.3860 ca        1 12J      0.160100
     15 C11         1.0040   -0.6090    7.4470 ca        1 12J     -0.236000
     16 C12         2.3660   -0.7410    7.1780 ca        1 12J     -0.070000
     17 C13         2.8640   -0.6100    5.8910 ca        1 12J     -0.219000
     18 C14        -1.8110   -0.2670    7.8100 c3        1 12J      0.141100
     19 C15        -3.1550    0.4330    7.6930 c3        1 12J     -0.111100
     20 C16        -1.9790   -1.7210    8.2070 c3        1 12J     -0.111100
     21 HN          3.5290   -0.3040    3.4780 hn        1 12J      0.321500
     22 H3          2.4910    2.2000    1.0690 ha        1 12J      0.152000
     23 H4          3.8990    2.4930   -0.9750 ha        1 12J      0.143000
     24 H5          4.9190    0.4940   -2.0780 ha        1 12J      0.142000
     25 H6          4.5350   -1.7740   -1.1490 ha        1 12J      0.149000
     26 H9         -0.1180    0.0100    4.2660 ha        1 12J      0.187000
     27 H11         0.6390   -0.7260    8.4750 ha        1 12J      0.138000
     28 H12         3.0590   -0.9560    8.0060 ha        1 12J      0.131000
     29 H13         3.9430   -0.7230    5.7160 ha        1 12J      0.130000
     30 H14        -1.1640    0.2770    8.5530 h1        1 12J      0.046700
     31 H15        -3.6800    0.3820    8.6760 hc        1 12J      0.048367
     32 H15A       -3.0090    1.5010    7.4060 hc        1 12J      0.048367
     33 H15B       -3.7830   -0.0600    6.9130 hc        1 12J      0.048367
     34 H16        -2.6420   -2.2450    7.4780 hc        1 12J      0.048367
     35 H16A       -2.4360   -1.7830    9.2220 hc        1 12J      0.048367
     36 H16B       -0.9910   -2.2400    8.2180 hc        1 12J      0.048367
@<TRIPOS>BOND
     1    1    3 1   
     2    2   11 1   
     3    2   12 1   
     4    2   21 1   
     5    3    5 ar  
     6    3   10 ar  
     7    4   11 2   
     8    5    7 ar  
     9    5   11 1   
    10    6   14 1   
    11    6   18 1   
    12    7    8 ar  
    13    7   22 1   
    14    8    9 ar  
    15    8   23 1   
    16    9   10 ar  
    17    9   24 1   
    18   10   25 1   
    19   12   13 ar  
    20   12   17 ar  
    21   13   14 ar  
    22   13   26 1   
    23   14   15 ar  
    24   15   16 ar  
    25   15   27 1   
    26   16   17 ar  
    27   16   28 1   
    28   17   29 1   
    29   18   19 1   
    30   18   20 1   
    31   18   30 1   
    32   19   31 1   
    33   19   32 1   
    34   19   33 1   
    35   20   34 1   
    36   20   35 1   
    37   20   36 1   
@<TRIPOS>SUBSTRUCTURE
     1 12J         1 TEMP              0 ****  ****    0 ROOT
