@<TRIPOS>MOLECULE
12J
   36    34     1     0     0
SMALL
bcc


@<TRIPOS>ATOM
      1 I          -2.6590   -2.2780   -3.5060 i         1 12J      0.162000
      2 N          -1.1830   -0.6330   -0.2920 n         1 12J     -0.316000
      3 C1         -2.4520   -3.0900   -1.5720 c2        1 12J     -0.240000
      4 O1         -1.9940   -1.4700    1.6730 o         1 12J     -0.323000
      5 C2         -2.4990   -2.8060   -0.2160 c1        1 12J     -0.091000
      6 O2          2.7020    2.0020    0.9240 os        1 12J     -0.229000
      7 C3         -2.9730   -3.7560    0.6740 c1        1 12J     -0.106000
      8 C4         -3.4000   -4.9910    0.2080 c1        1 12J     -0.106000
      9 C5         -3.3530   -5.2740   -1.1470 c1        1 12J     -0.117000
     10 C6         -2.8780   -4.3240   -2.0380 c2        1 12J     -0.103000
     11 C7         -1.8820   -1.6070    0.4710 c2        1 12J      0.350000
     12 C8         -0.6150    0.4980    0.3510 c2        1 12J      0.093000
     13 C9          0.7550    0.7090    0.3000 c2        1 12J     -0.224000
     14 C10         1.3040    1.8410    0.8830 c2        1 12J      0.088000
     15 C11         0.4830    2.7620    1.5170 c2        1 12J     -0.167000
     16 C12        -0.8860    2.5510    1.5670 c1        1 12J     -0.091000
     17 C13        -1.4350    1.4190    0.9840 c1        1 12J     -0.170000
     18 C14         3.2200    2.7620   -0.1420 c3        1 12J      0.033000
     19 C15         4.4550    2.0830   -0.6930 c3        1 12J     -0.227500
     20 C16         3.5840    4.1450    0.3550 c3        1 12J     -0.227500
     21 HN         -1.0930   -0.7380   -1.1930 hn        1 12J      0.235000
     22 H3         -3.0070   -3.5570    1.6290 ha        1 12J      0.147500
     23 H4         -3.7340   -5.6600    0.8350 ha        1 12J      0.147500
     24 H5         -3.6530   -6.1430   -1.4750 ha        1 12J      0.142000
     25 H6         -2.8450   -4.5230   -2.9930 ha        1 12J      0.150000
     26 H9          1.3300    0.0740   -0.1680 ha        1 12J      0.137000
     27 H11         0.8690    3.5590    1.9280 ha        1 12J      0.148000
     28 H12        -1.4630    3.1980    2.0130 ha        1 12J      0.137000
     29 H13        -2.3990    1.2700    1.0200 ha        1 12J      0.172000
     30 H14         2.5470    2.8350   -0.8470 h1        1 12J      0.080000
     31 H15         4.2050    1.2250   -1.0940 hc        1 12J      0.086167
     32 H15A        4.8670    2.6560   -1.3740 hc        1 12J      0.086167
     33 H15B        5.0950    1.9290    0.0340 hc        1 12J      0.086167
     34 H16         2.7850    4.7140    0.3510 hc        1 12J      0.086167
     35 H16A        4.2650    4.5350   -0.2330 hc        1 12J      0.086167
     36 H16B        3.9360    4.0830    1.2670 hc        1 12J      0.086167
@<TRIPOS>BOND
     1    1    3 1   
     2    2   11 1   
     3    2   12 1   
     4    2   21 1   
     5    3    5 1   
     6    3   10 1   
     7    4   11 1   
     8    5   11 1   
     9    6   14 1   
    10    6   18 1   
    11    7    8 1   
    12    7   22 1   
    13    8   23 1   
    14    9   10 1   
    15    9   24 1   
    16   10   25 1   
    17   12   13 1   
    18   12   17 1   
    19   13   14 1   
    20   13   26 1   
    21   14   15 1   
    22   15   16 1   
    23   15   27 1   
    24   16   28 1   
    25   17   29 1   
    26   18   19 1   
    27   18   20 1   
    28   18   30 1   
    29   19   31 1   
    30   19   32 1   
    31   19   33 1   
    32   20   34 1   
    33   20   35 1   
    34   20   36 1   
@<TRIPOS>SUBSTRUCTURE
     1 12J         1 TEMP              0 ****  ****    0 ROOT
