@<TRIPOS>MOLECULE
12J
   37    38     1     0     0
SMALL
bcc


@<TRIPOS>ATOM
      1 I           3.7930   -2.6020    0.3200 i         1 12J     -0.101900
      2 N           1.4790   -2.0570    2.7020 n4        1 12J     -0.552200
      3 C1          3.5180   -0.6330    0.7020 ca        1 12J      0.040900
      4 O1          0.0490   -0.9190    1.2740 o         1 12J     -0.397100
      5 C2          2.3450   -0.1280    1.2840 ca        1 12J     -0.159600
      6 O2         -1.0670   -0.2500    6.3380 os        1 12J     -0.319900
      7 C3          2.1840    1.2520    1.4740 ca        1 12J     -0.060000
      8 C4          3.2060    2.1270    1.1040 ca        1 12J     -0.104000
      9 C5          4.3750    1.6290    0.5350 ca        1 12J     -0.071000
     10 C6          4.5260    0.2540    0.3300 ca        1 12J     -0.086000
     11 C7          1.2050   -0.9780    1.6610 c         1 12J      0.579700
     12 C8          1.4450   -1.5180    4.0660 ca        1 12J     -0.013400
     13 C9          0.2140   -1.1210    4.6030 ca        1 12J     -0.159000
     14 C10         0.1790   -0.6270    5.9240 ca        1 12J      0.179100
     15 C11         1.3610   -0.5430    6.6800 ca        1 12J     -0.164000
     16 C12         2.5680   -0.9430    6.1160 ca        1 12J     -0.065000
     17 C13         2.6320   -1.4320    4.8120 ca        1 12J     -0.151000
     18 C14        -1.2260    0.2220    7.7000 c3        1 12J      0.142100
     19 C15        -2.5650    0.9370    7.6940 c3        1 12J     -0.116100
     20 C16        -1.2180   -0.9460    8.6640 c3        1 12J     -0.116100
     21 HN          2.4030   -2.4790    2.5190 hn        1 12J      0.466300
     22 H3          1.2500    1.6450    1.9080 ha        1 12J      0.165000
     23 H4          3.0770    3.2120    1.2560 ha        1 12J      0.171000
     24 H5          5.1840    2.3180    0.2350 ha        1 12J      0.171000
     25 H6          5.4530   -0.1210   -0.1380 ha        1 12J      0.175000
     26 H9         -0.7280   -1.1780    4.0330 ha        1 12J      0.179000
     27 H11         1.3420   -0.1690    7.7160 ha        1 12J      0.171000
     28 H12         3.4950   -0.8770    6.7110 ha        1 12J      0.168000
     29 H13         3.6020   -1.7430    4.3960 ha        1 12J      0.155000
     30 H14        -0.4010    0.9500    7.9340 h1        1 12J      0.053700
     31 H15        -2.5500    1.7830    6.9660 hc        1 12J      0.059033
     32 H15A       -2.7670    1.3330    8.7170 hc        1 12J      0.059033
     33 H15B       -3.3820    0.2340    7.4050 hc        1 12J      0.059033
     34 H16        -1.3660   -0.5690    9.7050 hc        1 12J      0.059033
     35 H16A       -0.2480   -1.4970    8.6130 hc        1 12J      0.059033
     36 H16B       -2.0420   -1.6580    8.4190 hc        1 12J      0.059033
     37 HN3         0.7540   -2.7850    2.6260 hn        1 12J      0.466300
@<TRIPOS>BOND
     1    1    3 1   
     2    2   11 1   
     3    2   12 1   
     4    2   21 1   
     5    2   37 1   
     6    3    5 ar  
     7    3   10 ar  
     8    4   11 2   
     9    5    7 ar  
    10    5   11 1   
    11    6   14 1   
    12    6   18 1   
    13    7    8 ar  
    14    7   22 1   
    15    8    9 ar  
    16    8   23 1   
    17    9   10 ar  
    18    9   24 1   
    19   10   25 1   
    20   12   13 ar  
    21   12   17 ar  
    22   13   14 ar  
    23   13   26 1   
    24   14   15 ar  
    25   15   16 ar  
    26   15   27 1   
    27   16   17 ar  
    28   16   28 1   
    29   17   29 1   
    30   18   19 1   
    31   18   20 1   
    32   18   30 1   
    33   19   31 1   
    34   19   32 1   
    35   19   33 1   
    36   20   34 1   
    37   20   35 1   
    38   20   36 1   
@<TRIPOS>SUBSTRUCTURE
     1 12J         1 TEMP              0 ****  ****    0 ROOT
