@<TRIPOS>MOLECULE
12J
   36    37     1     0     0
SMALL
bcc


@<TRIPOS>ATOM
      1 I           3.0380   -2.9550    1.1960 i         1 12J     -0.122900
      2 N           2.5340   -0.1860    3.5200 ns        1 12J     -0.462100
      3 C1          3.2960   -1.0750    0.4930 ca        1 12J      0.045900
      4 O1          0.6130    0.0200    2.2300 o         1 12J     -0.557100
      5 C2          2.7230    0.0430    1.1040 ca        1 12J     -0.111600
      6 O2         -1.2200   -0.1740    6.5090 os        1 12J     -0.327900
      7 C3          2.9180    1.3190    0.5640 ca        1 12J     -0.097000
      8 C4          3.6910    1.4810   -0.5840 ca        1 12J     -0.115000
      9 C5          4.2680    0.3680   -1.1950 ca        1 12J     -0.118000
     10 C6          4.0680   -0.9040   -0.6600 ca        1 12J     -0.103000
     11 C7          1.8480   -0.0610    2.3200 c         1 12J      0.675700
     12 C8          1.9860   -0.3250    4.8060 ca        1 12J      0.098600
     13 C9          0.6120   -0.1980    5.0700 ca        1 12J     -0.189000
     14 C10         0.1450   -0.3320    6.3920 ca        1 12J      0.160100
     15 C11         1.0230   -0.5930    7.4490 ca        1 12J     -0.236000
     16 C12         2.3850   -0.7150    7.1740 ca        1 12J     -0.070000
     17 C13         2.8740   -0.5870    5.8840 ca        1 12J     -0.219000
     18 C14        -1.7930   -0.2720    7.8260 c3        1 12J      0.141100
     19 C15        -3.1430    0.4170    7.7130 c3        1 12J     -0.111100
     20 C16        -1.9470   -1.7250    8.2290 c3        1 12J     -0.111100
     21 HN          3.5240   -0.2860    3.4660 hn        1 12J      0.321500
     22 H3          2.4480    2.1910    1.0450 ha        1 12J      0.152000
     23 H4          3.8420    2.4850   -1.0080 ha        1 12J      0.143000
     24 H5          4.8770    0.4900   -2.1030 ha        1 12J      0.142000
     25 H6          4.5220   -1.7760   -1.1570 ha        1 12J      0.149000
     26 H9         -0.1200    0.0020    4.2710 ha        1 12J      0.187000
     27 H11         0.6650   -0.7070    8.4800 ha        1 12J      0.138000
     28 H12         3.0840   -0.9200    7.9990 ha        1 12J      0.131000
     29 H13         3.9540   -0.6920    5.7040 ha        1 12J      0.130000
     30 H14        -1.1470    0.2810    8.5630 h1        1 12J      0.046700
     31 H15        -3.7710   -0.0850    6.9380 hc        1 12J      0.048367
     32 H15A       -3.6630    0.3650    8.6980 hc        1 12J      0.048367
     33 H15B       -3.0070    1.4850    7.4200 hc        1 12J      0.048367
     34 H16        -2.6090   -2.2580    7.5050 hc        1 12J      0.048367
     35 H16A       -0.9540   -2.2360    8.2380 hc        1 12J      0.048367
     36 H16B       -2.3990   -1.7870    9.2470 hc        1 12J      0.048367
@<TRIPOS>BOND
     1    1    3 1   
     2    2   11 1   
     3    2   12 1   
     4    2   21 1   
     5    3    5 ar  
     6    3   10 ar  
     7    4   11 2   
     8    5    7 ar  
     9    5   11 1   
    10    6   14 1   
    11    6   18 1   
    12    7    8 ar  
    13    7   22 1   
    14    8    9 ar  
    15    8   23 1   
    16    9   10 ar  
    17    9   24 1   
    18   10   25 1   
    19   12   13 ar  
    20   12   17 ar  
    21   13   14 ar  
    22   13   26 1   
    23   14   15 ar  
    24   15   16 ar  
    25   15   27 1   
    26   16   17 ar  
    27   16   28 1   
    28   17   29 1   
    29   18   19 1   
    30   18   20 1   
    31   18   30 1   
    32   19   31 1   
    33   19   32 1   
    34   19   33 1   
    35   20   34 1   
    36   20   35 1   
    37   20   36 1   
@<TRIPOS>SUBSTRUCTURE
     1 12J         1 TEMP              0 ****  ****    0 ROOT
