@<TRIPOS>MOLECULE
12K
   25    24     1     0     0
SMALL
bcc


@<TRIPOS>ATOM
      1 C1         -0.4460    0.7400   -2.9320 c1        1 12K      0.850000
      2 O2         -0.8880    0.0670   -3.9000 o         1 12K     -0.814000
      3 N3         -1.0370    0.6090   -1.6490 n2        1 12K     -0.747000
      4 C4         -0.2180    0.3150   -0.5100 c3        1 12K      0.244200
      5 C5          1.1140    1.0100   -0.6720 c3        1 12K     -0.086100
      6 C6          0.0140   -1.1810   -0.4480 c3        1 12K     -0.098400
      7 C7          0.7170   -1.6050    0.8220 c3        1 12K     -0.068400
      8 C8          0.0330   -1.0720    2.0690 c3        1 12K     -0.072400
      9 C9         -0.2000    0.4240    2.0070 c3        1 12K     -0.068400
     10 C10        -0.9030    0.8480    0.7370 c3        1 12K     -0.098400
     11 H1         -1.9420    0.6690   -1.5560 hn        1 12K      0.354800
     12 H2          0.9910    1.8380   -1.1810 hc        1 12K      0.034700
     13 H3          1.4820    1.2220    0.2110 hc        1 12K      0.034700
     14 H4          1.7350    0.4210   -1.1520 hc        1 12K      0.034700
     15 H5          0.5600   -1.4480   -1.2150 hc        1 12K      0.044200
     16 H6         -0.8490   -1.6380   -0.5000 hc        1 12K      0.044200
     17 H7          0.7330   -2.5810    0.8640 hc        1 12K      0.024200
     18 H8          1.6370   -1.2730    0.8010 hc        1 12K      0.024200
     19 H9         -0.8290   -1.5220    2.1730 hc        1 12K      0.020700
     20 H10         0.5910   -1.2730    2.8450 hc        1 12K      0.020700
     21 H11        -0.7450    0.6910    2.7740 hc        1 12K      0.024200
     22 H12         0.6630    0.8810    2.0580 hc        1 12K      0.024200
     23 H13        -0.9190    1.8240    0.6960 hc        1 12K      0.044200
     24 H14        -1.8230    0.5160    0.7590 hc        1 12K      0.044200
     25 OXT         0.5290    1.5170   -3.1000 o         1 12K     -0.814000
@<TRIPOS>BOND
     1    1    2 2   
     2    1   25 2   
     3    3    4 1   
     4    3   11 1   
     5    4    5 1   
     6    4    6 1   
     7    4   10 1   
     8    5   12 1   
     9    5   13 1   
    10    5   14 1   
    11    6    7 1   
    12    6   15 1   
    13    6   16 1   
    14    7    8 1   
    15    7   17 1   
    16    7   18 1   
    17    8    9 1   
    18    8   19 1   
    19    8   20 1   
    20    9   10 1   
    21    9   21 1   
    22    9   22 1   
    23   10   23 1   
    24   10   24 1   
@<TRIPOS>SUBSTRUCTURE
     1 12K         1 TEMP              0 ****  ****    0 ROOT
