@<TRIPOS>MOLECULE
12K
   26    25     1     0     0
SMALL
bcc


@<TRIPOS>ATOM
      1 C1          0.9740    0.0630    0.0790 c         1 12K      0.734100
      2 O2          2.0100    0.2890   -0.5640 o         1 12K     -0.540000
      3 N3          0.8240    0.2010    1.4440 nt        1 12K     -0.694000
      4 C4         -2.9140   -0.0500    1.1430 c2        1 12K     -0.128400
      5 C5         -3.1460    1.1030    0.2410 c3        1 12K     -0.069900
      6 C6         -3.2290   -1.3870    0.5640 c3        1 12K     -0.056200
      7 C7         -2.5870   -2.5190    1.3430 c3        1 12K     -0.079400
      8 C8         -2.8030   -2.3460    2.8310 c3        1 12K     -0.077400
      9 C9         -2.2200   -1.0360    3.3250 c3        1 12K     -0.048200
     10 C10        -2.4700    0.0960    2.4010 c2        1 12K     -0.192200
     11 H1         -0.8510   -0.6040   -0.1500 ho        1 12K      0.430000
     12 H2         -0.0760    0.1770    1.8550 hn        1 12K      0.320500
     13 H3         -3.0260    2.0760    0.7750 hc        1 12K      0.048367
     14 H4         -4.1810    1.0580   -0.1820 hc        1 12K      0.048367
     15 H5         -2.4200    1.0730   -0.6120 hc        1 12K      0.048367
     16 H6         -2.8930   -1.4290   -0.5080 hc        1 12K      0.056200
     17 H7         -4.3460   -1.5160    0.5630 hc        1 12K      0.056200
     18 H8         -1.4870   -2.5490    1.1240 hc        1 12K      0.044200
     19 H9         -3.0220   -3.4960    1.0070 hc        1 12K      0.044200
     20 H10        -3.9020   -2.3710    3.0500 hc        1 12K      0.046200
     21 H11        -2.3300   -3.1980    3.3840 hc        1 12K      0.046200
     22 H12        -1.1080   -1.1480    3.4630 hc        1 12K      0.048700
     23 H13        -2.6510   -0.7950    4.3340 hc        1 12K      0.048700
     24 H14        -2.2700    1.0970    2.8180 ha        1 12K      0.123000
     25 OXT        -0.0710   -0.3940   -0.6880 oh        1 12K     -0.579100
     26 H32         1.5670    0.6190    1.9450 hn        1 12K      0.320500
@<TRIPOS>BOND
     1    1    2 2   
     2    1    3 1   
     3    1   25 1   
     4    3   12 1   
     5    3   26 1   
     6    4    5 1   
     7    4    6 1   
     8    4   10 2   
     9    5   13 1   
    10    5   14 1   
    11    5   15 1   
    12    6    7 1   
    13    6   16 1   
    14    6   17 1   
    15    7    8 1   
    16    7   18 1   
    17    7   19 1   
    18    8    9 1   
    19    8   20 1   
    20    8   21 1   
    21    9   10 1   
    22    9   22 1   
    23    9   23 1   
    24   10   24 1   
    25   11   25 1   
@<TRIPOS>SUBSTRUCTURE
     1 12K         1 TEMP              0 ****  ****    0 ROOT
