@<TRIPOS>MOLECULE
12K
   25    25     1     0     0
SMALL
bcc


@<TRIPOS>ATOM
      1 C1          2.0380    0.3280   -0.1310 c         1 12K      0.980600
      2 O2          2.4860   -0.3730    0.8250 o         1 12K     -0.845800
      3 N3          0.8220   -0.0690   -0.8280 n         1 12K     -0.572900
      4 C4         -0.2080   -0.7980   -0.1070 c3        1 12K      0.122400
      5 C5          0.2570   -2.2350    0.1990 c3        1 12K     -0.088100
      6 C6         -1.5060   -0.9190   -0.9500 c3        1 12K     -0.096400
      7 C7         -2.2370    0.3950   -1.1110 c3        1 12K     -0.074400
      8 C8         -2.5540    1.0270    0.2280 c3        1 12K     -0.071400
      9 C9         -1.3050    1.1700    1.0730 c3        1 12K     -0.074400
     10 C10        -0.6020   -0.1570    1.2490 c3        1 12K     -0.096400
     11 H1          0.4360    0.7020   -1.3330 hn        1 12K      0.238500
     12 H2          1.1970   -2.1990    0.8060 hc        1 12K      0.033700
     13 H3         -0.5350   -2.7770    0.7680 hc        1 12K      0.033700
     14 H4          0.4590   -2.7870   -0.7480 hc        1 12K      0.033700
     15 H5         -1.2580   -1.3360   -1.9600 hc        1 12K      0.039700
     16 H6         -2.1810   -1.6520   -0.4360 hc        1 12K      0.039700
     17 H7         -1.6200    1.1070   -1.7220 hc        1 12K      0.031950
     18 H8         -3.1910    0.2220   -1.6760 hc        1 12K      0.031950
     19 H9         -3.0230    2.0330    0.0690 hc        1 12K      0.017700
     20 H10        -3.3020    0.3910    0.7710 hc        1 12K      0.017700
     21 H11        -0.6050    1.9030    0.5900 hc        1 12K      0.031950
     22 H12        -1.5820    1.5840    2.0770 hc        1 12K      0.031950
     23 H13        -1.2740   -0.8630    1.8010 hc        1 12K      0.039700
     24 H14         0.3340   -0.0180    1.8540 hc        1 12K      0.039700
     25 OXT         2.5980    1.3790   -0.5710 o         1 12K     -0.845800
@<TRIPOS>BOND
     1    1    2 1   
     2    1    3 1   
     3    1   25 1   
     4    3    4 1   
     5    3   11 1   
     6    4    5 1   
     7    4    6 1   
     8    4   10 1   
     9    5   12 1   
    10    5   13 1   
    11    5   14 1   
    12    6    7 1   
    13    6   15 1   
    14    6   16 1   
    15    7    8 1   
    16    7   17 1   
    17    7   18 1   
    18    8    9 1   
    19    8   19 1   
    20    8   20 1   
    21    9   10 1   
    22    9   21 1   
    23    9   22 1   
    24   10   23 1   
    25   10   24 1   
@<TRIPOS>SUBSTRUCTURE
     1 12K         1 TEMP              0 ****  ****    0 ROOT
