@<TRIPOS>MOLECULE
12K
   26    25     1     0     0
SMALL
bcc


@<TRIPOS>ATOM
      1 C1          0.5450    0.1240   -0.0090 c         1 12K      0.737100
      2 O2          1.6680    0.1690   -0.5320 o         1 12K     -0.525000
      3 N3          0.3240   -0.1890    1.3330 n         1 12K     -0.502100
      4 C4         -0.8100   -0.8520    1.8450 c2        1 12K      0.002400
      5 C5         -3.5870    1.5880   -0.7260 c3        1 12K     -0.122800
      6 C6         -1.8100   -1.4450    0.8910 c3        1 12K     -0.056200
      7 C7         -2.5830   -2.5760    1.5390 c3        1 12K     -0.072400
      8 C8         -3.1850   -2.1250    2.8510 c3        1 12K     -0.080400
      9 C9         -2.1090   -1.6790    3.8200 c3        1 12K     -0.033200
     10 C10        -0.9880   -0.9530    3.1850 c2        1 12K     -0.211200
     11 H1         -1.3020    0.6380   -0.3680 ho        1 12K      0.439000
     12 H2         -3.4400    1.5730    0.3760 hc        1 12K      0.031950
     13 H3         -4.5430    2.1030   -0.9630 hc        1 12K      0.031950
     14 H4         -2.7450    2.1330   -1.2090 hc        1 12K      0.031950
     15 H5         -3.6240    0.5450   -1.1120 hc        1 12K      0.031950
     16 H6         -1.3040   -1.8210   -0.0380 hc        1 12K      0.056700
     17 H7         -2.5370   -0.6410    0.5820 hc        1 12K      0.056700
     18 H8         -3.3930   -2.9140    0.8420 hc        1 12K      0.050200
     19 H9         -1.9010   -3.4490    1.7150 hc        1 12K      0.050200
     20 H10        -3.8970   -1.2780    2.6620 hc        1 12K      0.045200
     21 H11        -3.7760   -2.9620    3.3060 hc        1 12K      0.045200
     22 H12        -1.6850   -2.5800    4.3470 hc        1 12K      0.051200
     23 H13        -2.5680   -1.0250    4.6110 hc        1 12K      0.051200
     24 H14        -0.2670   -0.5160    3.8950 ha        1 12K      0.130000
     25 OXT        -0.4740    0.4820   -0.8500 oh        1 12K     -0.569100
     26 H32         1.1590   -0.2770    1.8750 hn        1 12K      0.332500
@<TRIPOS>BOND
     1    1    2 2   
     2    1    3 1   
     3    1   25 1   
     4    3    4 1   
     5    3   26 1   
     6    4    6 1   
     7    4   10 2   
     8    5   12 1   
     9    5   13 1   
    10    5   14 1   
    11    5   15 1   
    12    6    7 1   
    13    6   16 1   
    14    6   17 1   
    15    7    8 1   
    16    7   18 1   
    17    7   19 1   
    18    8    9 1   
    19    8   20 1   
    20    8   21 1   
    21    9   10 1   
    22    9   22 1   
    23    9   23 1   
    24   10   24 1   
    25   11   25 1   
@<TRIPOS>SUBSTRUCTURE
     1 12K         1 TEMP              0 ****  ****    0 ROOT
