@<TRIPOS>MOLECULE
12K
   26    25     1     0     0
SMALL
bcc


@<TRIPOS>ATOM
      1 C1          0.9750   -0.0470    0.0610 c         1 12K      0.734100
      2 O2          2.0070    0.1450   -0.5980 o         1 12K     -0.540000
      3 N3          0.8500    0.0970    1.4280 n         1 12K     -0.694000
      4 C4         -2.8980   -0.0350    1.1860 c2        1 12K     -0.128400
      5 C5         -3.1080    1.1210    0.2830 c3        1 12K     -0.069900
      6 C6         -3.2620   -1.3640    0.6170 c3        1 12K     -0.056200
      7 C7         -2.6440   -2.5120    1.3900 c3        1 12K     -0.079400
      8 C8         -2.8310   -2.3270    2.8810 c3        1 12K     -0.077400
      9 C9         -2.2010   -1.0350    3.3610 c3        1 12K     -0.048200
     10 C10        -2.4300    0.1020    2.4370 c2        1 12K     -0.192200
     11 H1         -0.8730   -0.6570   -0.1380 ho        1 12K      0.430000
     12 H2         -0.0440    0.1030    1.8530 hn        1 12K      0.320500
     13 H3         -2.9490    2.0930    0.8120 hc        1 12K      0.048367
     14 H4         -4.1500    1.1070   -0.1240 hc        1 12K      0.048367
     15 H5         -2.3960    1.0670   -0.5800 hc        1 12K      0.048367
     16 H6         -4.3830   -1.4580    0.6340 hc        1 12K      0.056200
     17 H7         -2.9450   -1.4190   -0.4590 hc        1 12K      0.056200
     18 H8         -1.5490   -2.5760    1.1550 hc        1 12K      0.044200
     19 H9         -3.1140   -3.4770    1.0650 hc        1 12K      0.044200
     20 H10        -2.3770   -3.1920    3.4300 hc        1 12K      0.046200
     21 H11        -3.9280   -2.3180    3.1170 hc        1 12K      0.046200
     22 H12        -1.0920   -1.1800    3.4830 hc        1 12K      0.048700
     23 H13        -2.6090   -0.7770    4.3760 hc        1 12K      0.048700
     24 H14        -2.1930    1.0970    2.8460 ha        1 12K      0.123000
     25 OXT        -0.0960   -0.4720   -0.6890 oh        1 12K     -0.579100
     26 H32         1.6140    0.4930    1.9170 hn        1 12K      0.320500
@<TRIPOS>BOND
     1    1    2 2   
     2    1    3 1   
     3    1   25 1   
     4    3   12 1   
     5    3   26 1   
     6    4    5 1   
     7    4    6 1   
     8    4   10 2   
     9    5   13 1   
    10    5   14 1   
    11    5   15 1   
    12    6    7 1   
    13    6   16 1   
    14    6   17 1   
    15    7    8 1   
    16    7   18 1   
    17    7   19 1   
    18    8    9 1   
    19    8   20 1   
    20    8   21 1   
    21    9   10 1   
    22    9   22 1   
    23    9   23 1   
    24   10   24 1   
    25   11   25 1   
@<TRIPOS>SUBSTRUCTURE
     1 12K         1 TEMP              0 ****  ****    0 ROOT
