@<TRIPOS>MOLECULE
12L
   23    24     1     0     0
SMALL
bcc


@<TRIPOS>ATOM
      1 N19        -0.7690    0.2560   -1.5560 n3        1 12L     -0.807200
      2 C20         0.6450    0.2470   -1.5600 c3        1 12L      0.181800
      3 C21        -1.2170    0.9690   -0.1960 c3        1 12L      0.044500
      4 C22        -0.1900    0.5560    0.7330 cx        1 12L     -0.073700
      5 C23         1.0460    0.2510   -0.1400 cx        1 12L     -0.159700
      6 C24         0.4220   -0.8590    0.7050 cx        1 12L     -0.119000
      7 C25        -0.3780   -1.9150   -0.0690 c3        1 12L     -0.055600
      8 C26         1.2120   -1.2670    1.9550 c3        1 12L     -0.055600
      9 C27        -1.2910    2.3900   -0.4020 c         1 12L      0.908600
     10 O28        -2.2330    2.8800   -1.0870 o         1 12L     -0.838300
     11 H26         0.9780   -0.5640   -2.0050 h1        1 12L      0.019200
     12 H27         0.9890    1.0500   -2.0130 h1        1 12L      0.019200
     13 H28        -2.1160    0.7760    0.1550 h1        1 12L      0.056700
     14 H29         0.0460    1.1520    1.4790 hc        1 12L      0.107700
     15 H30         1.8840    0.6660    0.1650 hc        1 12L      0.067700
     16 H31        -0.4740   -2.7230    0.4830 hc        1 12L      0.027533
     17 H32        -1.2670   -1.5580   -0.2850 hc        1 12L      0.027533
     18 H33         0.0950   -2.1400   -0.9000 hc        1 12L      0.027533
     19 H34         1.8350   -1.9930    1.7270 hc        1 12L      0.027533
     20 H35         0.5880   -1.5760    2.6500 hc        1 12L      0.027533
     21 H36         1.7180   -0.4940    2.2890 hc        1 12L      0.027533
     22 H2         -1.0740    0.7440   -2.2720 hn        1 12L      0.375800
     23 OXT        -0.4470    3.1520    0.1460 o         1 12L     -0.838300
@<TRIPOS>BOND
     1    1    2 1   
     2    1    3 1   
     3    1   22 1   
     4    2    5 1   
     5    2   11 1   
     6    2   12 1   
     7    3    4 1   
     8    3    9 1   
     9    3   13 1   
    10    4    5 1   
    11    4    6 1   
    12    4   14 1   
    13    5    6 1   
    14    5   15 1   
    15    6    7 1   
    16    6    8 1   
    17    7   16 1   
    18    7   17 1   
    19    7   18 1   
    20    8   19 1   
    21    8   20 1   
    22    8   21 1   
    23    9   10 1   
    24    9   23 1   
@<TRIPOS>SUBSTRUCTURE
     1 12L         1 TEMP              0 ****  ****    0 ROOT
