@<TRIPOS>MOLECULE
12L
   23    24     1     0     0
SMALL
bcc


@<TRIPOS>ATOM
      1 N19         0.4600   -1.5070   -0.6870 n3        1 12L     -0.807200
      2 C20        -0.7810   -1.9110   -0.0170 c3        1 12L      0.181800
      3 C21         0.7250   -0.0850   -0.3930 c3        1 12L      0.044500
      4 C22        -0.3940    0.4350    0.5030 cx        1 12L     -0.073700
      5 C23        -1.3350   -0.7250    0.7600 cx        1 12L     -0.159700
      6 C24        -1.8160    0.4830   -0.0200 cx        1 12L     -0.119000
      7 C25        -2.7520    1.4030    0.7070 c3        1 12L     -0.055600
      8 C26        -2.1360    0.3980   -1.4750 c3        1 12L     -0.055600
      9 C27         2.1000    0.1990    0.2940 c         1 12L      0.908600
     10 O28         2.8340   -0.7810    0.6040 o         1 12L     -0.838300
     11 H26        -1.5090   -2.2320   -0.8120 h1        1 12L      0.019200
     12 H27        -0.6270   -2.7800    0.6780 h1        1 12L      0.019200
     13 H28         0.7230    0.4620   -1.3760 h1        1 12L      0.056700
     14 H29        -0.0720    1.1610    1.2660 hc        1 12L      0.107700
     15 H30        -1.7810   -0.9500    1.7380 hc        1 12L      0.067700
     16 H31        -2.6590    2.4400    0.3030 hc        1 12L      0.027533
     17 H32        -3.8090    1.0640    0.5760 hc        1 12L      0.027533
     18 H33        -2.5220    1.4290    1.8000 hc        1 12L      0.027533
     19 H34        -1.3720   -0.1920   -2.0360 hc        1 12L      0.027533
     20 H35        -3.1330   -0.0880   -1.6190 hc        1 12L      0.027533
     21 H36        -2.1770    1.4250   -1.9160 hc        1 12L      0.027533
     22 H2          1.2360   -2.0480   -0.3370 hn        1 12L      0.375800
     23 OXT         2.3930    1.4090    0.4980 o         1 12L     -0.838300
@<TRIPOS>BOND
     1    1    2 1   
     2    1    3 1   
     3    1   22 1   
     4    2    5 1   
     5    2   11 1   
     6    2   12 1   
     7    3    4 1   
     8    3    9 1   
     9    3   13 1   
    10    4    5 1   
    11    4    6 1   
    12    4   14 1   
    13    5    6 1   
    14    5   15 1   
    15    6    7 1   
    16    6    8 1   
    17    7   16 1   
    18    7   17 1   
    19    7   18 1   
    20    8   19 1   
    21    8   20 1   
    22    8   21 1   
    23    9   10 1   
    24    9   23 1   
@<TRIPOS>SUBSTRUCTURE
     1 12L         1 TEMP              0 ****  ****    0 ROOT
