@<TRIPOS>MOLECULE
12M
   22    22     1     0     0
SMALL
bcc


@<TRIPOS>ATOM
      1 CAH        -0.0200    0.0360   -0.0480 c3        1 12M     -0.090100
      2 CAD         1.4860   -0.0770   -0.0010 c3        1 12M     -0.040100
      3 CAA         2.0040   -0.0510    1.3960 ca        1 12M     -0.076300
      4 CAC         2.3160    1.1840    1.9790 ca        1 12M     -0.131000
      5 CAG         2.8040    1.2540    3.2820 ca        1 12M     -0.127000
      6 CAI         2.9870    0.0850    4.0190 ca        1 12M     -0.136000
      7 CAE         2.6830   -1.1490    3.4500 ca        1 12M     -0.101000
      8 CAB         2.1920   -1.2280    2.1420 ca        1 12M     -0.085300
      9 CAF         1.8750   -2.5520    1.5270 c3        1 12M      0.176700
     10 OAJ         1.9700   -3.5710    2.5130 oh        1 12M     -0.599800
     11 HAH1       -0.3550    0.9910    0.4250 hc        1 12M      0.036367
     12 HAH2       -0.4990   -0.8120    0.4960 hc        1 12M      0.036367
     13 HAH3       -0.3710    0.0230   -1.1080 hc        1 12M      0.036367
     14 HAD1        1.8080   -1.0220   -0.5150 hc        1 12M      0.045200
     15 HAD2        1.9370    0.7750   -0.5790 hc        1 12M      0.045200
     16 HAC         2.1710    2.1070    1.3980 ha        1 12M      0.130000
     17 HAG         3.0430    2.2310    3.7260 ha        1 12M      0.130000
     18 HAI         3.3720    0.1350    5.0480 ha        1 12M      0.131000
     19 HAE         2.8250   -2.0760    4.0290 ha        1 12M      0.153000
     20 HAF1        0.8330   -2.5370    1.1010 h1        1 12M      0.032200
     21 HAF2        2.6040   -2.7670    0.6960 h1        1 12M      0.032200
     22 HAJ         1.7480   -4.3960    2.0660 ho        1 12M      0.402000
@<TRIPOS>BOND
     1    1    2 1   
     2    1   11 1   
     3    1   12 1   
     4    1   13 1   
     5    2    3 1   
     6    2   14 1   
     7    2   15 1   
     8    3    4 ar  
     9    3    8 ar  
    10    4    5 ar  
    11    4   16 1   
    12    5    6 ar  
    13    5   17 1   
    14    6    7 ar  
    15    6   18 1   
    16    7    8 ar  
    17    7   19 1   
    18    8    9 1   
    19    9   10 1   
    20    9   20 1   
    21    9   21 1   
    22   10   22 1   
@<TRIPOS>SUBSTRUCTURE
     1 12M         1 TEMP              0 ****  ****    0 ROOT
