@<TRIPOS>MOLECULE
12M
   22    22     1     0     0
SMALL
bcc


@<TRIPOS>ATOM
      1 CAH        -0.4080    2.8110    0.7710 c3        1 12M     -0.090100
      2 CAD        -0.1410    2.0600   -0.5120 c3        1 12M     -0.040100
      3 CAA         0.4180    0.7020   -0.2580 ca        1 12M     -0.076300
      4 CAC         1.8060    0.5490   -0.1580 ca        1 12M     -0.131000
      5 CAG         2.3710   -0.7020    0.0780 ca        1 12M     -0.127000
      6 CAI         1.5500   -1.8200    0.2160 ca        1 12M     -0.136000
      7 CAE         0.1670   -1.6820    0.1160 ca        1 12M     -0.101000
      8 CAB        -0.4070   -0.4280   -0.1200 ca        1 12M     -0.085300
      9 CAF        -1.8890   -0.2810   -0.2380 c3        1 12M      0.176700
     10 OAJ        -2.5200   -1.5060    0.1100 oh        1 12M     -0.599800
     11 HAH1       -0.8160    3.8250    0.5430 hc        1 12M      0.036367
     12 HAH2       -1.1470    2.2650    1.4050 hc        1 12M      0.036367
     13 HAH3        0.5350    2.9310    1.3580 hc        1 12M      0.036367
     14 HAD1       -1.0900    1.9820   -1.1070 hc        1 12M      0.045200
     15 HAD2        0.5850    2.6480   -1.1380 hc        1 12M      0.045200
     16 HAC         2.4550    1.4310   -0.2660 ha        1 12M      0.130000
     17 HAG         3.4630   -0.8060    0.1560 ha        1 12M      0.130000
     18 HAI         1.9900   -2.8100    0.4030 ha        1 12M      0.131000
     19 HAE        -0.4860   -2.5620    0.2250 ha        1 12M      0.153000
     20 HAF1       -2.2490    0.5350    0.4490 h1        1 12M      0.032200
     21 HAF2       -2.1590   -0.0090   -1.2970 h1        1 12M      0.032200
     22 HAJ        -3.4680   -1.3510    0.0260 ho        1 12M      0.402000
@<TRIPOS>BOND
     1    1    2 1   
     2    1   11 1   
     3    1   12 1   
     4    1   13 1   
     5    2    3 1   
     6    2   14 1   
     7    2   15 1   
     8    3    4 ar  
     9    3    8 ar  
    10    4    5 ar  
    11    4   16 1   
    12    5    6 ar  
    13    5   17 1   
    14    6    7 ar  
    15    6   18 1   
    16    7    8 ar  
    17    7   19 1   
    18    8    9 1   
    19    9   10 1   
    20    9   20 1   
    21    9   21 1   
    22   10   22 1   
@<TRIPOS>SUBSTRUCTURE
     1 12M         1 TEMP              0 ****  ****    0 ROOT
