@<TRIPOS>MOLECULE
12M
   22    20     1     0     0
SMALL
bcc


@<TRIPOS>ATOM
      1 CAH        -1.7460    1.0560   -1.7080 c3        1 12M     -0.208000
      2 CAD        -1.0560   -0.2570   -1.4050 c3        1 12M     -0.126000
      3 CAA        -0.5420   -0.2390    0.0170 c2        1 12M     -0.069000
      4 CAC        -1.4350   -0.2490    1.0770 c2        1 12M     -0.131000
      5 CAG        -0.9630   -0.2460    2.3810 c1        1 12M     -0.127000
      6 CAI         0.4010   -0.2340    2.6240 c1        1 12M     -0.118500
      7 CAE         1.2940   -0.2250    1.5640 c1        1 12M     -0.118500
      8 CAB         0.8230   -0.2270    0.2610 c1        1 12M     -0.078000
      9 CAF         1.7970   -0.2420   -0.8960 c3        1 12M      0.019000
     10 OAJ         3.1120   -0.1040   -0.4050 oh        1 12M     -0.327000
     11 HAH1       -1.1060    1.7920   -1.6100 hc        1 12M      0.075667
     12 HAH2       -2.4910    1.1850   -1.0840 hc        1 12M      0.075667
     13 HAH3       -2.0880    1.0410   -2.6270 hc        1 12M      0.075667
     14 HAD1       -0.3070   -0.3810   -2.0210 hc        1 12M      0.084500
     15 HAD2       -1.6930   -0.9920   -1.5130 hc        1 12M      0.084500
     16 HAC        -2.3960   -0.2570    0.9060 ha        1 12M      0.130000
     17 HAG        -1.5920   -0.2530    3.1270 ha        1 12M      0.130000
     18 HAI         0.7330   -0.2330    3.5420 ha        1 12M      0.142000
     19 HAE         2.2550   -0.2170    1.7360 ha        1 12M      0.142000
     20 HAF1        1.7170   -1.0900   -1.3800 h1        1 12M      0.071500
     21 HAF2        1.5950    0.5000   -1.5030 h1        1 12M      0.071500
     22 HAJ         3.6860   -0.1290   -1.0840 ho        1 12M      0.201000
@<TRIPOS>BOND
     1    1    2 1   
     2    1   11 1   
     3    1   12 1   
     4    1   13 1   
     5    2    3 1   
     6    2   14 1   
     7    2   15 1   
     8    3    4 1   
     9    3    8 1   
    10    4    5 1   
    11    4   16 1   
    12    5   17 1   
    13    6    7 1   
    14    6   18 1   
    15    7   19 1   
    16    8    9 1   
    17    9   10 1   
    18    9   20 1   
    19    9   21 1   
    20   10   22 1   
@<TRIPOS>SUBSTRUCTURE
     1 12M         1 TEMP              0 ****  ****    0 ROOT
