@<TRIPOS>MOLECULE
12M
   22    22     1     0     0
SMALL
bcc


@<TRIPOS>ATOM
      1 CAH        -0.0130    0.0580   -0.0470 c3        1 12M     -0.090100
      2 CAD         1.4910   -0.0660    0.0020 c3        1 12M     -0.040100
      3 CAA         2.0080   -0.0510    1.3990 ca        1 12M     -0.076300
      4 CAC         2.3270    1.1790    1.9890 ca        1 12M     -0.131000
      5 CAG         2.8140    1.2390    3.2930 ca        1 12M     -0.127000
      6 CAI         2.9890    0.0650    4.0240 ca        1 12M     -0.136000
      7 CAE         2.6780   -1.1650    3.4480 ca        1 12M     -0.101000
      8 CAB         2.1870   -1.2330    2.1390 ca        1 12M     -0.085300
      9 CAF         1.8630   -2.5520    1.5160 c3        1 12M      0.176700
     10 OAJ         1.9500   -3.5770    2.4970 oh        1 12M     -0.599800
     11 HAH1       -0.3430    1.0110    0.4320 hc        1 12M      0.036367
     12 HAH2       -0.4990   -0.7910    0.4930 hc        1 12M      0.036367
     13 HAH3       -0.3640    0.0520   -1.1070 hc        1 12M      0.036367
     14 HAD1        1.8070   -1.0100   -0.5170 hc        1 12M      0.045200
     15 HAD2        1.9490    0.7860   -0.5710 hc        1 12M      0.045200
     16 HAC         2.1890    2.1060    1.4130 ha        1 12M      0.130000
     17 HAG         3.0590    2.2120    3.7430 ha        1 12M      0.130000
     18 HAI         3.3730    0.1070    5.0530 ha        1 12M      0.131000
     19 HAE         2.8130   -2.0950    4.0220 ha        1 12M      0.153000
     20 HAF1        0.8210   -2.5280    1.0900 h1        1 12M      0.032200
     21 HAF2        2.5910   -2.7670    0.6850 h1        1 12M      0.032200
     22 HAJ         1.7230   -4.3980    2.0450 ho        1 12M      0.402000
@<TRIPOS>BOND
     1    1    2 1   
     2    1   11 1   
     3    1   12 1   
     4    1   13 1   
     5    2    3 1   
     6    2   14 1   
     7    2   15 1   
     8    3    4 ar  
     9    3    8 ar  
    10    4    5 ar  
    11    4   16 1   
    12    5    6 ar  
    13    5   17 1   
    14    6    7 ar  
    15    6   18 1   
    16    7    8 ar  
    17    7   19 1   
    18    8    9 1   
    19    9   10 1   
    20    9   20 1   
    21    9   21 1   
    22   10   22 1   
@<TRIPOS>SUBSTRUCTURE
     1 12M         1 TEMP              0 ****  ****    0 ROOT
