@<TRIPOS>MOLECULE
12N
   27    24     1     0     0
SMALL
bcc


@<TRIPOS>ATOM
      1 N29         1.3070    0.9430    1.0530 n4        1 12N     -0.863600
      2 C30         2.4520    1.1060    0.1190 c3        1 12N      0.126800
      3 C31         1.0600   -2.4950    2.1320 c3        1 12N     -0.101900
      4 C32         1.5040   -1.6060    3.2240 c2        1 12N     -0.151200
      5 C33        -0.4300    3.6170    1.7890 c1        1 12N     -0.185000
      6 C34         0.7660   -0.6230    3.7400 c2        1 12N     -0.283000
      7 C35        -0.6130    3.2330    0.6690 c1        1 12N     -0.185000
      8 O36         2.6230   -1.1590   -0.5680 oh        1 12N     -0.643800
      9 C37         2.3370    0.1400   -1.0650 c3        1 12N     -0.023900
     10 C40         0.9230    0.1640   -1.7190 c         1 12N      0.895600
     11 H37         0.4260    1.0770    0.4880 hn        1 12N      0.463133
     12 H38         2.4260    2.1580   -0.2810 hx        1 12N      0.089700
     13 H39         0.0010   -2.2970    1.8340 hc        1 12N      0.061700
     14 H40         3.4060    0.9220    0.6860 hx        1 12N      0.089700
     15 H41         1.7150   -2.3600    1.2300 hc        1 12N      0.061700
     16 H42         1.1370   -3.5640    2.4560 hc        1 12N      0.061700
     17 H43         2.5210   -1.8090    3.6040 ha        1 12N      0.128000
     18 H44        -0.7640    2.8790   -0.3330 ha        1 12N      0.188000
     19 H45        -0.3010    3.9910    2.7730 ha        1 12N      0.188000
     20 H46         1.1230    0.0070    4.5650 ha        1 12N      0.116000
     21 H47        -0.2620   -0.4170    3.4120 ha        1 12N      0.116000
     22 H48         2.2200   -1.7830   -1.1950 ho        1 12N      0.449000
     23 H49         3.1130    0.4250   -1.8260 h1        1 12N      0.074700
     24 H2          1.3140   -0.0050    1.4460 hn        1 12N      0.463133
     25 OXT         0.1430    1.1130   -1.3890 o         1 12N     -0.799300
     26 O38         0.6490   -0.7910   -2.4760 o         1 12N     -0.799300
     27 H293        1.3360    1.6340    1.8000 hn        1 12N      0.463133
@<TRIPOS>BOND
     1    1    2 1   
     2    1   11 1   
     3    1   24 1   
     4    1   27 1   
     5    2    9 1   
     6    2   12 1   
     7    2   14 1   
     8    3    4 1   
     9    3   13 1   
    10    3   15 1   
    11    3   16 1   
    12    4    6 2   
    13    4   17 1   
    14    5    7 3   
    15    5   19 1   
    16    6   20 1   
    17    6   21 1   
    18    7   18 1   
    19    8    9 1   
    20    8   22 1   
    21    9   10 1   
    22    9   23 1   
    23   10   25 1   
    24   10   26 1   
@<TRIPOS>SUBSTRUCTURE
     1 12N         1 TEMP              0 ****  ****    0 ROOT
