@<TRIPOS>MOLECULE
12N
   26    26     1     0     0
SMALL
bcc


@<TRIPOS>ATOM
      1 N29        -0.2550   -0.6910   -1.2500 n3        1 12N     -0.901800
      2 C30        -0.2730   -0.2960    0.1510 c3        1 12N      0.146500
      3 C31         1.0410    0.3540    0.6050 c3        1 12N     -0.063400
      4 C32         2.2430   -0.5160    0.3680 cy        1 12N     -0.057700
      5 C33         3.5500   -0.0070    1.0320 cy        1 12N     -0.088400
      6 C34         2.9170   -0.3840   -1.0210 cy        1 12N     -0.088400
      7 C35         4.2210    0.0940   -0.3520 cy        1 12N     -0.103400
      8 O36        -1.3370    1.8470   -0.2650 oh        1 12N     -0.641800
      9 C37        -1.4420    0.6600    0.5050 c3        1 12N     -0.022900
     10 C40        -2.7800   -0.0700    0.2200 c         1 12N      0.890600
     11 H37        -1.1690   -1.0430   -1.4870 hn        1 12N      0.347800
     12 H38        -0.4320   -1.2400    0.7530 h1        1 12N      0.059700
     13 H39         1.1610    1.3420    0.0880 hc        1 12N      0.040200
     14 H40         0.9530    0.5610    1.7050 hc        1 12N      0.040200
     15 H41         2.0140   -1.5760    0.6280 hc        1 12N      0.057700
     16 H42         3.4380    0.9670    1.5520 hc        1 12N      0.043450
     17 H43         4.0250   -0.7420    1.7150 hc        1 12N      0.043450
     18 H44         3.0080   -1.3470   -1.5660 hc        1 12N      0.043450
     19 H45         2.4400    0.3710   -1.6800 hc        1 12N      0.043450
     20 H46         4.5250    1.1240   -0.6330 hc        1 12N      0.032700
     21 H47         5.0810   -0.5940   -0.4890 hc        1 12N      0.032700
     22 H48        -1.9440    1.7430   -1.0160 ho        1 12N      0.419000
     23 H49        -1.3730    0.9750    1.5770 h1        1 12N      0.051700
     24 H2         -0.0970    0.1270   -1.8120 hn        1 12N      0.347800
     25 OXT        -3.3320   -0.7160    1.1470 o         1 12N     -0.835300
     26 O38        -3.2160    0.0310   -0.9670 o         1 12N     -0.835300
@<TRIPOS>BOND
     1    1    2 1   
     2    1   11 1   
     3    1   24 1   
     4    2    3 1   
     5    2    9 1   
     6    2   12 1   
     7    3    4 1   
     8    3   13 1   
     9    3   14 1   
    10    4    5 1   
    11    4    6 1   
    12    4   15 1   
    13    5    7 1   
    14    5   16 1   
    15    5   17 1   
    16    6    7 1   
    17    6   18 1   
    18    6   19 1   
    19    7   20 1   
    20    7   21 1   
    21    8    9 1   
    22    8   22 1   
    23    9   10 1   
    24    9   23 1   
    25   10   25 1   
    26   10   26 1   
@<TRIPOS>SUBSTRUCTURE
     1 12N         1 TEMP              0 ****  ****    0 ROOT
