@<TRIPOS>MOLECULE
12N
   27    23     1     0     0
SMALL
bcc


@<TRIPOS>ATOM
      1 N29        -0.5230   -2.5550   -1.8600 n3        1 12N     -0.413000
      2 C30         2.3060    0.3130    0.3340 c2        1 12N     -0.208000
      3 C31         1.6770    0.5360    1.4900 c2        1 12N     -0.159000
      4 C32         1.8330    1.7790    2.2830 c3        1 12N     -0.134000
      5 C33         2.2950    1.7310    6.0140 c2        1 12N     -0.566000
      6 C34         0.5070    2.2860    2.7970 c3        1 12N     -0.213000
      7 C35         1.9520    1.6330    7.2680 c1        1 12N      0.179000
      8 O36         1.4450   -1.9640    0.1590 oh        1 12N     -0.344000
      9 C37         2.1770   -0.9290   -0.4740 c3        1 12N     -0.005000
     10 C40        -0.2740   -1.0480   -4.0820 c1        1 12N      0.444000
     11 H37        -1.2220   -3.2630   -1.7810 hn        1 12N      0.139667
     12 H38         1.6010   -0.7200   -1.4220 h1        1 12N      0.105500
     13 H39         2.3280    2.5800    1.6700 hc        1 12N      0.084500
     14 H40         2.9730    1.0680   -0.1150 ha        1 12N      0.130000
     15 H41         0.9930   -0.2150    1.9200 ha        1 12N      0.125000
     16 H42         3.3260    1.6030    5.6490 ha        1 12N      0.192500
     17 H43         2.5130    1.5640    3.1550 hc        1 12N      0.084500
     18 H44         1.5800    1.9520    5.2010 ha        1 12N      0.192500
     19 H45         0.6570    3.2160    3.3970 hc        1 12N      0.076333
     20 H46         0.0140    1.5200    3.4430 hc        1 12N      0.076333
     21 H47        -0.1790    2.5220    1.9480 hc        1 12N      0.076333
     22 H48         1.8760   -2.1490    1.0020 ho        1 12N      0.201000
     23 H49         3.2020   -1.3080   -0.7450 h1        1 12N      0.105500
     24 H2          0.3780   -2.9740   -1.7490 hn        1 12N      0.139667
     25 OXT        -1.2300   -1.5220   -4.6060 o         1 12N     -0.225500
     26 O38         0.6920   -0.5370   -3.6060 o         1 12N     -0.225500
     27 H293       -0.6440   -1.8950   -1.1170 hn        1 12N      0.139667
@<TRIPOS>BOND
     1    1   11 1   
     2    1   24 1   
     3    1   27 1   
     4    2    3 1   
     5    2    9 1   
     6    2   14 1   
     7    3    4 1   
     8    3   15 1   
     9    4    6 1   
    10    4   13 1   
    11    4   17 1   
    12    5    7 1   
    13    5   16 1   
    14    5   18 1   
    15    6   19 1   
    16    6   20 1   
    17    6   21 1   
    18    8    9 1   
    19    8   22 1   
    20    9   12 1   
    21    9   23 1   
    22   10   25 1   
    23   10   26 1   
@<TRIPOS>SUBSTRUCTURE
     1 12N         1 TEMP              0 ****  ****    0 ROOT
