@<TRIPOS>MOLECULE
12N
   27    23     1     0     0
SMALL
bcc


@<TRIPOS>ATOM
      1 N29        -1.2240   -0.8480   -0.0850 n9        1 12N     -1.061400
      2 C30         0.7870    1.2950    1.0580 c3        1 12N     -0.190900
      3 C31         2.6750   -1.2140    2.9520 c2        1 12N     -0.251000
      4 C32         1.4920   -1.8280    2.9690 c2        1 12N     -0.173200
      5 C33         3.1200    4.5180    1.5580 c1        1 12N     -0.177500
      6 C34         1.1660   -3.0250    2.1680 c3        1 12N     -0.086900
      7 C35         2.9060    4.0800    0.4660 c1        1 12N     -0.177500
      8 O36         1.6480   -0.5850   -0.2240 oh        1 12N     -0.367100
      9 C37         1.1300    0.6060   -0.1910 c2        1 12N      0.255900
     10 C40         0.9310    1.3370   -1.6100 c         1 12N      0.928600
     11 H37        -1.0670   -0.5270   -1.0240 hn        1 12N      0.354133
     12 H38        -0.3040    1.5600    1.0380 hc        1 12N      0.106700
     13 H39         0.2970   -2.8140    1.4940 hc        1 12N      0.051033
     14 H40         1.3710    2.2600    1.0960 hc        1 12N      0.106700
     15 H41         3.5200   -1.5660    2.3450 ha        1 12N      0.119500
     16 H42         2.8860   -0.3310    3.5700 ha        1 12N      0.119500
     17 H43         0.6710   -1.4590    3.6090 ha        1 12N      0.127000
     18 H44         2.7190    3.6940   -0.5140 ha        1 12N      0.177000
     19 H45         3.3140    4.9160    2.5220 ha        1 12N      0.177000
     20 H46         0.8810   -3.8700    2.8450 hc        1 12N      0.051033
     21 H47         2.0300   -3.3570    1.5410 hc        1 12N      0.051033
     22 H48         1.7170   -1.0070    0.6660 ho        1 12N      0.453000
     23 H49         1.0020    0.6860    1.9720 hc        1 12N      0.106700
     24 H2         -1.3620   -1.8370   -0.1010 hn        1 12N      0.354133
     25 OXT        -0.1050    0.9850   -2.1920 o         1 12N     -0.704800
     26 O38         1.8340    2.1520   -1.8480 o         1 12N     -0.704800
     27 H293       -2.0520   -0.4150    0.2670 hn        1 12N      0.354133
@<TRIPOS>BOND
     1    1   11 1   
     2    1   24 1   
     3    1   27 1   
     4    2    9 1   
     5    2   12 1   
     6    2   14 1   
     7    2   23 1   
     8    3    4 2   
     9    3   15 1   
    10    3   16 1   
    11    4    6 1   
    12    4   17 1   
    13    5    7 3   
    14    5   19 1   
    15    6   13 1   
    16    6   20 1   
    17    6   21 1   
    18    7   18 1   
    19    8    9 1   
    20    8   22 1   
    21    9   10 2   
    22   10   25 1   
    23   10   26 1   
@<TRIPOS>SUBSTRUCTURE
     1 12N         1 TEMP              0 ****  ****    0 ROOT
