@<TRIPOS>MOLECULE
12N
   26    26     1     0     0
SMALL
bcc


@<TRIPOS>ATOM
      1 N29        -1.9130   -0.2290   -1.1310 n3        1 12N     -0.902800
      2 C30        -0.4940   -0.3600   -1.0100 c3        1 12N      0.145500
      3 C31        -0.1090   -0.3050    0.4470 c3        1 12N     -0.059400
      4 C32         0.2520    1.0510    0.7970 cy        1 12N     -0.065700
      5 C33         1.6280    1.1550    1.4040 cy        1 12N     -0.093900
      6 C34        -0.3550    1.4960    2.0940 cy        1 12N     -0.093900
      7 C35         1.0200    1.5870    2.7060 cy        1 12N     -0.100400
      8 O36        -1.0420   -2.6580   -1.3440 oh        1 12N     -0.641800
      9 C37        -0.0570   -1.6760   -1.5980 c3        1 12N     -0.022900
     10 O38         1.2300   -1.0790   -3.5740 o         1 12N     -0.835300
     11 C40         0.1340   -1.5210   -3.1160 c         1 12N      0.889600
     12 H37        -2.1310   -0.0520   -2.0080 hn        1 12N      0.348300
     13 H38        -0.0580    0.3710   -1.4880 h1        1 12N      0.060700
     14 H39         0.6540   -0.8990    0.6060 hc        1 12N      0.038700
     15 H40        -0.8710   -0.5950    1.0000 hc        1 12N      0.038700
     16 H41         0.1130    1.6810    0.0880 hc        1 12N      0.070700
     17 H42         2.1740    1.8560    0.9890 hc        1 12N      0.043200
     18 H43         2.0850    0.2820    1.4670 hc        1 12N      0.043200
     19 H44        -0.9140    0.7970    2.5120 hc        1 12N      0.043200
     20 H45        -0.7970    2.3640    2.0250 hc        1 12N      0.043200
     21 H46         1.1600    0.9300    3.4310 hc        1 12N      0.033700
     22 H47         1.2640    2.4980    2.9520 hc        1 12N      0.033700
     23 H48        -0.7320   -3.4400   -1.5590 ho        1 12N      0.418000
     24 H49         0.7850   -1.9480   -1.1910 h1        1 12N      0.051700
     25 H2         -2.2020    0.4580   -0.6010 hn        1 12N      0.348300
     26 OXT        -0.8270   -1.7620   -3.9010 o         1 12N     -0.835300
@<TRIPOS>BOND
     1    1    2 1   
     2    1   12 1   
     3    1   25 1   
     4    2    3 1   
     5    2    9 1   
     6    2   13 1   
     7    3    4 1   
     8    3   14 1   
     9    3   15 1   
    10    4    5 1   
    11    4    6 1   
    12    4   16 1   
    13    5    7 1   
    14    5   17 1   
    15    5   18 1   
    16    6    7 1   
    17    6   19 1   
    18    6   20 1   
    19    7   21 1   
    20    7   22 1   
    21    8    9 1   
    22    8   23 1   
    23    9   11 1   
    24    9   24 1   
    25   10   11 1   
    26   11   26 1   
@<TRIPOS>SUBSTRUCTURE
     1 12N         1 TEMP              0 ****  ****    0 ROOT
