@<TRIPOS>MOLECULE
12O
   58    62     1     0     0
SMALL
bcc


@<TRIPOS>ATOM
      1 O33        -1.5290   -2.3020    0.7270 o         1 12O     -0.838800
      2 C31        -2.6660   -2.0470    0.2350 c         1 12O      0.915600
      3 O32        -3.1350   -2.5990   -0.7970 o         1 12O     -0.838800
      4 C26        -3.5380   -0.9840    0.9630 c3        1 12O     -0.183700
      5 C27        -4.9770   -1.4600    1.0030 c3        1 12O     -0.063400
      6 C28        -5.9230   -0.4160    1.5550 c3        1 12O     -0.076400
      7 C29        -5.8210    0.8750    0.7700 c3        1 12O     -0.067400
      8 C30        -4.4000    1.3940    0.7760 c3        1 12O     -0.075400
      9 C25        -3.4270    0.3560    0.2340 c3        1 12O     -0.101700
     10 C23        -2.0090    0.8900    0.4270 c         1 12O      0.674100
     11 O24        -1.5640    1.1490    1.5590 o         1 12O     -0.592100
     12 N14        -1.1900    1.0020   -0.7260 n         1 12O     -0.435800
     13 C15        -1.6490    1.8170   -1.8240 c3        1 12O      0.088000
     14 C16        -1.1840    3.2790   -1.7810 c3        1 12O     -0.069100
     15 C17         0.0890    3.5050   -1.0420 ca        1 12O     -0.072300
     16 C22         0.5850    4.8110   -0.9670 ca        1 12O     -0.141000
     17 C21         1.7420    5.0900   -0.2440 ca        1 12O     -0.142000
     18 C20         2.4020    4.0610    0.4240 ca        1 12O     -0.139000
     19 C19         1.9180    2.7550    0.3530 ca        1 12O     -0.111000
     20 C18         0.7750    2.4590   -0.3930 ca        1 12O     -0.075300
     21 C13         0.2620    1.0480   -0.5760 c3        1 12O      0.125000
     22 C12         0.7390    0.0310    0.4960 c3        1 12O      0.065000
     23 N8          2.0480   -0.5200    0.2330 n         1 12O     -0.495400
     24 C7          3.0420   -0.6400    1.2380 c         1 12O      0.721100
     25 O11         3.0680   -0.0200    2.3060 o         1 12O     -0.567000
     26 C2          4.0700   -1.6110    0.7320 ca        1 12O     -0.133600
     27 C9          2.3690   -1.3370   -0.8890 c         1 12O      0.721100
     28 O10         1.7540   -1.3930   -1.9540 o         1 12O     -0.567000
     29 C3          3.6570   -2.0420   -0.5590 ca        1 12O     -0.133600
     30 C4          4.3990   -2.9570   -1.2740 ca        1 12O     -0.072000
     31 C5          5.5800   -3.4480   -0.6860 ca        1 12O     -0.128500
     32 C6          5.9850   -3.0250    0.5740 ca        1 12O     -0.128500
     33 C1          5.2270   -2.0910    1.3060 ca        1 12O     -0.072000
     34 H2         -3.1470   -0.8600    2.0080 hc        1 12O      0.057700
     35 H3         -5.2870   -1.7490   -0.0380 hc        1 12O      0.050700
     36 H4         -5.0300   -2.3850    1.6330 hc        1 12O      0.050700
     37 H5         -6.9770   -0.7980    1.5140 hc        1 12O      0.022200
     38 H6         -5.6790   -0.2170    2.6320 hc        1 12O      0.022200
     39 H7         -6.1520    0.6950   -0.2870 hc        1 12O      0.024200
     40 H8         -6.5040    1.6470    1.2120 hc        1 12O      0.024200
     41 H9         -4.3370    2.3250    0.1540 hc        1 12O      0.034200
     42 H10        -4.1010    1.6630    1.8240 hc        1 12O      0.034200
     43 H11        -3.6500    0.1620   -0.8520 hc        1 12O      0.078700
     44 H12        -1.2650    1.3430   -2.7740 h1        1 12O      0.056200
     45 H13        -2.7740    1.7970   -1.8620 h1        1 12O      0.056200
     46 H14        -1.0730    3.6460   -2.8360 hc        1 12O      0.044700
     47 H15        -1.9830    3.9040   -1.2960 hc        1 12O      0.044700
     48 H16         0.0490    5.6230   -1.4800 ha        1 12O      0.117000
     49 H17         2.1250    6.1190   -0.1940 ha        1 12O      0.116000
     50 H18         3.3040    4.2760    1.0150 ha        1 12O      0.122000
     51 H19         2.4420    1.9660    0.9140 ha        1 12O      0.149000
     52 H20         0.6660    0.7010   -1.5840 h1        1 12O      0.083700
     53 H21         0.7610    0.5330    1.5050 h1        1 12O      0.128200
     54 H22        -0.0100   -0.8320    0.5430 h1        1 12O      0.128200
     55 H23         4.0760   -3.2980   -2.2690 ha        1 12O      0.153500
     56 H24         6.1850   -4.1830   -1.2370 ha        1 12O      0.130500
     57 H25         6.9100   -3.4250    1.0160 ha        1 12O      0.130500
     58 H26         5.5460   -1.7620    2.3060 ha        1 12O      0.153500
@<TRIPOS>BOND
     1    1    2 1   
     2    2    3 1   
     3    2    4 1   
     4    4    5 1   
     5    4    9 1   
     6    4   34 1   
     7    5    6 1   
     8    5   35 1   
     9    5   36 1   
    10    6    7 1   
    11    6   37 1   
    12    6   38 1   
    13    7    8 1   
    14    7   39 1   
    15    7   40 1   
    16    8    9 1   
    17    8   41 1   
    18    8   42 1   
    19    9   10 1   
    20    9   43 1   
    21   10   11 2   
    22   10   12 1   
    23   12   13 1   
    24   12   21 1   
    25   13   14 1   
    26   13   44 1   
    27   13   45 1   
    28   14   15 1   
    29   14   46 1   
    30   14   47 1   
    31   15   16 ar  
    32   15   20 ar  
    33   16   17 ar  
    34   16   48 1   
    35   17   18 ar  
    36   17   49 1   
    37   18   19 ar  
    38   18   50 1   
    39   19   20 ar  
    40   19   51 1   
    41   20   21 1   
    42   21   22 1   
    43   21   52 1   
    44   22   23 1   
    45   22   53 1   
    46   22   54 1   
    47   23   24 1   
    48   23   27 1   
    49   24   25 2   
    50   24   26 1   
    51   26   29 ar  
    52   26   33 ar  
    53   27   28 2   
    54   27   29 1   
    55   29   30 ar  
    56   30   31 ar  
    57   30   55 1   
    58   31   32 ar  
    59   31   56 1   
    60   32   33 ar  
    61   32   57 1   
    62   33   58 1   
@<TRIPOS>SUBSTRUCTURE
     1 12O         1 TEMP              0 ****  ****    0 ROOT
