@<TRIPOS>MOLECULE
12O
   58    52     1     0     0
SMALL
bcc


@<TRIPOS>ATOM
      1 O33         0.1110   -3.7400    2.5580 o         1 12O     -0.576500
      2 C31         0.7770   -3.8870    1.4690 c1        1 12O      0.323000
      3 O32         2.0280   -3.8100    1.4850 o         1 12O     -0.576500
      4 C26         0.0590   -4.0820    0.1770 c2        1 12O     -0.169000
      5 C27         0.4060   -5.4610   -0.4680 c3        1 12O     -0.142000
      6 C28        -0.2250   -5.6670   -1.8010 c3        1 12O     -0.155000
      7 C29         0.0320   -4.5860   -2.7430 c3        1 12O     -0.148000
      8 C30        -0.2910   -3.2230   -2.2060 c3        1 12O     -0.153000
      9 C25         0.3830   -2.9180   -0.8520 c3        1 12O     -0.086000
     10 C23        -0.0080   -1.5540   -0.2950 c1        1 12O      0.320000
     11 O24        -1.1980   -1.3090   -0.0260 o         1 12O     -0.413000
     12 N14         0.9940   -0.4910   -0.2270 n2        1 12O     -0.321000
     13 C15         2.3430   -0.7560   -0.5350 c3        1 12O     -0.047000
     14 C16         2.9650    0.1000   -1.5260 c3        1 12O     -0.135000
     15 C17         2.5510    1.6030   -1.4940 c2        1 12O     -0.043000
     16 C22         3.2200    2.5820   -2.2260 c2        1 12O     -0.129000
     17 C21         2.8300    3.9160   -2.1280 c1        1 12O     -0.134000
     18 C20         1.7550    4.2770   -1.2840 c1        1 12O     -0.130000
     19 C19         1.0730    3.2850   -0.5390 c1        1 12O     -0.130000
     20 C18         1.4580    1.9690   -0.6360 c1        1 12O     -0.070000
     21 C13         0.6570    0.7620    0.1220 c2        1 12O      0.052000
     22 C12        -0.8660    0.9470   -0.1570 c3        1 12O     -0.032000
     23 N8         -1.4370    1.8670    0.8370 n3        1 12O     -0.330000
     24 C7         -1.4410    1.6700    2.2560 c1        1 12O      0.357000
     25 O11        -1.0070    0.6870    2.8480 o         1 12O     -0.290000
     26 C2         -2.2050    2.8440    2.8960 c1        1 12O     -0.114500
     27 C9         -2.1560    3.0930    0.5540 c1        1 12O      0.357000
     28 O10        -2.3690    3.5570   -0.5420 o         1 12O     -0.290000
     29 C3         -2.6210    3.6850    1.8830 c1        1 12O     -0.114500
     30 C4         -3.4390    4.7910    2.1810 c1        1 12O     -0.070000
     31 C5         -3.8230    5.0350    3.4850 c1        1 12O     -0.130000
     32 C6         -3.4050    4.1900    4.5040 c1        1 12O     -0.130000
     33 C1         -2.5970    3.0950    4.2150 c1        1 12O     -0.070000
     34 H2         -0.8990   -4.0480    0.4800 ha        1 12O      0.094000
     35 H3          0.1090   -6.1610    0.1220 hc        1 12O      0.087500
     36 H4          1.4170   -5.5290   -0.5720 hc        1 12O      0.087500
     37 H5          0.1180   -6.4950   -2.1790 hc        1 12O      0.061500
     38 H6         -1.2060   -5.7540   -1.6780 hc        1 12O      0.061500
     39 H7          0.9880   -4.6070   -2.9890 hc        1 12O      0.064000
     40 H8         -0.4910   -4.7360   -3.5310 hc        1 12O      0.064000
     41 H9         -1.2920   -3.1520   -2.0900 hc        1 12O      0.080500
     42 H10        -0.0030   -2.5510   -2.8610 hc        1 12O      0.080500
     43 H11         1.3620   -2.8000   -0.9680 hc        1 12O      0.121000
     44 H12         2.3920   -1.6880   -0.8760 h1        1 12O      0.140000
     45 H13         2.8720   -0.6650    0.3200 h1        1 12O      0.140000
     46 H14         2.7200   -0.2580   -2.4290 hc        1 12O      0.095000
     47 H15         3.9520    0.0550   -1.3860 hc        1 12O      0.095000
     48 H16         3.9320    2.3420   -2.7850 ha        1 12O      0.127000
     49 H17         3.3370    4.6020   -2.5840 ha        1 12O      0.117000
     50 H18         1.4570    5.1770   -1.2570 ha        1 12O      0.130250
     51 H19         0.3280    3.5350    0.0460 ha        1 12O      0.130250
     52 H20         0.8030    0.8570    1.0770 h4        1 12O      0.137000
     53 H21        -0.9900    1.3190   -1.0580 h1        1 12O      0.118000
     54 H22        -1.3140    0.0860   -0.0960 h1        1 12O      0.118000
     55 H23        -3.7430    5.4060    1.4450 ha        1 12O      0.155000
     56 H24        -4.3740    5.7810    3.6840 ha        1 12O      0.130250
     57 H25        -3.7320    4.3300    5.4220 ha        1 12O      0.130250
     58 H26        -2.2940    2.4850    4.9540 ha        1 12O      0.155000
@<TRIPOS>BOND
     1    1    2 1   
     2    2    3 1   
     3    4    5 1   
     4    4    9 1   
     5    4   34 1   
     6    5    6 1   
     7    5   35 1   
     8    5   36 1   
     9    6    7 1   
    10    6   37 1   
    11    6   38 1   
    12    7    8 1   
    13    7   39 1   
    14    7   40 1   
    15    8    9 1   
    16    8   41 1   
    17    8   42 1   
    18    9   10 1   
    19    9   43 1   
    20   10   11 1   
    21   12   13 1   
    22   12   21 1   
    23   13   14 1   
    24   13   44 1   
    25   13   45 1   
    26   14   15 1   
    27   14   46 1   
    28   14   47 1   
    29   15   16 1   
    30   15   20 1   
    31   16   17 1   
    32   16   48 1   
    33   17   49 1   
    34   18   19 1   
    35   18   50 1   
    36   19   51 1   
    37   21   22 1   
    38   21   52 1   
    39   22   23 1   
    40   22   53 1   
    41   22   54 1   
    42   23   24 1   
    43   23   27 1   
    44   24   25 1   
    45   26   33 1   
    46   27   28 1   
    47   29   30 1   
    48   30   55 1   
    49   31   32 1   
    50   31   56 1   
    51   32   57 1   
    52   33   58 1   
@<TRIPOS>SUBSTRUCTURE
     1 12O         1 TEMP              0 ****  ****    0 ROOT
