@<TRIPOS>MOLECULE
12O
   58    62     1     0     0
SMALL
bcc


@<TRIPOS>ATOM
      1 O33         0.8410    2.7590   -0.7830 o         1 12O     -0.838800
      2 C31         1.2870    1.5920   -0.5890 c         1 12O      0.915600
      3 O32         1.1500    0.9470    0.4860 o         1 12O     -0.838800
      4 C26         2.0500    0.9130   -1.7630 c3        1 12O     -0.183700
      5 C27         1.6330   -0.5420   -1.8550 c3        1 12O     -0.063400
      6 C28         2.4420   -1.3180   -2.8720 c3        1 12O     -0.076400
      7 C29         3.9230   -1.2160   -2.5750 c3        1 12O     -0.067400
      8 C30         4.3640    0.2310   -2.5430 c3        1 12O     -0.075400
      9 C25         3.5570    1.0360   -1.5340 c3        1 12O     -0.101700
     10 C23         3.9460    2.5050   -1.6810 c         1 12O      0.674100
     11 O24         3.7740    3.1160   -2.7500 o         1 12O     -0.592100
     12 N14         4.4350    3.1710   -0.5270 n         1 12O     -0.435800
     13 C15         5.5990    2.6380    0.1380 c3        1 12O      0.088000
     14 C16         6.9370    3.2220   -0.3380 c3        1 12O     -0.069100
     15 C17         6.8480    4.5970   -0.9050 ca        1 12O     -0.072300
     16 C22         8.0280    5.2030   -1.3510 ca        1 12O     -0.141000
     17 C21         7.9980    6.4650   -1.9390 ca        1 12O     -0.142000
     18 C20         6.7800    7.1220   -2.1000 ca        1 12O     -0.139000
     19 C19         5.5990    6.5270   -1.6570 ca        1 12O     -0.111000
     20 C18         5.6200    5.2750   -1.0390 ca        1 12O     -0.075300
     21 C13         4.3810    4.6290   -0.4590 c3        1 12O      0.125000
     22 C12         3.0370    5.1590   -1.0270 c3        1 12O      0.065000
     23 N8          2.5760    6.3720   -0.3930 n         1 12O     -0.495400
     24 C7          2.0780    7.4770   -1.1300 c         1 12O      0.721100
     25 O11         2.2790    7.6960   -2.3290 o         1 12O     -0.567000
     26 C2          1.3180    8.3450   -0.1680 ca        1 12O     -0.133600
     27 C9          2.1990    6.4730    0.9780 c         1 12O      0.721100
     28 O10         2.5420    5.7190    1.8890 o         1 12O     -0.567000
     29 C3          1.3840    7.7310    1.1120 ca        1 12O     -0.133600
     30 C4          0.7590    8.2930    2.2040 ca        1 12O     -0.071500
     31 C5          0.0560    9.4970    2.0100 ca        1 12O     -0.128500
     32 C6         -0.0060   10.0990    0.7590 ca        1 12O     -0.128500
     33 C1          0.6300    9.5250   -0.3570 ca        1 12O     -0.071500
     34 H2          1.7840    1.4480   -2.7140 hc        1 12O      0.057700
     35 H3          0.5470   -0.5860   -2.1270 hc        1 12O      0.050700
     36 H4          1.7400   -1.0090   -0.8390 hc        1 12O      0.050700
     37 H5          2.1310   -2.3950   -2.8620 hc        1 12O      0.022200
     38 H6          2.2400   -0.9180   -3.9000 hc        1 12O      0.022200
     39 H7          4.5100   -1.7690   -3.3550 hc        1 12O      0.024200
     40 H8          4.1390   -1.6970   -1.5850 hc        1 12O      0.024200
     41 H9          5.4530    0.2870   -2.2800 hc        1 12O      0.034200
     42 H10         4.2360    0.6870   -3.5610 hc        1 12O      0.034200
     43 H11         3.7660    0.6560   -0.4950 hc        1 12O      0.078700
     44 H12         5.4820    2.8530    1.2390 h1        1 12O      0.056200
     45 H13         5.6270    1.5200    0.0070 h1        1 12O      0.056200
     46 H14         7.3720    2.5490   -1.1270 hc        1 12O      0.044700
     47 H15         7.6510    3.2210    0.5280 hc        1 12O      0.044700
     48 H16         8.9840    4.6710   -1.2390 ha        1 12O      0.117000
     49 H17         8.9300    6.9340   -2.2830 ha        1 12O      0.116000
     50 H18         6.7450    8.1090   -2.5830 ha        1 12O      0.122000
     51 H19         4.6470    7.0550   -1.8220 ha        1 12O      0.149000
     52 H20         4.4020    4.8660    0.6550 h1        1 12O      0.083700
     53 H21         3.1490    5.3560   -2.1320 h1        1 12O      0.128200
     54 H22         2.2360    4.3550   -0.8870 h1        1 12O      0.128200
     55 H23         0.8020    7.8140    3.1930 ha        1 12O      0.153500
     56 H24        -0.4560    9.9600    2.8670 ha        1 12O      0.130500
     57 H25        -0.5650   11.0380    0.6310 ha        1 12O      0.130500
     58 H26         0.5750    9.9990   -1.3470 ha        1 12O      0.153500
@<TRIPOS>BOND
     1    1    2 1   
     2    2    3 1   
     3    2    4 1   
     4    4    5 1   
     5    4    9 1   
     6    4   34 1   
     7    5    6 1   
     8    5   35 1   
     9    5   36 1   
    10    6    7 1   
    11    6   37 1   
    12    6   38 1   
    13    7    8 1   
    14    7   39 1   
    15    7   40 1   
    16    8    9 1   
    17    8   41 1   
    18    8   42 1   
    19    9   10 1   
    20    9   43 1   
    21   10   11 2   
    22   10   12 1   
    23   12   13 1   
    24   12   21 1   
    25   13   14 1   
    26   13   44 1   
    27   13   45 1   
    28   14   15 1   
    29   14   46 1   
    30   14   47 1   
    31   15   16 ar  
    32   15   20 ar  
    33   16   17 ar  
    34   16   48 1   
    35   17   18 ar  
    36   17   49 1   
    37   18   19 ar  
    38   18   50 1   
    39   19   20 ar  
    40   19   51 1   
    41   20   21 1   
    42   21   22 1   
    43   21   52 1   
    44   22   23 1   
    45   22   53 1   
    46   22   54 1   
    47   23   24 1   
    48   23   27 1   
    49   24   25 2   
    50   24   26 1   
    51   26   29 ar  
    52   26   33 ar  
    53   27   28 2   
    54   27   29 1   
    55   29   30 ar  
    56   30   31 ar  
    57   30   55 1   
    58   31   32 ar  
    59   31   56 1   
    60   32   33 ar  
    61   32   57 1   
    62   33   58 1   
@<TRIPOS>SUBSTRUCTURE
     1 12O         1 TEMP              0 ****  ****    0 ROOT
