@<TRIPOS>MOLECULE
12O
   58    62     1     0     0
SMALL
bcc


@<TRIPOS>ATOM
      1 O33         0.8650    2.7250   -0.6640 o         1 12O     -0.838800
      2 C31         1.3340    1.5680   -0.4590 c         1 12O      0.915600
      3 O32         1.2410    0.9460    0.6350 o         1 12O     -0.838800
      4 C26         2.0670    0.8740   -1.6410 c3        1 12O     -0.183700
      5 C27         1.6690   -0.5890   -1.6870 c3        1 12O     -0.063400
      6 C28         2.4560   -1.3770   -2.7120 c3        1 12O     -0.076400
      7 C29         3.9440   -1.2480   -2.4660 c3        1 12O     -0.067400
      8 C30         4.3650    0.2050   -2.4810 c3        1 12O     -0.075400
      9 C25         3.5790    1.0220   -1.4650 c3        1 12O     -0.101700
     10 C23         3.9430    2.4930   -1.6570 c         1 12O      0.674100
     11 O24         3.7280    3.0760   -2.7340 o         1 12O     -0.592100
     12 N14         4.4580    3.1910   -0.5350 n         1 12O     -0.435800
     13 C15         5.6500    2.6900    0.1040 c3        1 12O      0.088000
     14 C16         6.9640    3.2810   -0.4250 c3        1 12O     -0.069100
     15 C17         6.8380    4.6400   -1.0210 ca        1 12O     -0.072300
     16 C22         7.9940    5.2520   -1.5180 ca        1 12O     -0.141000
     17 C21         7.9280    6.4980   -2.1350 ca        1 12O     -0.142000
     18 C20         6.6970    7.1350   -2.2720 ca        1 12O     -0.139000
     19 C19         5.5380    6.5350   -1.7790 ca        1 12O     -0.111000
     20 C18         5.5970    5.2980   -1.1320 ca        1 12O     -0.075300
     21 C13         4.3860    4.6490   -0.4990 c3        1 12O      0.125000
     22 C12         3.0170    5.1480   -1.0350 c3        1 12O      0.065000
     23 N8          2.5610    6.3700   -0.4140 n         1 12O     -0.495400
     24 C7          2.0240    7.4510   -1.1610 c         1 12O      0.721100
     25 O11         2.1830    7.6440   -2.3700 o         1 12O     -0.567000
     26 C2          1.2840    8.3330   -0.1950 ca        1 12O     -0.133600
     27 C9          2.2270    6.4990    0.9650 c         1 12O      0.721100
     28 O10         2.6090    5.7720    1.8820 o         1 12O     -0.567000
     29 C3          1.4000    7.7500    1.0970 ca        1 12O     -0.133600
     30 C4          0.8040    8.3310    2.1950 ca        1 12O     -0.072000
     31 C5          0.0800    9.5210    1.9960 ca        1 12O     -0.128500
     32 C6         -0.0310   10.0920    0.7340 ca        1 12O     -0.128500
     33 C1          0.5760    9.4990   -0.3890 ca        1 12O     -0.072000
     34 H2          1.7640    1.3830   -2.5950 hc        1 12O      0.057700
     35 H3          0.5750   -0.6540   -1.9230 hc        1 12O      0.050700
     36 H4          1.8160   -1.0310   -0.6650 hc        1 12O      0.050700
     37 H5          2.2150   -1.0030   -3.7420 hc        1 12O      0.022200
     38 H6          2.1600   -2.4580   -2.6690 hc        1 12O      0.022200
     39 H7          4.1990   -1.7040   -1.4730 hc        1 12O      0.024200
     40 H8          4.5130   -1.8110   -3.2520 hc        1 12O      0.024200
     41 H9          4.1980    0.6360   -3.5040 hc        1 12O      0.034200
     42 H10         5.4610    0.2820   -2.2550 hc        1 12O      0.034200
     43 H11         3.8270    0.6690   -0.4250 hc        1 12O      0.078700
     44 H12         5.5640    2.9280    1.2040 h1        1 12O      0.056200
     45 H13         5.6900    1.5700   -0.0010 h1        1 12O      0.056200
     46 H14         7.7040    3.3110    0.4180 hc        1 12O      0.044700
     47 H15         7.3850    2.5950   -1.2110 hc        1 12O      0.044700
     48 H16         8.9610    4.7360   -1.4250 ha        1 12O      0.117000
     49 H17         8.8420    6.9720   -2.5190 ha        1 12O      0.116000
     50 H18         6.6320    8.1090   -2.7780 ha        1 12O      0.122000
     51 H19         4.5740    7.0460   -1.9260 ha        1 12O      0.149000
     52 H20         4.4390    4.9130    0.6090 h1        1 12O      0.083700
     53 H21         3.0910    5.3200   -2.1470 h1        1 12O      0.128200
     54 H22         2.2330    4.3380   -0.8500 h1        1 12O      0.128200
     55 H23         0.8860    7.8760    3.1930 ha        1 12O      0.153500
     56 H24        -0.4090    9.9990    2.8580 ha        1 12O      0.130500
     57 H25        -0.6050   11.0210    0.6020 ha        1 12O      0.130500
     58 H26         0.4820    9.9490   -1.3880 ha        1 12O      0.153500
@<TRIPOS>BOND
     1    1    2 1   
     2    2    3 1   
     3    2    4 1   
     4    4    5 1   
     5    4    9 1   
     6    4   34 1   
     7    5    6 1   
     8    5   35 1   
     9    5   36 1   
    10    6    7 1   
    11    6   37 1   
    12    6   38 1   
    13    7    8 1   
    14    7   39 1   
    15    7   40 1   
    16    8    9 1   
    17    8   41 1   
    18    8   42 1   
    19    9   10 1   
    20    9   43 1   
    21   10   11 2   
    22   10   12 1   
    23   12   13 1   
    24   12   21 1   
    25   13   14 1   
    26   13   44 1   
    27   13   45 1   
    28   14   15 1   
    29   14   46 1   
    30   14   47 1   
    31   15   16 ar  
    32   15   20 ar  
    33   16   17 ar  
    34   16   48 1   
    35   17   18 ar  
    36   17   49 1   
    37   18   19 ar  
    38   18   50 1   
    39   19   20 ar  
    40   19   51 1   
    41   20   21 1   
    42   21   22 1   
    43   21   52 1   
    44   22   23 1   
    45   22   53 1   
    46   22   54 1   
    47   23   24 1   
    48   23   27 1   
    49   24   25 2   
    50   24   26 1   
    51   26   29 ar  
    52   26   33 ar  
    53   27   28 2   
    54   27   29 1   
    55   29   30 ar  
    56   30   31 ar  
    57   30   55 1   
    58   31   32 ar  
    59   31   56 1   
    60   32   33 ar  
    61   32   57 1   
    62   33   58 1   
@<TRIPOS>SUBSTRUCTURE
     1 12O         1 TEMP              0 ****  ****    0 ROOT
