@<TRIPOS>MOLECULE
12O
   58    62     1     0     0
SMALL
bcc


@<TRIPOS>ATOM
      1 O33         0.8630    2.7280   -0.6700 o         1 12O     -0.838800
      2 C31         1.3310    1.5700   -0.4690 c         1 12O      0.915600
      3 O32         1.2370    0.9440    0.6210 o         1 12O     -0.838800
      4 C26         2.0660    0.8810   -1.6550 c3        1 12O     -0.183700
      5 C27         1.6670   -0.5820   -1.7070 c3        1 12O     -0.063400
      6 C28         2.4540   -1.3660   -2.7350 c3        1 12O     -0.076400
      7 C29         3.9430   -1.2380   -2.4870 c3        1 12O     -0.067400
      8 C30         4.3640    0.2150   -2.4950 c3        1 12O     -0.075400
      9 C25         3.5780    1.0280   -1.4750 c3        1 12O     -0.101700
     10 C23         3.9420    2.4990   -1.6610 c         1 12O      0.674100
     11 O24         3.7280    3.0870   -2.7350 o         1 12O     -0.592100
     12 N14         4.4570    3.1920   -0.5350 n         1 12O     -0.435800
     13 C15         5.6480    2.6880    0.1030 c3        1 12O      0.088000
     14 C16         6.9620    3.2810   -0.4240 c3        1 12O     -0.069100
     15 C17         6.8370    4.6430   -1.0130 ca        1 12O     -0.072300
     16 C22         7.9940    5.2560   -1.5070 ca        1 12O     -0.141000
     17 C21         7.9290    6.5060   -2.1170 ca        1 12O     -0.142000
     18 C20         6.6980    7.1440   -2.2520 ca        1 12O     -0.139000
     19 C19         5.5390    6.5420   -1.7620 ca        1 12O     -0.111000
     20 C18         5.5960    5.3020   -1.1220 ca        1 12O     -0.075300
     21 C13         4.3850    4.6500   -0.4920 c3        1 12O      0.125000
     22 C12         3.0160    5.1520   -1.0280 c3        1 12O      0.065000
     23 N8          2.5590    6.3710   -0.4020 n         1 12O     -0.495400
     24 C7          2.0230    7.4550   -1.1430 c         1 12O      0.721100
     25 O11         2.1840    7.6540   -2.3520 o         1 12O     -0.567000
     26 C2          1.2830    8.3320   -0.1740 ca        1 12O     -0.133600
     27 C9          2.2240    6.4930    0.9780 c         1 12O      0.721100
     28 O10         2.6050    5.7610    1.8910 o         1 12O     -0.567000
     29 C3          1.3970    7.7430    1.1150 ca        1 12O     -0.133600
     30 C4          0.8000    8.3180    2.2160 ca        1 12O     -0.072000
     31 C5          0.0750    9.5090    2.0210 ca        1 12O     -0.128500
     32 C6         -0.0340   10.0870    0.7620 ca        1 12O     -0.128500
     33 C1          0.5740    9.4990   -0.3630 ca        1 12O     -0.072000
     34 H2          1.7630    1.3940   -2.6060 hc        1 12O      0.057700
     35 H3          0.5730   -0.6450   -1.9440 hc        1 12O      0.050700
     36 H4          1.8120   -1.0280   -0.6870 hc        1 12O      0.050700
     37 H5          2.1590   -2.4460   -2.6960 hc        1 12O      0.022200
     38 H6          2.2150   -0.9870   -3.7630 hc        1 12O      0.022200
     39 H7          4.5120   -1.7970   -3.2750 hc        1 12O      0.024200
     40 H8          4.1960   -1.6980   -1.4960 hc        1 12O      0.024200
     41 H9          5.4600    0.2900   -2.2670 hc        1 12O      0.034200
     42 H10         4.1980    0.6500   -3.5160 hc        1 12O      0.034200
     43 H11         3.8240    0.6700   -0.4370 hc        1 12O      0.078700
     44 H12         5.5620    2.9210    1.2030 h1        1 12O      0.056200
     45 H13         5.6870    1.5680   -0.0080 h1        1 12O      0.056200
     46 H14         7.3830    2.5990   -1.2130 hc        1 12O      0.044700
     47 H15         7.7020    3.3050    0.4200 hc        1 12O      0.044700
     48 H16         8.9600    4.7390   -1.4150 ha        1 12O      0.117000
     49 H17         8.8430    6.9810   -2.4990 ha        1 12O      0.116000
     50 H18         6.6340    8.1200   -2.7530 ha        1 12O      0.122000
     51 H19         4.5740    7.0540   -1.9080 ha        1 12O      0.149000
     52 H20         4.4370    4.9090    0.6170 h1        1 12O      0.083700
     53 H21         3.0910    5.3290   -2.1390 h1        1 12O      0.128200
     54 H22         2.2320    4.3410   -0.8480 h1        1 12O      0.128200
     55 H23         0.8800    7.8590    3.2120 ha        1 12O      0.153500
     56 H24        -0.4150    9.9830    2.8850 ha        1 12O      0.130500
     57 H25        -0.6090   11.0160    0.6340 ha        1 12O      0.130500
     58 H26         0.4810    9.9540   -1.3590 ha        1 12O      0.153500
@<TRIPOS>BOND
     1    1    2 1   
     2    2    3 1   
     3    2    4 1   
     4    4    5 1   
     5    4    9 1   
     6    4   34 1   
     7    5    6 1   
     8    5   35 1   
     9    5   36 1   
    10    6    7 1   
    11    6   37 1   
    12    6   38 1   
    13    7    8 1   
    14    7   39 1   
    15    7   40 1   
    16    8    9 1   
    17    8   41 1   
    18    8   42 1   
    19    9   10 1   
    20    9   43 1   
    21   10   11 2   
    22   10   12 1   
    23   12   13 1   
    24   12   21 1   
    25   13   14 1   
    26   13   44 1   
    27   13   45 1   
    28   14   15 1   
    29   14   46 1   
    30   14   47 1   
    31   15   16 ar  
    32   15   20 ar  
    33   16   17 ar  
    34   16   48 1   
    35   17   18 ar  
    36   17   49 1   
    37   18   19 ar  
    38   18   50 1   
    39   19   20 ar  
    40   19   51 1   
    41   20   21 1   
    42   21   22 1   
    43   21   52 1   
    44   22   23 1   
    45   22   53 1   
    46   22   54 1   
    47   23   24 1   
    48   23   27 1   
    49   24   25 2   
    50   24   26 1   
    51   26   29 ar  
    52   26   33 ar  
    53   27   28 2   
    54   27   29 1   
    55   29   30 ar  
    56   30   31 ar  
    57   30   55 1   
    58   31   32 ar  
    59   31   56 1   
    60   32   33 ar  
    61   32   57 1   
    62   33   58 1   
@<TRIPOS>SUBSTRUCTURE
     1 12O         1 TEMP              0 ****  ****    0 ROOT
