@<TRIPOS>MOLECULE
12P
   87    86     1     0     0
SMALL
bcc


@<TRIPOS>ATOM
      1 O37        -1.2740    2.9260   -1.3120 oh        1 12P     -0.599800
      2 C36        -1.2640    2.9610    0.0990 c3        1 12P      0.131400
      3 C35        -1.5780    1.5930    0.6970 c3        1 12P      0.087400
      4 O34        -0.4860    0.7470    0.3440 os        1 12P     -0.438600
      5 C33        -0.6710   -0.5940    0.7960 c3        1 12P      0.128400
      6 C32         0.6380   -1.3280    0.5230 c3        1 12P      0.127400
      7 O31         1.2680   -1.5170    1.7880 os        1 12P     -0.428600
      8 C30         2.5820   -2.0570    1.6620 c3        1 12P      0.127400
      9 C29         3.0550   -2.3800    3.0750 c3        1 12P      0.127400
     10 O28         3.0140   -3.7990    3.2010 os        1 12P     -0.429600
     11 C27         3.2890   -4.2310    4.5320 c3        1 12P      0.127400
     12 C26         3.3950   -5.7520    4.4810 c3        1 12P      0.127400
     13 O25         4.7790   -6.0660    4.6190 os        1 12P     -0.429600
     14 C24         5.0400   -7.4550    4.4220 c3        1 12P      0.127400
     15 C23         6.5090   -7.6730    4.7690 c3        1 12P      0.127400
     16 O22         6.5310   -8.3760    6.0100 os        1 12P     -0.429600
     17 C21         7.8520   -8.5060    6.5320 c3        1 12P      0.127400
     18 C20         7.7500   -9.4280    7.7430 c3        1 12P      0.127400
     19 O19         8.3210  -10.6750    7.3510 os        1 12P     -0.429600
     20 C18         8.1490  -11.6830    8.3450 c3        1 12P      0.127400
     21 C17         8.9490  -12.8940    7.8760 c3        1 12P      0.127400
     22 O16        10.1010  -12.9670    8.7140 os        1 12P     -0.429600
     23 C15        11.0260  -13.9590    8.2730 c3        1 12P      0.127400
     24 C14        12.1070  -14.0490    9.3450 c3        1 12P      0.127400
     25 O13        11.9020  -15.2860   10.0240 os        1 12P     -0.429600
     26 C12        12.7520  -15.4260   11.1600 c3        1 12P      0.127400
     27 C11        12.5600  -16.8500   11.6720 c3        1 12P      0.127400
     28 O10        13.7380  -17.5710   11.3170 os        1 12P     -0.429600
     29 C9         13.6210  -18.9650   11.5910 c3        1 12P      0.127400
     30 C8         14.9930  -19.5750   11.3270 c3        1 12P      0.127400
     31 O7         15.5570  -19.8720   12.6030 os        1 12P     -0.428600
     32 C6         16.9160  -20.2940   12.5080 c3        1 12P      0.127400
     33 C5         17.3300  -20.7370   13.9070 c3        1 12P      0.128400
     34 O4         17.4070  -22.1610   13.8760 os        1 12P     -0.438600
     35 C3         17.6170  -22.7220   15.1700 c3        1 12P      0.087400
     36 C2         17.7370  -24.2290   14.9630 c3        1 12P      0.131400
     37 O1         18.8970  -24.5640   14.2310 oh        1 12P     -0.599800
     38 H37        -0.6350    2.2540   -1.5810 ho        1 12P      0.412000
     39 H361       -2.0680    3.6920    0.3800 h1        1 12P      0.053700
     40 H362       -0.2690    3.3220    0.4700 h1        1 12P      0.053700
     41 H351       -2.5300    1.1800    0.2700 h1        1 12P      0.039200
     42 H352       -1.6630    1.6600    1.8130 h1        1 12P      0.039200
     43 H331       -0.9120   -0.6050    1.8920 h1        1 12P      0.045200
     44 H332       -1.5110   -1.0630    0.2190 h1        1 12P      0.045200
     45 H321        1.3000   -0.7260   -0.1550 h1        1 12P      0.043200
     46 H322        0.4350   -2.3290    0.0590 h1        1 12P      0.043200
     47 H301        2.5630   -2.9820    1.0270 h1        1 12P      0.044200
     48 H302        3.2510   -1.2890    1.1910 h1        1 12P      0.044200
     49 H291        2.3850   -1.9020    3.8390 h1        1 12P      0.043700
     50 H292        4.1090   -2.0260    3.2240 h1        1 12P      0.043700
     51 H271        4.2480   -3.7770    4.8990 h1        1 12P      0.043700
     52 H272        2.4440   -3.9200    5.2020 h1        1 12P      0.043700
     53 H261        2.8270   -6.2120    5.3320 h1        1 12P      0.043200
     54 H262        3.0020   -6.1460    3.5070 h1        1 12P      0.043200
     55 H241        4.3770   -8.0720    5.0840 h1        1 12P      0.043700
     56 H242        4.8480   -7.7160    3.3480 h1        1 12P      0.043700
     57 H231        7.0450   -6.6920    4.8680 h1        1 12P      0.043700
     58 H232        7.0080   -8.2980    3.9820 h1        1 12P      0.043700
     59 H211        8.2260   -7.4940    6.8410 h1        1 12P      0.043700
     60 H212        8.5360   -8.9410    5.7560 h1        1 12P      0.043700
     61 H201        6.6790   -9.5690    8.0470 h1        1 12P      0.043200
     62 H202        8.3360   -9.0090    8.6030 h1        1 12P      0.043200
     63 H181        7.0590  -11.9400    8.4230 h1        1 12P      0.043200
     64 H182        8.5230  -11.3180    9.3380 h1        1 12P      0.043200
     65 H171        8.3460  -13.8320    7.9980 h1        1 12P      0.043700
     66 H172        9.2550  -12.7780    6.8030 h1        1 12P      0.043700
     67 H151       11.4710  -13.6380    7.2940 h1        1 12P      0.043700
     68 H152       10.5070  -14.9460    8.1460 h1        1 12P      0.043700
     69 H141       12.0270  -13.1920   10.0650 h1        1 12P      0.043700
     70 H142       13.1260  -14.0520    8.8740 h1        1 12P      0.043700
     71 H121       12.4450  -14.6840   11.9430 h1        1 12P      0.043200
     72 H122       13.8220  -15.2480   10.8700 h1        1 12P      0.043200
     73 H111       12.4500  -16.8520   12.7890 h1        1 12P      0.043700
     74 H112       11.6580  -17.3240   11.2030 h1        1 12P      0.043700
     75 H91        12.8560  -19.4130   10.9030 h1        1 12P      0.043700
     76 H92        13.3110  -19.1270   12.6570 h1        1 12P      0.043700
     77 H81        14.8930  -20.5260   10.7400 h1        1 12P      0.044200
     78 H82        15.6490  -18.8550   10.7700 h1        1 12P      0.044200
     79 H61        17.0100  -21.1400   11.7770 h1        1 12P      0.043200
     80 H62        17.5470  -19.4300   12.1690 h1        1 12P      0.043200
     81 H51        16.5750  -20.4060   14.6690 h1        1 12P      0.045200
     82 H52        18.3380  -20.3210   14.1680 h1        1 12P      0.045200
     83 H31        16.7470  -22.4830   15.8350 h1        1 12P      0.039200
     84 H32        18.5590  -22.3050   15.6140 h1        1 12P      0.039200
     85 H21        16.8240  -24.6180   14.4400 h1        1 12P      0.053700
     86 H22        17.8600  -24.7390   15.9550 h1        1 12P      0.053700
     87 HO1        18.8490  -24.0830   13.3940 ho        1 12P      0.412000
@<TRIPOS>BOND
     1    1    2 1   
     2    1   38 1   
     3    2    3 1   
     4    2   39 1   
     5    2   40 1   
     6    3    4 1   
     7    3   41 1   
     8    3   42 1   
     9    4    5 1   
    10    5    6 1   
    11    5   43 1   
    12    5   44 1   
    13    6    7 1   
    14    6   45 1   
    15    6   46 1   
    16    7    8 1   
    17    8    9 1   
    18    8   47 1   
    19    8   48 1   
    20    9   10 1   
    21    9   49 1   
    22    9   50 1   
    23   10   11 1   
    24   11   12 1   
    25   11   51 1   
    26   11   52 1   
    27   12   13 1   
    28   12   53 1   
    29   12   54 1   
    30   13   14 1   
    31   14   15 1   
    32   14   55 1   
    33   14   56 1   
    34   15   16 1   
    35   15   57 1   
    36   15   58 1   
    37   16   17 1   
    38   17   18 1   
    39   17   59 1   
    40   17   60 1   
    41   18   19 1   
    42   18   61 1   
    43   18   62 1   
    44   19   20 1   
    45   20   21 1   
    46   20   63 1   
    47   20   64 1   
    48   21   22 1   
    49   21   65 1   
    50   21   66 1   
    51   22   23 1   
    52   23   24 1   
    53   23   67 1   
    54   23   68 1   
    55   24   25 1   
    56   24   69 1   
    57   24   70 1   
    58   25   26 1   
    59   26   27 1   
    60   26   71 1   
    61   26   72 1   
    62   27   28 1   
    63   27   73 1   
    64   27   74 1   
    65   28   29 1   
    66   29   30 1   
    67   29   75 1   
    68   29   76 1   
    69   30   31 1   
    70   30   77 1   
    71   30   78 1   
    72   31   32 1   
    73   32   33 1   
    74   32   79 1   
    75   32   80 1   
    76   33   34 1   
    77   33   81 1   
    78   33   82 1   
    79   34   35 1   
    80   35   36 1   
    81   35   83 1   
    82   35   84 1   
    83   36   37 1   
    84   36   85 1   
    85   36   86 1   
    86   37   87 1   
@<TRIPOS>SUBSTRUCTURE
     1 12P         1 TEMP              0 ****  ****    0 ROOT
