@<TRIPOS>MOLECULE
12P
   87    86     1     0     0
SMALL
bcc


@<TRIPOS>ATOM
      1 O37        -1.3890    2.9740   -1.1300 oh        1 12P     -0.599800
      2 C36        -1.3550    2.9810    0.2810 c3        1 12P      0.131400
      3 C35        -1.6500    1.6010    0.8590 c3        1 12P      0.087400
      4 O34        -0.5590    0.7680    0.4710 os        1 12P     -0.438600
      5 C33        -0.7270   -0.5820    0.9000 c3        1 12P      0.128400
      6 C32         0.5810   -1.3020    0.5920 c3        1 12P      0.127400
      7 O31         1.2340   -1.5080    1.8420 os        1 12P     -0.428600
      8 C30         2.5490   -2.0380    1.6850 c3        1 12P      0.127400
      9 C29         3.0490   -2.3800    3.0840 c3        1 12P      0.127400
     10 O28         3.0160   -3.8010    3.1900 os        1 12P     -0.429600
     11 C27         3.3130   -4.2520    4.5100 c3        1 12P      0.127400
     12 C26         3.4250   -5.7710    4.4350 c3        1 12P      0.127400
     13 O25         4.8110   -6.0820    4.5560 os        1 12P     -0.429600
     14 C24         5.0750   -7.4660    4.3400 c3        1 12P      0.127400
     15 C23         6.5470   -7.6850    4.6750 c3        1 12P      0.127400
     16 O22         6.5800   -8.3910    5.9130 os        1 12P     -0.429600
     17 C21         7.9050   -8.5200    6.4250 c3        1 12P      0.127400
     18 C20         7.8130   -9.4400    7.6380 c3        1 12P      0.127400
     19 O19         8.3840  -10.6870    7.2460 os        1 12P     -0.429600
     20 C18         8.2160  -11.6950    8.2410 c3        1 12P      0.127400
     21 C17         9.0190  -12.9040    7.7720 c3        1 12P      0.127400
     22 O16        10.1680  -12.9770    8.6140 os        1 12P     -0.429600
     23 C15        11.0940  -13.9710    8.1780 c3        1 12P      0.127400
     24 C14        12.1700  -14.0620    9.2550 c3        1 12P      0.127400
     25 O13        11.9510  -15.2920    9.9430 os        1 12P     -0.429600
     26 C12        12.7930  -15.4270   11.0870 c3        1 12P      0.127400
     27 C11        12.5830  -16.8430   11.6130 c3        1 12P      0.127400
     28 O10        13.7600  -17.5770   11.2820 os        1 12P     -0.429600
     29 C9         13.6290  -18.9670   11.5720 c3        1 12P      0.127400
     30 C8         15.0010  -19.5900   11.3350 c3        1 12P      0.127400
     31 O7         15.5460  -19.8720   12.6230 os        1 12P     -0.428600
     32 C6         16.9020  -20.3050   12.5530 c3        1 12P      0.127400
     33 C5         17.2940  -20.7290   13.9650 c3        1 12P      0.128400
     34 O4         17.3590  -22.1540   13.9570 os        1 12P     -0.438600
     35 C3         17.5470  -22.6960   15.2630 c3        1 12P      0.087400
     36 C2         17.6560  -24.2070   15.0830 c3        1 12P      0.131400
     37 O1         18.8210  -24.5640   14.3700 oh        1 12P     -0.599800
     38 H37        -0.7500    2.3110   -1.4230 ho        1 12P      0.412000
     39 H361       -2.1580    3.7020    0.5900 h1        1 12P      0.053700
     40 H362       -0.3550    3.3420    0.6420 h1        1 12P      0.053700
     41 H351       -2.6060    1.1900    0.4400 h1        1 12P      0.039200
     42 H352       -1.7160    1.6460    1.9770 h1        1 12P      0.039200
     43 H331       -0.9500   -0.6150    2.0000 h1        1 12P      0.045200
     44 H332       -1.5740   -1.0450    0.3290 h1        1 12P      0.045200
     45 H321        1.2270   -0.6830   -0.0860 h1        1 12P      0.043200
     46 H322        0.3770   -2.2970    0.1140 h1        1 12P      0.043200
     47 H301        2.5240   -2.9530    1.0360 h1        1 12P      0.044200
     48 H302        3.2050   -1.2590    1.2140 h1        1 12P      0.044200
     49 H291        2.3910   -1.9170    3.8670 h1        1 12P      0.043700
     50 H292        4.1050   -2.0240    3.2190 h1        1 12P      0.043700
     51 H271        4.2760   -3.7990    4.8680 h1        1 12P      0.043700
     52 H272        2.4770   -3.9540    5.1970 h1        1 12P      0.043700
     53 H261        2.8660   -6.2460    5.2840 h1        1 12P      0.043200
     54 H262        3.0250   -6.1520    3.4590 h1        1 12P      0.043200
     55 H241        4.4190   -8.0940    5.0000 h1        1 12P      0.043700
     56 H242        4.8770   -7.7150    3.2640 h1        1 12P      0.043700
     57 H231        7.0830   -6.7040    4.7720 h1        1 12P      0.043700
     58 H232        7.0400   -8.3070    3.8830 h1        1 12P      0.043700
     59 H211        8.2830   -7.5090    6.7290 h1        1 12P      0.043700
     60 H212        8.5820   -8.9570    5.6440 h1        1 12P      0.043700
     61 H201        6.7440   -9.5830    7.9500 h1        1 12P      0.043700
     62 H202        8.4020   -9.0190    8.4950 h1        1 12P      0.043700
     63 H181        7.1280  -11.9550    8.3200 h1        1 12P      0.043700
     64 H182        8.5900  -11.3280    9.2330 h1        1 12P      0.043700
     65 H171        8.4170  -13.8430    7.8890 h1        1 12P      0.043700
     66 H172        9.3290  -12.7850    6.7000 h1        1 12P      0.043700
     67 H151       11.5430  -13.6520    7.2010 h1        1 12P      0.043700
     68 H152       10.5730  -14.9570    8.0510 h1        1 12P      0.043700
     69 H141       12.0950  -13.1990    9.9680 h1        1 12P      0.043700
     70 H142       13.1900  -14.0780    8.7880 h1        1 12P      0.043700
     71 H121       12.4880  -14.6740   11.8600 h1        1 12P      0.043200
     72 H122       13.8660  -15.2630   10.8010 h1        1 12P      0.043200
     73 H111       12.4590  -16.8320   12.7280 h1        1 12P      0.043700
     74 H112       11.6840  -17.3160   11.1370 h1        1 12P      0.043700
     75 H91        12.8710  -19.4180   10.8790 h1        1 12P      0.043700
     76 H92        13.3030  -19.1130   12.6350 h1        1 12P      0.043700
     77 H81        14.9020  -20.5490   10.7610 h1        1 12P      0.044200
     78 H82        15.6690  -18.8820   10.7770 h1        1 12P      0.044200
     79 H61        16.9990  -21.1630   11.8370 h1        1 12P      0.043200
     80 H62        17.5440  -19.4510   12.2100 h1        1 12P      0.043200
     81 H51        16.5330  -20.3790   14.7120 h1        1 12P      0.045200
     82 H52        18.3030  -20.3180   14.2320 h1        1 12P      0.045200
     83 H31        16.6710  -22.4380   15.9120 h1        1 12P      0.039200
     84 H32        18.4870  -22.2800   15.7120 h1        1 12P      0.039200
     85 H21        16.7450  -24.5960   14.5540 h1        1 12P      0.053700
     86 H22        17.7610  -24.7020   16.0840 h1        1 12P      0.053700
     87 HO1        18.7880  -24.0970   13.5250 ho        1 12P      0.412000
@<TRIPOS>BOND
     1    1    2 1   
     2    1   38 1   
     3    2    3 1   
     4    2   39 1   
     5    2   40 1   
     6    3    4 1   
     7    3   41 1   
     8    3   42 1   
     9    4    5 1   
    10    5    6 1   
    11    5   43 1   
    12    5   44 1   
    13    6    7 1   
    14    6   45 1   
    15    6   46 1   
    16    7    8 1   
    17    8    9 1   
    18    8   47 1   
    19    8   48 1   
    20    9   10 1   
    21    9   49 1   
    22    9   50 1   
    23   10   11 1   
    24   11   12 1   
    25   11   51 1   
    26   11   52 1   
    27   12   13 1   
    28   12   53 1   
    29   12   54 1   
    30   13   14 1   
    31   14   15 1   
    32   14   55 1   
    33   14   56 1   
    34   15   16 1   
    35   15   57 1   
    36   15   58 1   
    37   16   17 1   
    38   17   18 1   
    39   17   59 1   
    40   17   60 1   
    41   18   19 1   
    42   18   61 1   
    43   18   62 1   
    44   19   20 1   
    45   20   21 1   
    46   20   63 1   
    47   20   64 1   
    48   21   22 1   
    49   21   65 1   
    50   21   66 1   
    51   22   23 1   
    52   23   24 1   
    53   23   67 1   
    54   23   68 1   
    55   24   25 1   
    56   24   69 1   
    57   24   70 1   
    58   25   26 1   
    59   26   27 1   
    60   26   71 1   
    61   26   72 1   
    62   27   28 1   
    63   27   73 1   
    64   27   74 1   
    65   28   29 1   
    66   29   30 1   
    67   29   75 1   
    68   29   76 1   
    69   30   31 1   
    70   30   77 1   
    71   30   78 1   
    72   31   32 1   
    73   32   33 1   
    74   32   79 1   
    75   32   80 1   
    76   33   34 1   
    77   33   81 1   
    78   33   82 1   
    79   34   35 1   
    80   35   36 1   
    81   35   83 1   
    82   35   84 1   
    83   36   37 1   
    84   36   85 1   
    85   36   86 1   
    86   37   87 1   
@<TRIPOS>SUBSTRUCTURE
     1 12P         1 TEMP              0 ****  ****    0 ROOT
