@<TRIPOS>MOLECULE
12P
   87    86     1     0     0
SMALL
bcc


@<TRIPOS>ATOM
      1 O37         0.6930   -0.5360   18.7520 oh        1 12P     -0.599800
      2 C36        -0.5440   -0.8360   18.1410 c3        1 12P      0.131400
      3 C35        -0.9060    0.1900   17.0710 c3        1 12P      0.087400
      4 O34         0.0610    0.0390   16.0340 os        1 12P     -0.438600
      5 C33        -0.1230    0.9820   14.9790 c3        1 12P      0.128400
      6 C32         0.8430    0.5840   13.8680 c3        1 12P      0.127400
      7 O31         0.0510    0.0130   12.8290 os        1 12P     -0.428600
      8 C30         0.8490   -0.5460   11.7870 c3        1 12P      0.127400
      9 C29        -0.1130   -0.9440   10.6720 c3        1 12P      0.127400
     10 O28         0.0590    0.0110    9.6270 os        1 12P     -0.429600
     11 C27        -0.8970   -0.1530    8.5820 c3        1 12P      0.127400
     12 C26        -0.4850    0.7990    7.4640 c3        1 12P      0.127400
     13 O25         0.0500   -0.0110    6.4190 os        1 12P     -0.429600
     14 C24         0.6240    0.7690    5.3720 c3        1 12P      0.127400
     15 C23         0.9850   -0.2050    4.2550 c3        1 12P      0.127400
     16 O22         0.0390    0.0090    3.2100 os        1 12P     -0.429600
     17 C21         0.1650   -0.9530    2.1640 c3        1 12P      0.127400
     18 C20        -0.7700   -0.5020    1.0470 c3        1 12P      0.127400
     19 O19         0.0600   -0.0040   -0.0000 os        1 12P     -0.429600
     20 C18        -0.6960    0.6030   -1.0460 c3        1 12P      0.127400
     21 C17         0.2910    0.9230   -2.1640 c3        1 12P      0.127400
     22 O16         0.0370   -0.0130   -3.2100 os        1 12P     -0.429600
     23 C15         1.0030    0.0700   -4.2550 c3        1 12P      0.127400
     24 C14         0.5130   -0.8460   -5.3720 c3        1 12P      0.127400
     25 O13         0.0500    0.0040   -6.4190 os        1 12P     -0.429600
     26 C12        -0.5900   -0.7260   -7.4640 c3        1 12P      0.127400
     27 C11        -0.8700    0.2730   -8.5820 c3        1 12P      0.127400
     28 O10         0.0560   -0.0200   -9.6270 os        1 12P     -0.429600
     29 C9          0.0140    0.9500  -10.6720 c3        1 12P      0.127400
     30 C8          0.9120    0.4250  -11.7870 c3        1 12P      0.127400
     31 O7          0.0460   -0.0200  -12.8290 os        1 12P     -0.428600
     32 C6          0.7540   -0.6930  -13.8680 c3        1 12P      0.127400
     33 C5         -0.2570   -0.9560  -14.9790 c3        1 12P      0.128400
     34 O4          0.0520   -0.0470  -16.0340 os        1 12P     -0.438600
     35 C3         -0.9270   -0.0650  -17.0710 c3        1 12P      0.087400
     36 C2         -0.4290    0.9030  -18.1400 c3        1 12P      0.131400
     37 O1          0.7560    0.4380  -18.7520 oh        1 12P     -0.599800
     38 H37         1.3520   -0.4940   18.0470 ho        1 12P      0.412000
     39 H361       -1.2980   -0.8010   18.9710 h1        1 12P      0.053700
     40 H362       -0.5140   -1.8640   17.6910 h1        1 12P      0.053700
     41 H351       -0.8560    1.2310   17.4860 h1        1 12P      0.039200
     42 H352       -1.9330   -0.0070   16.6670 h1        1 12P      0.039200
     43 H331        0.1190    2.0090   15.3600 h1        1 12P      0.045200
     44 H332       -1.1830    0.9530   14.6140 h1        1 12P      0.045200
     45 H321        1.5930   -0.1640   14.2400 h1        1 12P      0.043200
     46 H322        1.3770    1.4870   13.4720 h1        1 12P      0.043200
     47 H301        1.3880   -1.4480   12.1800 h1        1 12P      0.044200
     48 H302        1.5930    0.2100   11.4190 h1        1 12P      0.044200
     49 H291       -1.1740   -0.9330   11.0380 h1        1 12P      0.043700
     50 H292        0.1420   -1.9650   10.2830 h1        1 12P      0.043700
     51 H271       -1.9150    0.1150    8.9700 h1        1 12P      0.043700
     52 H272       -0.8980   -1.2160    8.2200 h1        1 12P      0.043700
     53 H261        0.2880    1.5270    7.8260 h1        1 12P      0.043200
     54 H262       -1.3780    1.3570    7.0770 h1        1 12P      0.043200
     55 H241        1.5440    1.2820    5.7570 h1        1 12P      0.043700
     56 H242       -0.1120    1.5350    5.0100 h1        1 12P      0.043700
     57 H231        0.9310   -1.2650    4.6180 h1        1 12P      0.043700
     58 H232        2.0160    0.0100    3.8680 h1        1 12P      0.043700
     59 H211       -0.1450   -1.9600    2.5510 h1        1 12P      0.043700
     60 H212        1.2260   -0.9970    1.8020 h1        1 12P      0.043700
     61 H201       -1.4650    0.3020    1.4080 h1        1 12P      0.043700
     62 H202       -1.3670   -1.3710    0.6610 h1        1 12P      0.043700
     63 H181       -1.1690    1.5440   -0.6610 h1        1 12P      0.043700
     64 H182       -1.4920   -0.1000   -1.4080 h1        1 12P      0.043700
     65 H171        1.3490    0.8230   -1.8020 h1        1 12P      0.043700
     66 H172        0.1210    1.9620   -2.5510 h1        1 12P      0.043700
     67 H151        1.9960   -0.2820   -3.8680 h1        1 12P      0.043700
     68 H152        1.0930    1.1280   -4.6190 h1        1 12P      0.043700
     69 H141       -0.3200   -1.5060   -5.0100 h1        1 12P      0.043700
     70 H142        1.3550   -1.4790   -5.7570 h1        1 12P      0.043700
     71 H121       -1.5500   -1.1590   -7.0770 h1        1 12P      0.043200
     72 H122        0.0780   -1.5520   -7.8260 h1        1 12P      0.043200
     73 H111       -0.7270    1.3260   -8.2200 h1        1 12P      0.043700
     74 H112       -1.9150    0.1440   -8.9690 h1        1 12P      0.043700
     75 H91         0.4050    1.9270  -10.2830 h1        1 12P      0.043700
     76 H92        -1.0390    1.0830  -11.0370 h1        1 12P      0.043700
     77 H81         1.5480   -0.4240  -11.4200 h1        1 12P      0.044200
     78 H82         1.5690    1.2450  -12.1800 h1        1 12P      0.044200
     79 H61         1.1590   -1.6610  -13.4720 h1        1 12P      0.043200
     80 H62         1.5980   -0.0530  -14.2400 h1        1 12P      0.043200
     81 H51        -1.3040   -0.7840  -14.6140 h1        1 12P      0.045200
     82 H52        -0.1570   -2.0060  -15.3600 h1        1 12P      0.045200
     83 H31        -1.9170    0.2700  -16.6660 h1        1 12P      0.039200
     84 H32        -1.0180   -1.1030  -17.4860 h1        1 12P      0.039200
     85 H21        -0.2600    1.9170  -17.6910 h1        1 12P      0.053700
     86 H22        -1.1810    0.9700  -18.9710 h1        1 12P      0.053700
     87 HO1         1.4030    0.3080  -18.0470 ho        1 12P      0.412000
@<TRIPOS>BOND
     1    1    2 1   
     2    1   38 1   
     3    2    3 1   
     4    2   39 1   
     5    2   40 1   
     6    3    4 1   
     7    3   41 1   
     8    3   42 1   
     9    4    5 1   
    10    5    6 1   
    11    5   43 1   
    12    5   44 1   
    13    6    7 1   
    14    6   45 1   
    15    6   46 1   
    16    7    8 1   
    17    8    9 1   
    18    8   47 1   
    19    8   48 1   
    20    9   10 1   
    21    9   49 1   
    22    9   50 1   
    23   10   11 1   
    24   11   12 1   
    25   11   51 1   
    26   11   52 1   
    27   12   13 1   
    28   12   53 1   
    29   12   54 1   
    30   13   14 1   
    31   14   15 1   
    32   14   55 1   
    33   14   56 1   
    34   15   16 1   
    35   15   57 1   
    36   15   58 1   
    37   16   17 1   
    38   17   18 1   
    39   17   59 1   
    40   17   60 1   
    41   18   19 1   
    42   18   61 1   
    43   18   62 1   
    44   19   20 1   
    45   20   21 1   
    46   20   63 1   
    47   20   64 1   
    48   21   22 1   
    49   21   65 1   
    50   21   66 1   
    51   22   23 1   
    52   23   24 1   
    53   23   67 1   
    54   23   68 1   
    55   24   25 1   
    56   24   69 1   
    57   24   70 1   
    58   25   26 1   
    59   26   27 1   
    60   26   71 1   
    61   26   72 1   
    62   27   28 1   
    63   27   73 1   
    64   27   74 1   
    65   28   29 1   
    66   29   30 1   
    67   29   75 1   
    68   29   76 1   
    69   30   31 1   
    70   30   77 1   
    71   30   78 1   
    72   31   32 1   
    73   32   33 1   
    74   32   79 1   
    75   32   80 1   
    76   33   34 1   
    77   33   81 1   
    78   33   82 1   
    79   34   35 1   
    80   35   36 1   
    81   35   83 1   
    82   35   84 1   
    83   36   37 1   
    84   36   85 1   
    85   36   86 1   
    86   37   87 1   
@<TRIPOS>SUBSTRUCTURE
     1 12P         1 TEMP              0 ****  ****    0 ROOT
