@<TRIPOS>MOLECULE
12P
   87    86     1     0     0
SMALL
bcc


@<TRIPOS>ATOM
      1 O37        -8.6160  -13.7220    3.6130 oh        1 12P     -0.602800
      2 C36        -8.4110  -12.8000    2.5810 c3        1 12P      0.127400
      3 C35        -7.1490  -11.9970    2.8640 c3        1 12P      0.128900
      4 O34        -6.7850  -11.2410    1.6960 os        1 12P     -0.431100
      5 C33        -5.5740  -10.5430    1.8310 c3        1 12P      0.129900
      6 C32        -5.3950   -9.5920    0.6410 c3        1 12P      0.128900
      7 O31        -4.0250   -9.2960    0.4750 os        1 12P     -0.429600
      8 C30        -3.7560   -8.4240   -0.6080 c3        1 12P      0.129400
      9 C29        -2.2430   -8.1770   -0.7010 c3        1 12P      0.128400
     10 O28        -1.9550   -7.4040   -1.8690 os        1 12P     -0.431600
     11 C27        -0.6140   -6.9840   -1.9570 c3        1 12P      0.112900
     12 C26        -0.4660   -5.9800   -3.1080 c3        1 12P      0.129900
     13 O25         0.8170   -5.3800   -3.0500 os        1 12P     -0.428600
     14 C24         1.0800   -4.4860   -4.1050 c3        1 12P      0.125900
     15 C23         2.5560   -3.9450   -3.9770 c3        1 12P      0.129400
     16 O22         2.5520   -2.5340   -4.0750 os        1 12P     -0.428100
     17 C21         3.8310   -1.9270   -3.8280 c3        1 12P      0.113900
     18 C20         3.8860   -0.5410   -4.5190 c3        1 12P      0.125900
     19 O19         4.7260    0.3120   -3.7900 os        1 12P     -0.420600
     20 C18         4.1830    1.5880   -3.5640 c3        1 12P      0.125900
     21 C17         5.3260    2.6110   -3.3870 c3        1 12P      0.113900
     22 O16         4.9960    3.5170   -2.3190 os        1 12P     -0.428100
     23 C15         5.1800    4.8830   -2.6480 c3        1 12P      0.129400
     24 C14         4.2780    5.7600   -1.7430 c3        1 12P      0.125900
     25 O13         4.8740    7.0350   -1.5800 os        1 12P     -0.428600
     26 C12         3.9620    8.1200   -1.6920 c3        1 12P      0.129900
     27 C11         4.0370    8.9820   -0.4150 c3        1 12P      0.112900
     28 O10         2.7210    9.0660    0.1960 os        1 12P     -0.431600
     29 C9          2.5030   10.2720    0.9520 c3        1 12P      0.128400
     30 C8          1.0380   10.3660    1.3410 c3        1 12P      0.129400
     31 O7          0.9120   10.2490    2.7750 os        1 12P     -0.429600
     32 C6         -0.4480   10.2570    3.2430 c3        1 12P      0.128900
     33 C5         -0.4700   10.0550    4.7830 c3        1 12P      0.129900
     34 O4         -0.8650    8.7120    5.0840 os        1 12P     -0.431100
     35 C3         -1.3260    8.5350    6.4060 c3        1 12P      0.128900
     36 C2         -1.3930    7.0380    6.7320 c3        1 12P      0.127400
     37 O1         -1.3800    6.8630    8.1270 oh        1 12P     -0.602800
     38 H37        -9.4760  -14.0010    3.6020 ho        1 12P      0.405000
     39 H361       -9.1630  -12.2080    2.5280 h1        1 12P      0.035700
     40 H362       -8.3130  -13.2730    1.7400 h1        1 12P      0.035700
     41 H351       -6.4090  -12.6160    3.1000 h1        1 12P      0.042200
     42 H352       -7.3150  -11.3760    3.6210 h1        1 12P      0.042200
     43 H331       -4.8320  -11.1800    1.8530 h1        1 12P      0.043950
     44 H332       -5.5860  -10.0280    2.6610 h1        1 12P      0.043950
     45 H321       -5.7440  -10.0250   -0.1860 h1        1 12P      0.043700
     46 H322       -5.8930   -8.7580    0.8100 h1        1 12P      0.043700
     47 H301       -4.2180   -7.5760   -0.4650 h1        1 12P      0.041950
     48 H302       -4.0740   -8.8340   -1.4470 h1        1 12P      0.041950
     49 H291       -1.7730   -9.0410   -0.7560 h1        1 12P      0.042200
     50 H292       -1.9410   -7.6890    0.0970 h1        1 12P      0.042200
     51 H271       -0.0320   -7.7680   -2.1250 h1        1 12P      0.041950
     52 H272       -0.3490   -6.5560   -1.1150 h1        1 12P      0.041950
     53 H261       -1.1590   -5.2840   -3.0270 h1        1 12P      0.052200
     54 H262       -0.5720   -6.4480   -3.9680 h1        1 12P      0.052200
     55 H241        0.4440   -3.7260   -4.0610 h1        1 12P      0.046950
     56 H242        0.9740   -4.9550   -4.9700 h1        1 12P      0.046950
     57 H231        2.9280   -4.2110   -3.1080 h1        1 12P      0.040950
     58 H232        3.1050   -4.3210   -4.6950 h1        1 12P      0.040950
     59 H211        3.9600   -1.8140   -2.8510 h1        1 12P      0.039700
     60 H212        4.5550   -2.5120   -4.1950 h1        1 12P      0.039700
     61 H201        2.9770   -0.1550   -4.5570 h1        1 12P      0.051950
     62 H202        4.2330   -0.6430   -5.4230 h1        1 12P      0.051950
     63 H181        3.6290    1.8450   -4.3280 h1        1 12P      0.051950
     64 H182        3.6350    1.5700   -2.7560 h1        1 12P      0.051950
     65 H171        5.4440    3.1140   -4.2170 h1        1 12P      0.039700
     66 H172        6.1580    2.1390   -3.1690 h1        1 12P      0.039700
     67 H151        4.9360    5.0310   -3.6040 h1        1 12P      0.040950
     68 H152        6.1230    5.1290   -2.5070 h1        1 12P      0.040950
     69 H141        4.1780    5.3360   -0.8760 h1        1 12P      0.046950
     70 H142        3.4020    5.8620   -2.1590 h1        1 12P      0.046950
     71 H121        3.0440    7.7710   -1.8020 h1        1 12P      0.052200
     72 H122        4.1990    8.6640   -2.4660 h1        1 12P      0.052200
     73 H111        4.3460    9.8760   -0.6450 h1        1 12P      0.041950
     74 H112        4.6640    8.5720    0.2180 h1        1 12P      0.041950
     75 H91         3.0490   10.2540    1.7570 h1        1 12P      0.042200
     76 H92         2.7470   11.0430    0.4110 h1        1 12P      0.042200
     77 H81         0.5440    9.6500    0.9140 h1        1 12P      0.041950
     78 H82         0.6800   11.2230    1.0520 h1        1 12P      0.041950
     79 H61        -0.8620   11.1120    3.0210 h1        1 12P      0.043700
     80 H62        -0.9480    9.5280    2.8090 h1        1 12P      0.043700
     81 H51         0.4210   10.2210    5.1460 h1        1 12P      0.043950
     82 H52        -1.1070   10.6800    5.1840 h1        1 12P      0.043950
     83 H31        -0.7030    8.9800    7.0350 h1        1 12P      0.042200
     84 H32        -2.2280    8.9340    6.4970 h1        1 12P      0.042200
     85 H21        -2.2270    6.6550    6.3590 h1        1 12P      0.035700
     86 H22        -0.6200    6.5820    6.3380 h1        1 12P      0.035700
     87 HO1        -1.4150    5.9760    8.3220 ho        1 12P      0.405000
@<TRIPOS>BOND
     1    1    2 1   
     2    1   38 1   
     3    2    3 1   
     4    2   39 1   
     5    2   40 1   
     6    3    4 1   
     7    3   41 1   
     8    3   42 1   
     9    4    5 1   
    10    5    6 1   
    11    5   43 1   
    12    5   44 1   
    13    6    7 1   
    14    6   45 1   
    15    6   46 1   
    16    7    8 1   
    17    8    9 1   
    18    8   47 1   
    19    8   48 1   
    20    9   10 1   
    21    9   49 1   
    22    9   50 1   
    23   10   11 1   
    24   11   12 1   
    25   11   51 1   
    26   11   52 1   
    27   12   13 1   
    28   12   53 1   
    29   12   54 1   
    30   13   14 1   
    31   14   15 1   
    32   14   55 1   
    33   14   56 1   
    34   15   16 1   
    35   15   57 1   
    36   15   58 1   
    37   16   17 1   
    38   17   18 1   
    39   17   59 1   
    40   17   60 1   
    41   18   19 1   
    42   18   61 1   
    43   18   62 1   
    44   19   20 1   
    45   20   21 1   
    46   20   63 1   
    47   20   64 1   
    48   21   22 1   
    49   21   65 1   
    50   21   66 1   
    51   22   23 1   
    52   23   24 1   
    53   23   67 1   
    54   23   68 1   
    55   24   25 1   
    56   24   69 1   
    57   24   70 1   
    58   25   26 1   
    59   26   27 1   
    60   26   71 1   
    61   26   72 1   
    62   27   28 1   
    63   27   73 1   
    64   27   74 1   
    65   28   29 1   
    66   29   30 1   
    67   29   75 1   
    68   29   76 1   
    69   30   31 1   
    70   30   77 1   
    71   30   78 1   
    72   31   32 1   
    73   32   33 1   
    74   32   79 1   
    75   32   80 1   
    76   33   34 1   
    77   33   81 1   
    78   33   82 1   
    79   34   35 1   
    80   35   36 1   
    81   35   83 1   
    82   35   84 1   
    83   36   37 1   
    84   36   85 1   
    85   36   86 1   
    86   37   87 1   
@<TRIPOS>SUBSTRUCTURE
     1 12P         1 TEMP              0 ****  ****    0 ROOT
