@<TRIPOS>MOLECULE
12Q
   21    22     1     0     0
SMALL
bcc


@<TRIPOS>ATOM
      1 CAH         1.4380    2.1250   -0.0000 c3        1 12Q      0.063300
      2 NAC         1.0350    0.7420    0.0000 n         1 12Q     -0.348000
      3 CAA        -0.3260    0.4250   -0.0000 ca        1 12Q      0.100600
      4 CAD        -1.3250    1.4360   -0.0000 ca        1 12Q     -0.182000
      5 CAI        -2.6660    1.0970   -0.0010 ca        1 12Q     -0.080000
      6 CAK        -3.0710   -0.2450   -0.0010 ca        1 12Q     -0.168000
      7 CAF        -2.1170   -1.2470   -0.0000 ca        1 12Q     -0.072000
      8 CAB        -0.7470   -0.9360   -0.0000 ca        1 12Q     -0.137800
      9 CAE         0.2510   -1.9760    0.0000 cc        1 12Q     -0.033200
     10 CAJ         1.5620   -1.6670    0.0000 cd        1 12Q     -0.232200
     11 CAG         2.0190   -0.2700    0.0000 c         1 12Q      0.693700
     12 OAL         3.2260    0.0450    0.0000 o         1 12Q     -0.634500
     13 HAH1        2.5600    2.1930    0.0000 h1        1 12Q      0.057367
     14 HAH2        1.0430    2.6410   -0.9150 h1        1 12Q      0.057367
     15 HAH3        1.0420    2.6420    0.9150 h1        1 12Q      0.057367
     16 HAD        -1.0420    2.5000   -0.0010 ha        1 12Q      0.141000
     17 HAI        -3.4270    1.8930   -0.0010 ha        1 12Q      0.136000
     18 HAK        -4.1420   -0.4940   -0.0010 ha        1 12Q      0.138000
     19 HAF        -2.4220   -2.3050   -0.0000 ha        1 12Q      0.136000
     20 HAE        -0.0960   -3.0220    0.0000 ha        1 12Q      0.141000
     21 HAJ         2.3640   -2.4190    0.0010 ha        1 12Q      0.165000
@<TRIPOS>BOND
     1    1    2 1   
     2    1   13 1   
     3    1   14 1   
     4    1   15 1   
     5    2    3 1   
     6    2   11 1   
     7    3    4 ar  
     8    3    8 ar  
     9    4    5 ar  
    10    4   16 1   
    11    5    6 ar  
    12    5   17 1   
    13    6    7 ar  
    14    6   18 1   
    15    7    8 ar  
    16    7   19 1   
    17    8    9 1   
    18    9   10 2   
    19    9   20 1   
    20   10   11 1   
    21   10   21 1   
    22   11   12 2   
@<TRIPOS>SUBSTRUCTURE
     1 12Q         1 TEMP              0 ****  ****    0 ROOT
