@<TRIPOS>MOLECULE
12Q
   21    19     1     0     0
SMALL
bcc


@<TRIPOS>ATOM
      1 CAH        -2.3280   -0.0000   -1.0300 c3        1 12Q     -0.092000
      2 NAC        -0.9050   -0.0000   -1.0300 n3        1 12Q     -0.251000
      3 CAA        -0.2130   -0.0000    0.1700 c2        1 12Q      0.108000
      4 CAD        -0.9170   -0.0000    1.3900 c2        1 12Q     -0.182000
      5 CAI        -0.2230   -0.0000    2.5920 c1        1 12Q     -0.080000
      6 CAK         1.1690   -0.0000    2.5930 c1        1 12Q     -0.120000
      7 CAF         1.8650   -0.0000    1.3910 c1        1 12Q     -0.120000
      8 CAB         1.1620   -0.0000    0.1700 c1        1 12Q     -0.126000
      9 CAE         1.8540   -0.0000   -1.0310 c2        1 12Q     -0.045000
     10 CAJ         1.1690   -0.0000   -2.2140 c1        1 12Q     -0.213000
     11 CAG        -0.2230   -0.0000   -2.2130 c1        1 12Q      0.332000
     12 OAL        -0.8310    0.0020   -3.2640 o         1 12Q     -0.359000
     13 HAH1       -2.6540    0.7970   -0.5700 h1        1 12Q      0.096667
     14 HAH2       -2.6540   -0.7970   -0.5690 h1        1 12Q      0.096667
     15 HAH3       -2.6540   -0.0010   -1.9500 h1        1 12Q      0.096667
     16 HAD        -1.8930   -0.0000    1.3900 ha        1 12Q      0.141000
     17 HAI        -0.7110   -0.0000    3.4380 ha        1 12Q      0.136000
     18 HAK         1.6570   -0.0000    3.4390 ha        1 12Q      0.137000
     19 HAF         2.8410   -0.0000    1.3920 ha        1 12Q      0.137000
     20 HAE         2.8310   -0.0000   -1.0320 ha        1 12Q      0.141000
     21 HAJ         1.6560   -0.0000   -3.0600 ha        1 12Q      0.165000
@<TRIPOS>BOND
     1    1    2 1   
     2    1   13 1   
     3    1   14 1   
     4    1   15 1   
     5    2    3 1   
     6    2   11 1   
     7    3    4 1   
     8    3    8 1   
     9    4    5 1   
    10    4   16 1   
    11    5   17 1   
    12    6    7 1   
    13    6   18 1   
    14    7   19 1   
    15    8    9 1   
    16    9   10 1   
    17    9   20 1   
    18   10   21 1   
    19   11   12 1   
@<TRIPOS>SUBSTRUCTURE
     1 12Q         1 TEMP              0 ****  ****    0 ROOT
