@<TRIPOS>MOLECULE
12R
   29    31     1     0     0
SMALL
bcc


@<TRIPOS>ATOM
      1 C4         -0.0330   -0.0630    0.1230 ca        1 12R      0.509200
      2 C14        -3.8530   -0.6320   -2.4820 ca        1 12R     -0.077000
      3 C5          1.3460   -0.2650    0.0320 ca        1 12R     -0.411500
      4 C6          2.0760   -0.0000    1.3090 ca        1 12R      0.477800
      5 C10         2.3880   -0.6720   -0.8820 cc        1 12R      0.334800
      6 C13        -2.7670    0.2740   -2.5000 ca        1 12R     -0.149400
      7 N1          1.4630    0.4130    2.4490 nb        1 12R     -0.574000
      8 N3         -0.6610    0.3580    1.2410 nb        1 12R     -0.732000
      9 C2          0.1240    0.5700    2.3460 ca        1 12R      0.712900
     10 N7          3.4180   -0.2670    1.0160 na        1 12R     -0.052800
     11 N9          3.5810   -0.6530   -0.2460 nd        1 12R     -0.368100
     12 N11        -0.8840   -0.3600   -1.0830 n4        1 12R     -0.602500
     13 N12        -2.0310    0.5320   -1.2620 n4        1 12R     -0.422200
     14 C15        -4.6050   -0.7920   -3.6410 ca        1 12R     -0.094000
     15 C16        -4.2790   -0.0850   -4.8050 ca        1 12R      0.000000
     16 C17        -3.1890    0.7950   -4.8150 ca        1 12R     -0.094000
     17 C18        -2.4170    0.9780   -3.6750 ca        1 12R     -0.077000
     18 H2          2.3150   -0.9690   -1.9320 h4        1 12R      0.084800
     19 H3         -0.4170    0.9100    3.2660 h5        1 12R      0.127100
     20 H4          4.2000   -0.2030    1.6500 hn        1 12R      0.396700
     21 H5         -0.2800   -0.3060   -1.9310 hn        1 12R      0.506800
     22 H6         -2.6670    0.4050   -0.4390 hn        1 12R      0.521300
     23 H7         -5.4700   -1.4820   -3.6370 ha        1 12R      0.204500
     24 H8         -4.8870   -0.2210   -5.7220 ha        1 12R      0.206000
     25 H9         -2.9400    1.3550   -5.7380 ha        1 12R      0.204500
     26 H10        -1.5690    1.6850   -3.7010 ha        1 12R      0.170500
     27 H112       -1.2430   -1.3370   -0.9980 hn        1 12R      0.506800
     28 H122       -1.6720    1.5120   -1.2570 hn        1 12R      0.521300
     29 H1         -4.1330   -1.1910   -1.5730 ha        1 12R      0.170500
@<TRIPOS>BOND
     1    1    3 ar  
     2    1    8 ar  
     3    1   12 1   
     4    2    6 ar  
     5    2   14 ar  
     6    2   29 1   
     7    3    4 ar  
     8    3    5 1   
     9    4    7 ar  
    10    4   10 1   
    11    5   11 2   
    12    5   18 1   
    13    6   13 1   
    14    6   17 ar  
    15    7    9 ar  
    16    8    9 ar  
    17    9   19 1   
    18   10   11 1   
    19   10   20 1   
    20   12   13 1   
    21   12   21 1   
    22   12   27 1   
    23   13   22 1   
    24   13   28 1   
    25   14   15 ar  
    26   14   23 1   
    27   15   16 ar  
    28   15   24 1   
    29   16   17 ar  
    30   16   25 1   
    31   17   26 1   
@<TRIPOS>SUBSTRUCTURE
     1 12R         1 TEMP              0 ****  ****    0 ROOT
