@<TRIPOS>MOLECULE
12R
   27    19     1     0     0
SMALL
bcc


@<TRIPOS>ATOM
      1 C4          1.3730    0.1980    0.9110 c1        1 12R      0.172000
      2 C14        -1.6300    0.1090   -2.5370 c1        1 12R     -0.124000
      3 C5          2.7030    0.4560    1.2040 c1        1 12R     -0.266000
      4 C6          3.1910    0.1630    2.4240 c1        1 12R      0.072000
      5 C10         3.7240    1.0360    0.4630 c1        1 12R     -0.120000
      6 C13        -1.7040   -0.0310   -1.1590 c1        1 12R      0.008000
      7 N1          2.3760   -0.3860    3.3700 n1        1 12R     -0.190000
      8 N3          0.5730   -0.3420    1.8440 n1        1 12R     -0.252000
      9 C2          1.0680   -0.6380    3.0790 c1        1 12R      0.028000
     10 N7          4.5070    0.5530    2.4590 n1        1 12R     -0.178000
     11 N9          4.8230    1.0910    1.2410 n2        1 12R     -0.043000
     12 N11         0.5210    0.2190   -0.2260 n2        1 12R     -0.195000
     13 N12        -0.7510   -0.3130   -0.1450 n3        1 12R     -0.141000
     14 C15        -2.7650   -0.0620   -3.3140 c1        1 12R     -0.124000
     15 C16        -3.9750   -0.3740   -2.7140 c1        1 12R     -0.124000
     16 C17        -4.0500   -0.5150   -1.3360 c1        1 12R     -0.124000
     17 C18        -2.9150   -0.3440   -0.5590 c1        1 12R     -0.152000
     18 H1         -0.7770    0.3300   -2.9600 ha        1 12R      0.135500
     19 H2          3.6580    1.3490   -0.4590 DU        1 12R      0.239500
     20 H3          0.4840   -1.0320    3.7580 ha        1 12R      0.195000
     21 H4          5.0730    0.4680    3.1710 DU        1 12R      0.239500
     22 H5          0.8220    0.5640   -1.0150 hn        1 12R      0.230000
     23 H6         -0.9730   -0.8610    0.5490 hn        1 12R      0.174000
     24 H7         -2.7120    0.0370   -4.2840 ha        1 12R      0.135500
     25 H8         -4.7750   -0.4950   -3.2610 ha        1 12R      0.135500
     26 H9         -4.9020   -0.7350   -0.9140 ha        1 12R      0.135500
     27 H10        -2.9670   -0.4430    0.4110 ha        1 12R      0.134000
@<TRIPOS>BOND
     1    1    3 1   
     2    1    8 1   
     3    2   14 1   
     4    2   18 1   
     5    3    4 1   
     6    5   11 1   
     7    6   13 1   
     8    6   17 1   
     9    7    9 1   
    10    9   20 1   
    11   10   11 1   
    12   12   13 1   
    13   12   22 1   
    14   13   23 1   
    15   14   24 1   
    16   15   16 1   
    17   15   25 1   
    18   16   26 1   
    19   17   27 1   
@<TRIPOS>SUBSTRUCTURE
     1 12R         1 TEMP              0 ****  ****    0 ROOT
