@<TRIPOS>MOLECULE
12R
   27    29     1     0     0
SMALL
bcc


@<TRIPOS>ATOM
      1 C4          0.0030   -0.4090   -0.4000 ca        1 12R      0.693200
      2 C14        -3.9280   -0.5280   -2.1250 ca        1 12R     -0.136500
      3 C5          1.3950   -0.2210   -0.1730 ca        1 12R     -0.480500
      4 C6          1.7740    0.5410    1.0110 ca        1 12R      0.463800
      5 C10         2.6560   -0.5610   -0.7970 cc        1 12R      0.380800
      6 C13        -2.5690   -0.5910   -2.5000 ca        1 12R      0.089600
      7 N1          0.8720    1.0630    1.8990 nb        1 12R     -0.716000
      8 N3         -0.8990    0.0950    0.4930 nb        1 12R     -0.778000
      9 C2         -0.4060    0.7920    1.5590 ca        1 12R      0.690900
     10 N7          3.1760    0.5830    0.9950 na        1 12R     -0.111800
     11 N9          3.6770   -0.0620   -0.0690 nd        1 12R     -0.510100
     12 N11        -0.4070   -1.0480   -1.5980 nh        1 12R     -0.592700
     13 N12        -1.6850   -1.4980   -1.8070 nh        1 12R     -0.427400
     14 C15        -4.8250    0.2270   -2.8740 ca        1 12R     -0.117000
     15 C16        -4.3900    0.9440   -3.9870 ca        1 12R     -0.141000
     16 C17        -3.0460    0.9010   -4.3530 ca        1 12R     -0.117000
     17 C18        -2.1350    0.1420   -3.6210 ca        1 12R     -0.136500
     18 H2          2.8160   -1.1240   -1.7170 h4        1 12R      0.058800
     19 H3         -1.1820    1.1920    2.2490 h5        1 12R      0.058100
     20 H4          3.7710    1.0380    1.6480 hn        1 12R      0.340700
     21 H5          0.2440   -1.7660   -1.8830 hn        1 12R      0.434800
     22 H6         -2.1320   -1.7750   -0.9360 hn        1 12R      0.378800
     23 H7         -5.8840    0.2620   -2.5770 ha        1 12R      0.132500
     24 H8         -5.1030    1.5430   -4.5720 ha        1 12R      0.133000
     25 H9         -2.6960    1.4690   -5.2270 ha        1 12R      0.132500
     26 H10        -1.0790    0.1230   -3.9300 ha        1 12R      0.139000
     27 H1         -4.2910   -1.0760   -1.2420 ha        1 12R      0.139000
@<TRIPOS>BOND
     1    1    3 ar  
     2    1    8 ar  
     3    1   12 1   
     4    2    6 ar  
     5    2   14 ar  
     6    2   27 1   
     7    3    4 ar  
     8    3    5 1   
     9    4    7 ar  
    10    4   10 1   
    11    5   11 2   
    12    5   18 1   
    13    6   13 1   
    14    6   17 ar  
    15    7    9 ar  
    16    8    9 ar  
    17    9   19 1   
    18   10   11 1   
    19   10   20 1   
    20   12   13 1   
    21   12   21 1   
    22   13   22 1   
    23   14   15 ar  
    24   14   23 1   
    25   15   16 ar  
    26   15   24 1   
    27   16   17 ar  
    28   16   25 1   
    29   17   26 1   
@<TRIPOS>SUBSTRUCTURE
     1 12R         1 TEMP              0 ****  ****    0 ROOT
