@<TRIPOS>MOLECULE
12R
   27    29     1     0     0
SMALL
bcc


@<TRIPOS>ATOM
      1 C4          0.8220   -0.1500    0.3650 ca        1 12R      0.693200
      2 C14        -3.3510   -1.1560    0.5280 ca        1 12R     -0.136500
      3 C5          2.0640    0.5230    0.1940 ca        1 12R     -0.480500
      4 C6          3.0570   -0.1290   -0.6520 ca        1 12R      0.463800
      5 C10         2.7050    1.7510    0.6140 cc        1 12R      0.380800
      6 C13        -2.4890   -0.0450    0.6510 ca        1 12R      0.089600
      7 N1          2.8570   -1.3360   -1.2660 nb        1 12R     -0.716000
      8 N3          0.6250   -1.3630   -0.2310 nb        1 12R     -0.778000
      9 C2          1.6400   -1.8580   -1.0000 ca        1 12R      0.690900
     10 N7          4.1650    0.7310   -0.6570 na        1 12R     -0.111800
     11 N9          3.9430    1.8270    0.0830 nd        1 12R     -0.510100
     12 N11        -0.2080    0.5050    1.0880 nh        1 12R     -0.592700
     13 N12        -1.3410   -0.1340    1.5210 nh        1 12R     -0.427400
     14 C15        -4.5390   -1.0430   -0.1870 ca        1 12R     -0.117000
     15 C16        -4.8820    0.1590   -0.8050 ca        1 12R     -0.141000
     16 C17        -4.0270    1.2540   -0.7020 ca        1 12R     -0.117000
     17 C18        -2.8380    1.1630    0.0180 ca        1 12R     -0.136500
     18 H2          2.2950    2.5340    1.2530 h4        1 12R      0.058800
     19 H3          1.4250   -2.8410   -1.4730 h5        1 12R      0.058100
     20 H4          5.0200    0.6060   -1.1480 hn        1 12R      0.340700
     21 H5          0.1600    1.0660    1.8420 hn        1 12R      0.434800
     22 H6         -1.1650   -1.1160    1.7170 hn        1 12R      0.378800
     23 H7         -5.2070   -1.9130   -0.2690 ha        1 12R      0.132500
     24 H8         -5.8190    0.2400   -1.3730 ha        1 12R      0.133000
     25 H9         -4.2890    2.2040   -1.1930 ha        1 12R      0.132500
     26 H10        -2.1790    2.0420    0.0850 ha        1 12R      0.139000
     27 H1         -3.0940   -2.1180    0.9970 ha        1 12R      0.139000
@<TRIPOS>BOND
     1    1    3 ar  
     2    1    8 ar  
     3    1   12 1   
     4    2    6 ar  
     5    2   14 ar  
     6    2   27 1   
     7    3    4 ar  
     8    3    5 1   
     9    4    7 ar  
    10    4   10 1   
    11    5   11 2   
    12    5   18 1   
    13    6   13 1   
    14    6   17 ar  
    15    7    9 ar  
    16    8    9 ar  
    17    9   19 1   
    18   10   11 1   
    19   10   20 1   
    20   12   13 1   
    21   12   21 1   
    22   13   22 1   
    23   14   15 ar  
    24   14   23 1   
    25   15   16 ar  
    26   15   24 1   
    27   16   17 ar  
    28   16   25 1   
    29   17   26 1   
@<TRIPOS>SUBSTRUCTURE
     1 12R         1 TEMP              0 ****  ****    0 ROOT
