@<TRIPOS>MOLECULE
12R
   27    29     1     0     0
SMALL
bcc


@<TRIPOS>ATOM
      1 C4         -0.0040   -0.3940   -0.3870 ca        1 12R      0.693200
      2 C14        -3.9200   -0.5500   -2.1450 ca        1 12R     -0.136500
      3 C5          1.3860   -0.1990   -0.1500 ca        1 12R     -0.480500
      4 C6          1.7520    0.5800    1.0270 ca        1 12R      0.463800
      5 C10         2.6530   -0.5420   -0.7580 cc        1 12R      0.380800
      6 C13        -2.5570   -0.6110   -2.5060 ca        1 12R      0.089600
      7 N1          0.8400    1.1100    1.9000 nb        1 12R     -0.716000
      8 N3         -0.9150    0.1180    0.4920 nb        1 12R     -0.778000
      9 C2         -0.4340    0.8310    1.5530 ca        1 12R      0.690900
     10 N7          3.1540    0.6260    1.0230 na        1 12R     -0.111800
     11 N9          3.6660   -0.0300   -0.0280 nd        1 12R     -0.510100
     12 N11        -0.4010   -1.0490   -1.5800 nu        1 12R     -0.592700
     13 N12        -1.6760   -1.5060   -1.7950 nu        1 12R     -0.427400
     14 C15        -4.8130    0.1930   -2.9110 ca        1 12R     -0.117000
     15 C16        -4.3700    0.9000   -4.0280 ca        1 12R     -0.141000
     16 C17        -3.0220    0.8590   -4.3790 ca        1 12R     -0.117000
     17 C18        -2.1150    0.1120   -3.6310 ca        1 12R     -0.136500
     18 H2          2.8230   -1.1170   -1.6700 h4        1 12R      0.058800
     19 H3         -1.2170    1.2370    2.2310 h5        1 12R      0.058100
     20 H4          3.7410    1.0910    1.6760 hn        1 12R      0.340700
     21 H5          0.2540   -1.7680   -1.8500 hn        1 12R      0.434800
     22 H6         -2.1290   -1.7740   -0.9250 hn        1 12R      0.378800
     23 H7         -5.8750    0.2260   -2.6240 ha        1 12R      0.132500
     24 H8         -5.0800    1.4900   -4.6250 ha        1 12R      0.133000
     25 H9         -2.6670    1.4200   -5.2570 ha        1 12R      0.132500
     26 H10        -1.0560    0.0950   -3.9290 ha        1 12R      0.139000
     27 H1         -4.2880   -1.0900   -1.2600 ha        1 12R      0.139000
@<TRIPOS>BOND
     1    1    3 ar  
     2    1    8 ar  
     3    1   12 1   
     4    2    6 ar  
     5    2   14 ar  
     6    2   27 1   
     7    3    4 ar  
     8    3    5 1   
     9    4    7 ar  
    10    4   10 1   
    11    5   11 2   
    12    5   18 1   
    13    6   13 1   
    14    6   17 ar  
    15    7    9 ar  
    16    8    9 ar  
    17    9   19 1   
    18   10   11 1   
    19   10   20 1   
    20   12   13 1   
    21   12   21 1   
    22   13   22 1   
    23   14   15 ar  
    24   14   23 1   
    25   15   16 ar  
    26   15   24 1   
    27   16   17 ar  
    28   16   25 1   
    29   17   26 1   
@<TRIPOS>SUBSTRUCTURE
     1 12R         1 TEMP              0 ****  ****    0 ROOT
