@<TRIPOS>MOLECULE
12S
   63    52     1     0     0
SMALL
bcc


@<TRIPOS>ATOM
      1 N26        -3.4550    2.3340    6.6050 n3        1 12S     -0.321000
      2 C26        -2.8480    1.2950    5.9020 c2        1 12S      0.111000
      3 C25        -2.9060   -0.0140    6.4030 c2        1 12S     -0.237000
      4 C24        -2.2480   -1.0090    5.7660 c1        1 12S      0.001000
      5 C27        -2.2360   -2.4340    6.3670 c3        1 12S     -0.186000
      6 C23        -1.5270   -0.7380    4.6340 c1        1 12S     -0.190000
      7 N21        -2.1280    1.5650    4.7730 n1        1 12S     -0.204000
      8 C22        -1.4710    0.5700    4.1360 c1        1 12S      0.000400
      9 C28        -0.6800    0.8670    2.8850 c2        1 12S     -0.110000
     10 C29        -1.6320    1.3080    1.7570 c3        1 12S     -0.119000
     11 C5         -0.8260    1.4320    0.4280 c1        1 12S     -0.070000
     12 C4         -0.4650    0.2740   -0.2790 c1        1 12S     -0.190000
     13 C6         -0.4790    2.7040   -0.0780 c1        1 12S     -0.124000
     14 C1          0.2320    2.8090   -1.2960 c1        1 12S      0.000400
     15 C7          0.7540    4.2120   -1.7820 c2        1 12S     -0.118000
     16 C8         -0.2940    4.8480   -2.7870 c3        1 12S     -0.198000
     17 C9          0.2690    6.1550   -3.3690 c3        1 12S     -0.088000
     18 N10        -0.1770    6.2990   -4.8050 n3        1 12S     -0.337000
     19 C2          0.5900    1.6520   -1.9970 c1        1 12S     -0.190000
     20 C3          0.2420    0.3790   -1.4890 c1        1 12S      0.000400
     21 C19         0.5680   -0.8820   -2.3000 c2        1 12S     -0.119000
     22 C18         1.7350   -1.6810   -1.5950 c3        1 12S     -0.111000
     23 C12         1.9170   -3.0260   -2.2850 c1        1 12S      0.029000
     24 C13         2.9010   -3.9120   -1.8420 c1        1 12S     -0.190000
     25 N11         1.1520   -3.3470   -3.3420 n1        1 12S     -0.204000
     26 C16         1.3350   -4.5450   -3.9870 c1        1 12S      0.000400
     27 N16         0.5560   -4.8560   -5.1550 n2        1 12S     -0.321000
     28 C15         2.3010   -5.4200   -3.5550 c1        1 12S     -0.190000
     29 C14         3.0830   -5.0990   -2.4800 c1        1 12S      0.000400
     30 C17         4.1550   -6.0960   -1.9760 c2        1 12S     -0.186000
     31 H1         -3.9320    2.1540    7.3460 hn        1 12S      0.195500
     32 H2         -3.3420    3.1830    6.3380 hn        1 12S      0.195500
     33 H3         -3.3780   -0.1970    7.2510 ha        1 12S      0.141000
     34 H4         -3.0070   -2.5460    6.9610 hc        1 12S      0.088333
     35 H5         -2.2830   -3.0980    5.6380 hc        1 12S      0.088333
     36 H6         -1.4120   -2.5660    6.8750 hc        1 12S      0.088333
     37 H7         -1.0660   -1.4340    4.1890 ha        1 12S      0.137800
     38 H8         -0.0400    1.5810    3.0670 ha        1 12S      0.097000
     39 H9         -0.2090    0.0800    2.6130 ha        1 12S      0.097000
     40 H10        -2.3320    0.6480    1.6490 hc        1 12S      0.099000
     41 H11        -2.0280    2.1620    1.9800 hc        1 12S      0.099000
     42 H12        -0.7110   -0.6320    0.0810 ha        1 12S      0.137800
     43 H13        -0.8130    3.5730    0.4090 ha        1 12S      0.134000
     44 H14         1.6000    4.1010   -2.2290 ha        1 12S      0.088000
     45 H15         0.8640    4.7840   -1.0370 ha        1 12S      0.088000
     46 H16        -0.4720    4.2140   -3.5200 hc        1 12S      0.083500
     47 H17        -1.1390    5.0380   -2.3040 hc        1 12S      0.083500
     48 H18         1.2600    6.1340   -3.3310 h1        1 12S      0.090000
     49 H19        -0.0690    6.9310   -2.8330 h1        1 12S      0.090000
     50 H20        -0.4300    5.4920   -5.1230 hn        1 12S      0.140000
     51 H21        -0.8950    6.8880   -4.8530 hn        1 12S      0.140000
     52 H23         1.0970    1.7270   -2.8690 ha        1 12S      0.137800
     53 H24        -0.2300   -1.4490   -2.3540 ha        1 12S      0.096500
     54 H25         0.8430   -0.6300   -3.1830 ha        1 12S      0.096500
     55 H26         2.5820   -1.1590   -1.6580 hc        1 12S      0.098000
     56 H27         1.5050   -1.8290   -0.6350 hc        1 12S      0.098000
     57 H28         3.4730   -3.6730   -1.0540 ha        1 12S      0.137800
     58 H29         0.6670   -5.6790   -5.5870 hn        1 12S      0.195500
     59 H30        -0.0870   -4.2520   -5.4610 hn        1 12S      0.195500
     60 H31         2.4270   -6.2540   -4.0060 ha        1 12S      0.137800
     61 H32         4.9000   -6.1260   -2.6130 ha        1 12S      0.088333
     62 H33         3.7540   -7.0010   -1.8950 ha        1 12S      0.088333
     63 H34         4.4840   -5.8070   -1.1050 ha        1 12S      0.088333
@<TRIPOS>BOND
     1    1    2 1   
     2    1   31 1   
     3    1   32 1   
     4    2    3 1   
     5    2    7 1   
     6    3    4 1   
     7    3   33 1   
     8    4    5 1   
     9    5   34 1   
    10    5   35 1   
    11    5   36 1   
    12    6    8 1   
    13    6   37 1   
    14    9   10 1   
    15    9   38 1   
    16    9   39 1   
    17   10   11 1   
    18   10   40 1   
    19   10   41 1   
    20   11   13 1   
    21   12   20 1   
    22   12   42 1   
    23   13   43 1   
    24   14   19 1   
    25   15   16 1   
    26   15   44 1   
    27   15   45 1   
    28   16   17 1   
    29   16   46 1   
    30   16   47 1   
    31   17   18 1   
    32   17   48 1   
    33   17   49 1   
    34   18   50 1   
    35   18   51 1   
    36   19   52 1   
    37   21   22 1   
    38   21   53 1   
    39   21   54 1   
    40   22   23 1   
    41   22   55 1   
    42   22   56 1   
    43   23   25 1   
    44   24   29 1   
    45   24   57 1   
    46   26   28 1   
    47   27   58 1   
    48   27   59 1   
    49   28   60 1   
    50   30   61 1   
    51   30   62 1   
    52   30   63 1   
@<TRIPOS>SUBSTRUCTURE
     1 12S         1 TEMP              0 ****  ****    0 ROOT
