@<TRIPOS>MOLECULE
12S
   64    66     1     0     0
SMALL
bcc


@<TRIPOS>ATOM
      1 N26        -0.0610    0.8760   -0.5160 nh        1 12S     -0.927500
      2 C26         1.3100    0.5980   -0.3920 ca        1 12S      0.640200
      3 C25         1.8940    0.5590    0.9120 ca        1 12S     -0.297800
      4 C24         3.2690    0.3810    1.0320 ca        1 12S      0.000700
      5 C27         3.9170    0.3500    2.3640 c3        1 12S     -0.063800
      6 C23         4.0380    0.2390   -0.1310 ca        1 12S     -0.294300
      7 N21         2.0600    0.4460   -1.5280 nb        1 12S     -0.740500
      8 C22         3.3950    0.2800   -1.3810 ca        1 12S      0.442100
      9 C28         4.2310    0.1380   -2.6240 c3        1 12S     -0.121200
     10 C29         4.0500   -1.2270   -3.2680 c3        1 12S     -0.040600
     11 C5          4.6440   -1.2570   -4.6330 ca        1 12S     -0.061300
     12 C4          5.8340   -1.9460   -4.8870 ca        1 12S     -0.111000
     13 C6          3.9970   -0.5960   -5.6820 ca        1 12S     -0.127500
     14 C1          4.5400   -0.6100   -6.9700 ca        1 12S     -0.112300
     15 C7          3.8300    0.0850   -8.0790 c3        1 12S     -0.021100
     16 C8          3.8510    1.5910   -7.8630 c3        1 12S     -0.112400
     17 C9          3.0250    2.2670   -8.9480 c3        1 12S      0.098800
     18 N10         2.9580    3.7500   -8.7700 n4        1 12S     -0.839600
     19 C2          5.7330   -1.2960   -7.2140 ca        1 12S     -0.127500
     20 C3          6.3820   -1.9710   -6.1750 ca        1 12S     -0.061300
     21 C19         7.6340   -2.7340   -6.4390 c3        1 12S     -0.040600
     22 C18         8.8270   -2.1170   -5.7300 c3        1 12S     -0.121200
     23 C12        10.1130   -2.8250   -6.0610 ca        1 12S      0.442100
     24 C13        11.2010   -2.0550   -6.5120 ca        1 12S     -0.294300
     25 N11        10.1710   -4.1640   -5.8850 nb        1 12S     -0.740500
     26 C16        11.3490   -4.7970   -6.1880 ca        1 12S      0.640200
     27 N16        11.4020   -6.1950   -6.1250 nh        1 12S     -0.927500
     28 C15        12.5000   -4.0770   -6.6370 ca        1 12S     -0.297800
     29 C14        12.4140   -2.6970   -6.7970 ca        1 12S      0.000700
     30 C17        13.5880   -1.9160   -7.2490 c3        1 12S     -0.063800
     31 H1         -0.4720    0.6600   -1.3970 hn        1 12S      0.406050
     32 H2         -0.6010    0.5770    0.2650 hn        1 12S      0.406050
     33 H3          1.2680    0.6770    1.8070 ha        1 12S      0.147000
     34 H4          4.7140   -0.4330    2.3970 hc        1 12S      0.052867
     35 H5          3.1740    0.1360    3.1710 hc        1 12S      0.052867
     36 H6          4.3910    1.3420    2.5760 hc        1 12S      0.052867
     37 H7          5.1240    0.0960   -0.0660 ha        1 12S      0.140500
     38 H8          3.9510    0.9390   -3.3610 hc        1 12S      0.051700
     39 H9          5.3100    0.2900   -2.3590 hc        1 12S      0.051700
     40 H10         4.5240   -2.0110   -2.6190 hc        1 12S      0.067700
     41 H11         2.9550   -1.4700   -3.3400 hc        1 12S      0.067700
     42 H12         6.3440   -2.4820   -4.0700 ha        1 12S      0.148000
     43 H13         3.0470   -0.0750   -5.4860 ha        1 12S      0.131000
     44 H14         4.3100   -0.1600   -9.0640 hc        1 12S      0.060200
     45 H15         2.7670   -0.2750   -8.1210 hc        1 12S      0.060200
     46 H16         4.9120    1.9550   -7.8900 hc        1 12S      0.074700
     47 H17         3.4330    1.8210   -6.8460 hc        1 12S      0.074700
     48 H18         3.4740    2.0630   -9.9630 hx        1 12S      0.112200
     49 H19         1.9670    1.8740   -8.9330 hx        1 12S      0.112200
     50 H20         2.5360    3.9740   -7.8620 hn        1 12S      0.461133
     51 H21         2.3950    4.1710   -9.5150 hn        1 12S      0.461133
     52 H23         6.1580   -1.3210   -8.2280 ha        1 12S      0.131000
     53 H24         7.4940   -3.7930   -6.0890 hc        1 12S      0.067700
     54 H25         7.8380   -2.7750   -7.5420 hc        1 12S      0.067700
     55 H26         8.9210   -1.0370   -6.0200 hc        1 12S      0.051700
     56 H27         8.6650   -2.1550   -4.6190 hc        1 12S      0.051700
     57 H28        11.1060   -0.9690   -6.6340 ha        1 12S      0.140500
     58 H29        12.3070   -6.5610   -5.9400 hn        1 12S      0.406050
     59 H30        10.6650   -6.6460   -5.6300 hn        1 12S      0.406050
     60 H31        13.4350   -4.6070   -6.8620 ha        1 12S      0.147000
     61 H32        13.2690   -1.0420   -7.8690 hc        1 12S      0.052867
     62 H33        14.2830   -2.5470   -7.8550 hc        1 12S      0.052867
     63 H34        14.1490   -1.5290   -6.3610 hc        1 12S      0.052867
     64 H103        3.9020    4.1490   -8.7960 hn        1 12S      0.461133
@<TRIPOS>BOND
     1    1    2 1   
     2    1   31 1   
     3    1   32 1   
     4    2    3 ar  
     5    2    7 ar  
     6    3    4 ar  
     7    3   33 1   
     8    4    5 1   
     9    4    6 ar  
    10    5   34 1   
    11    5   35 1   
    12    5   36 1   
    13    6    8 ar  
    14    6   37 1   
    15    7    8 ar  
    16    8    9 1   
    17    9   10 1   
    18    9   38 1   
    19    9   39 1   
    20   10   11 1   
    21   10   40 1   
    22   10   41 1   
    23   11   12 ar  
    24   11   13 ar  
    25   12   20 ar  
    26   12   42 1   
    27   13   14 ar  
    28   13   43 1   
    29   14   15 1   
    30   14   19 ar  
    31   15   16 1   
    32   15   44 1   
    33   15   45 1   
    34   16   17 1   
    35   16   46 1   
    36   16   47 1   
    37   17   18 1   
    38   17   48 1   
    39   17   49 1   
    40   18   50 1   
    41   18   51 1   
    42   18   64 1   
    43   19   20 ar  
    44   19   52 1   
    45   20   21 1   
    46   21   22 1   
    47   21   53 1   
    48   21   54 1   
    49   22   23 1   
    50   22   55 1   
    51   22   56 1   
    52   23   24 ar  
    53   23   25 ar  
    54   24   29 ar  
    55   24   57 1   
    56   25   26 ar  
    57   26   27 1   
    58   26   28 ar  
    59   27   58 1   
    60   27   59 1   
    61   28   29 ar  
    62   28   60 1   
    63   29   30 1   
    64   30   61 1   
    65   30   62 1   
    66   30   63 1   
@<TRIPOS>SUBSTRUCTURE
     1 12S         1 TEMP              0 ****  ****    0 ROOT
