@<TRIPOS>MOLECULE
12S
   66    68     1     0     0
SMALL
bcc


@<TRIPOS>ATOM
      1 N26         0.0700   -0.9610    0.5100 n4        1 12S     -0.818300
      2 C26         1.4360   -0.4160    0.3290 ca        1 12S      0.453200
      3 C25         2.1570    0.0010    1.4610 ca        1 12S     -0.206300
      4 C24         3.4480    0.5250    1.2510 ca        1 12S      0.010700
      5 C27         4.2480    0.9920    2.4030 c3        1 12S     -0.085800
      6 C23         3.9330    0.5990   -0.0550 ca        1 12S     -0.203800
      7 N21         1.8930   -0.3520   -0.9540 nb        1 12S     -0.670500
      8 C22         3.1310    0.1540   -1.1380 ca        1 12S      0.455100
      9 C28         3.6730    0.2790   -2.5380 c3        1 12S     -0.132700
     10 C29         3.8210   -1.0700   -3.2200 c3        1 12S     -0.035600
     11 C5          4.4530   -0.9580   -4.5660 ca        1 12S     -0.073300
     12 C4          5.6490   -1.6310   -4.8380 ca        1 12S     -0.111000
     13 C6          3.8170   -0.2450   -5.5900 ca        1 12S     -0.115000
     14 C1          4.3660   -0.2100   -6.8760 ca        1 12S     -0.090300
     15 C7          3.6240    0.4540   -7.9840 c3        1 12S     -0.032100
     16 C8          4.3240    1.7030   -8.4950 c3        1 12S     -0.105400
     17 C9          3.5120    2.2800   -9.6510 c3        1 12S      0.096800
     18 N10         4.1020    3.5260  -10.2220 n4        1 12S     -0.837600
     19 C2          5.5670   -0.8820   -7.1330 ca        1 12S     -0.115000
     20 C3          6.2100   -1.6000   -6.1200 ca        1 12S     -0.073300
     21 C19         7.4330   -2.3950   -6.4320 c3        1 12S     -0.035600
     22 C18         8.6050   -2.0370   -5.5380 c3        1 12S     -0.132700
     23 C12         9.8720   -2.7620   -5.9090 ca        1 12S      0.455100
     24 C13        11.0550   -2.0000   -6.1000 ca        1 12S     -0.203800
     25 N11         9.8600   -4.1070   -6.0160 nb        1 12S     -0.670500
     26 C16        11.0440   -4.7140   -6.3150 ca        1 12S      0.453200
     27 N16        11.0120   -6.1920   -6.4150 n4        1 12S     -0.818300
     28 C15        12.2620   -4.0450   -6.5200 ca        1 12S     -0.206300
     29 C14        12.2570   -2.6400   -6.4050 ca        1 12S      0.010700
     30 C17        13.5120   -1.8830   -6.5970 c3        1 12S     -0.085800
     31 H1         -0.6180   -0.3070    0.1150 hn        1 12S      0.474467
     32 H2         -0.1130   -1.0870    1.5110 hn        1 12S      0.474467
     33 H3          1.7550   -0.0660    2.4850 ha        1 12S      0.178000
     34 H4          4.1870    0.2640    3.2520 hc        1 12S      0.081867
     35 H5          3.8580    1.9790    2.7630 hc        1 12S      0.081867
     36 H6          5.3240    1.1220    2.1250 hc        1 12S      0.081867
     37 H7          4.9390    1.0060   -0.2510 ha        1 12S      0.178000
     38 H8          2.9880    0.9350   -3.1400 hc        1 12S      0.073700
     39 H9          4.6720    0.7890   -2.4900 hc        1 12S      0.073700
     40 H10         2.8080   -1.5440   -3.3390 hc        1 12S      0.066200
     41 H11         4.4320   -1.7500   -2.5670 hc        1 12S      0.066200
     42 H12         6.1430   -2.2110   -4.0420 ha        1 12S      0.141000
     43 H13         2.8640    0.2660   -5.3830 ha        1 12S      0.135500
     44 H14         2.5890    0.7260   -7.6400 hc        1 12S      0.067700
     45 H15         3.5100   -0.2800   -8.8300 hc        1 12S      0.067700
     46 H16         4.4130    2.4510   -7.6630 hc        1 12S      0.071200
     47 H17         5.3610    1.4400   -8.8330 hc        1 12S      0.071200
     48 H18         3.4410    1.5230  -10.4860 hx        1 12S      0.117200
     49 H19         2.4670    2.5280   -9.3010 hx        1 12S      0.117200
     50 H20         5.0450    3.3420  -10.5810 hn        1 12S      0.466133
     51 H21         4.1630    4.2540   -9.5020 hn        1 12S      0.466133
     52 H23         5.9910   -0.8680   -8.1490 ha        1 12S      0.135500
     53 H24         7.7270   -2.2400   -7.5050 hc        1 12S      0.066200
     54 H25         7.1830   -3.4850   -6.3110 hc        1 12S      0.066200
     55 H26         8.7970   -0.9320   -5.5930 hc        1 12S      0.073700
     56 H27         8.3580   -2.2820   -4.4680 hc        1 12S      0.073700
     57 H28        11.0210   -0.9030   -6.0020 ha        1 12S      0.178000
     58 H29        10.2780   -6.4890   -7.0710 hn        1 12S      0.474467
     59 H30        11.9230   -6.5270   -6.7480 hn        1 12S      0.474467
     60 H31        13.2010   -4.5690   -6.7600 ha        1 12S      0.178000
     61 H32        13.3130   -0.7900   -6.7230 hc        1 12S      0.081867
     62 H33        14.0640   -2.2490   -7.5000 hc        1 12S      0.081867
     63 H34        14.1780   -2.0170   -5.7050 hc        1 12S      0.081867
     64 H263       -0.0190   -1.8660    0.0290 hn        1 12S      0.474467
     65 H103        3.5150    3.8690  -10.9920 hn        1 12S      0.466133
     66 H163       10.8140   -6.5980   -5.4920 hn        1 12S      0.474467
@<TRIPOS>BOND
     1    1    2 1   
     2    1   31 1   
     3    1   32 1   
     4    1   64 1   
     5    2    3 ar  
     6    2    7 ar  
     7    3    4 ar  
     8    3   33 1   
     9    4    5 1   
    10    4    6 ar  
    11    5   34 1   
    12    5   35 1   
    13    5   36 1   
    14    6    8 ar  
    15    6   37 1   
    16    7    8 ar  
    17    8    9 1   
    18    9   10 1   
    19    9   38 1   
    20    9   39 1   
    21   10   11 1   
    22   10   40 1   
    23   10   41 1   
    24   11   12 ar  
    25   11   13 ar  
    26   12   20 ar  
    27   12   42 1   
    28   13   14 ar  
    29   13   43 1   
    30   14   15 1   
    31   14   19 ar  
    32   15   16 1   
    33   15   44 1   
    34   15   45 1   
    35   16   17 1   
    36   16   46 1   
    37   16   47 1   
    38   17   18 1   
    39   17   48 1   
    40   17   49 1   
    41   18   50 1   
    42   18   51 1   
    43   18   65 1   
    44   19   20 ar  
    45   19   52 1   
    46   20   21 1   
    47   21   22 1   
    48   21   53 1   
    49   21   54 1   
    50   22   23 1   
    51   22   55 1   
    52   22   56 1   
    53   23   24 ar  
    54   23   25 ar  
    55   24   29 ar  
    56   24   57 1   
    57   25   26 ar  
    58   26   27 1   
    59   26   28 ar  
    60   27   58 1   
    61   27   59 1   
    62   27   66 1   
    63   28   29 ar  
    64   28   60 1   
    65   29   30 1   
    66   30   61 1   
    67   30   62 1   
    68   30   63 1   
@<TRIPOS>SUBSTRUCTURE
     1 12S         1 TEMP              0 ****  ****    0 ROOT
