@<TRIPOS>MOLECULE
12S
   64    66     1     0     0
SMALL
bcc


@<TRIPOS>ATOM
      1 N26        -0.0530    0.8960   -0.5100 nv        1 12S     -0.927000
      2 C26         1.3170    0.6160   -0.3880 ca        1 12S      0.640200
      3 C25         1.9030    0.5790    0.9150 ca        1 12S     -0.297800
      4 C24         3.2780    0.3980    1.0330 ca        1 12S      0.000700
      5 C27         3.9290    0.3690    2.3630 c3        1 12S     -0.063800
      6 C23         4.0450    0.2520   -0.1320 ca        1 12S     -0.294300
      7 N21         2.0650    0.4590   -1.5250 nb        1 12S     -0.740500
      8 C22         3.3990    0.2910   -1.3800 ca        1 12S      0.442600
      9 C28         4.2320    0.1450   -2.6250 c3        1 12S     -0.121200
     10 C29         4.0470   -1.2210   -3.2650 c3        1 12S     -0.040600
     11 C5          4.6410   -1.2560   -4.6310 ca        1 12S     -0.061300
     12 C4          5.8290   -1.9480   -4.8830 ca        1 12S     -0.111000
     13 C6          3.9930   -0.5970   -5.6820 ca        1 12S     -0.127500
     14 C1          4.5360   -0.6160   -6.9690 ca        1 12S     -0.112300
     15 C7          3.8270    0.0770   -8.0800 c3        1 12S     -0.021100
     16 C8          3.8520    1.5830   -7.8700 c3        1 12S     -0.112400
     17 C9          3.0280    2.2580   -8.9580 c3        1 12S      0.098800
     18 N10         2.9670    3.7410   -8.7870 nz        1 12S     -0.839600
     19 C2          5.7270   -1.3050   -7.2120 ca        1 12S     -0.127500
     20 C3          6.3770   -1.9770   -6.1710 ca        1 12S     -0.061300
     21 C19         7.6280   -2.7420   -6.4340 c3        1 12S     -0.040600
     22 C18         8.8200   -2.1290   -5.7220 c3        1 12S     -0.121200
     23 C12        10.1080   -2.8310   -6.0590 ca        1 12S      0.442600
     24 C13        11.2020   -2.0510   -6.4780 ca        1 12S     -0.294300
     25 N11        10.1630   -4.1740   -5.9170 nb        1 12S     -0.740500
     26 C16        11.3440   -4.8000   -6.2240 ca        1 12S      0.640200
     27 N16        11.3940   -6.1990   -6.1980 nv        1 12S     -0.927000
     28 C15        12.5000   -4.0710   -6.6420 ca        1 12S     -0.297800
     29 C14        12.4160   -2.6870   -6.7680 ca        1 12S      0.000700
     30 C17        13.5960   -1.8950   -7.1860 c3        1 12S     -0.063800
     31 H1         -0.4670    0.6800   -1.3890 hn        1 12S      0.406050
     32 H2         -0.5930    0.6000    0.2730 hn        1 12S      0.406050
     33 H3          1.2790    0.7000    1.8100 ha        1 12S      0.147000
     34 H4          3.1870    0.1580    3.1720 hc        1 12S      0.052867
     35 H5          4.4050    1.3600    2.5720 hc        1 12S      0.052867
     36 H6          4.7250   -0.4150    2.3960 hc        1 12S      0.052867
     37 H7          5.1310    0.1060   -0.0680 ha        1 12S      0.140500
     38 H8          3.9520    0.9450   -3.3630 hc        1 12S      0.051700
     39 H9          5.3130    0.2950   -2.3620 hc        1 12S      0.051700
     40 H10         2.9520   -1.4620   -3.3360 hc        1 12S      0.067700
     41 H11         4.5190   -2.0050   -2.6150 hc        1 12S      0.067700
     42 H12         6.3380   -2.4820   -4.0650 ha        1 12S      0.148000
     43 H13         3.0450   -0.0740   -5.4860 ha        1 12S      0.131000
     44 H14         2.7620   -0.2810   -8.1200 hc        1 12S      0.060200
     45 H15         4.3040   -0.1740   -9.0650 hc        1 12S      0.060200
     46 H16         4.9150    1.9440   -7.8990 hc        1 12S      0.074700
     47 H17         3.4350    1.8190   -6.8540 hc        1 12S      0.074700
     48 H18         1.9690    1.8680   -8.9410 hx        1 12S      0.112200
     49 H19         3.4760    2.0480   -9.9720 hx        1 12S      0.112200
     50 H20         2.5460    3.9710   -7.8800 hn        1 12S      0.461133
     51 H21         3.9120    4.1370   -8.8140 hn        1 12S      0.461133
     52 H23         6.1530   -1.3330   -8.2270 ha        1 12S      0.131000
     53 H24         7.4840   -3.8020   -6.0860 hc        1 12S      0.067700
     54 H25         7.8340   -2.7820   -7.5370 hc        1 12S      0.067700
     55 H26         8.6600   -2.1760   -4.6110 hc        1 12S      0.051700
     56 H27         8.9110   -1.0470   -6.0040 hc        1 12S      0.051700
     57 H28        11.1090   -0.9620   -6.5720 ha        1 12S      0.140500
     58 H29        10.6510   -6.6620   -5.7220 hn        1 12S      0.406050
     59 H30        12.2970   -6.5710   -6.0130 hn        1 12S      0.406050
     60 H31        13.4370   -4.5950   -6.8720 ha        1 12S      0.147000
     61 H32        14.1530   -1.5400   -6.2820 hc        1 12S      0.052867
     62 H33        13.2850   -1.0010   -7.7800 hc        1 12S      0.052867
     63 H34        14.2930   -2.5100   -7.8080 hc        1 12S      0.052867
     64 H103        2.4050    4.1610   -9.5330 hn        1 12S      0.461133
@<TRIPOS>BOND
     1    1    2 1   
     2    1   31 1   
     3    1   32 1   
     4    2    3 ar  
     5    2    7 ar  
     6    3    4 ar  
     7    3   33 1   
     8    4    5 1   
     9    4    6 ar  
    10    5   34 1   
    11    5   35 1   
    12    5   36 1   
    13    6    8 ar  
    14    6   37 1   
    15    7    8 ar  
    16    8    9 1   
    17    9   10 1   
    18    9   38 1   
    19    9   39 1   
    20   10   11 1   
    21   10   40 1   
    22   10   41 1   
    23   11   12 ar  
    24   11   13 ar  
    25   12   20 ar  
    26   12   42 1   
    27   13   14 ar  
    28   13   43 1   
    29   14   15 1   
    30   14   19 ar  
    31   15   16 1   
    32   15   44 1   
    33   15   45 1   
    34   16   17 1   
    35   16   46 1   
    36   16   47 1   
    37   17   18 1   
    38   17   48 1   
    39   17   49 1   
    40   18   50 1   
    41   18   51 1   
    42   18   64 1   
    43   19   20 ar  
    44   19   52 1   
    45   20   21 1   
    46   21   22 1   
    47   21   53 1   
    48   21   54 1   
    49   22   23 1   
    50   22   55 1   
    51   22   56 1   
    52   23   24 ar  
    53   23   25 ar  
    54   24   29 ar  
    55   24   57 1   
    56   25   26 ar  
    57   26   27 1   
    58   26   28 ar  
    59   27   58 1   
    60   27   59 1   
    61   28   29 ar  
    62   28   60 1   
    63   29   30 1   
    64   30   61 1   
    65   30   62 1   
    66   30   63 1   
@<TRIPOS>SUBSTRUCTURE
     1 12S         1 TEMP              0 ****  ****    0 ROOT
