@<TRIPOS>MOLECULE
12S
   63    65     1     0     0
SMALL
bcc


@<TRIPOS>ATOM
      1 N26        -7.7030   -0.9160   -1.1290 nh        1 12S     -0.923500
      2 C26        -6.6090   -1.3310   -0.3490 ca        1 12S      0.631200
      3 C25        -6.6850   -2.5780    0.3400 ca        1 12S     -0.301300
      4 C24        -5.5650   -3.0380    1.0280 ca        1 12S     -0.006300
      5 C27        -5.5940   -4.3380    1.7380 c3        1 12S     -0.060800
      6 C23        -4.4020   -2.2580    1.0290 ca        1 12S     -0.292300
      7 N21        -5.4780   -0.5580   -0.3310 nb        1 12S     -0.730000
      8 C22        -4.4030   -1.0300    0.3390 ca        1 12S      0.450600
      9 C28        -3.1510   -0.1950    0.3600 c3        1 12S     -0.126200
     10 C29        -2.4950   -0.1450   -1.0100 c3        1 12S     -0.034100
     11 C5         -1.2400    0.6550   -0.9770 ca        1 12S     -0.077300
     12 C4          0.0050    0.0250   -1.0290 ca        1 12S     -0.127000
     13 C6         -1.3040    2.0520   -0.9060 ca        1 12S     -0.127000
     14 C1         -0.1330    2.8140   -0.8860 ca        1 12S     -0.076300
     15 C7         -0.2000    4.3010   -0.8250 c3        1 12S     -0.036100
     16 C8          0.2290    4.8240    0.5330 c3        1 12S     -0.080400
     17 C9          0.1730    6.3510    0.5470 c3        1 12S      0.157800
     18 N10         0.6250    6.9290    1.7900 n3        1 12S     -0.915800
     19 C2          1.1100    2.1720   -0.9380 ca        1 12S     -0.127000
     20 C3          1.1850    0.7790   -1.0090 ca        1 12S     -0.077300
     21 C19         2.5060    0.0950   -1.0770 c3        1 12S     -0.034100
     22 C18         2.8580   -0.5500    0.2530 c3        1 12S     -0.126200
     23 C12         4.2130   -1.2040    0.2040 ca        1 12S      0.450600
     24 C13         5.2560   -0.6470    0.9690 ca        1 12S     -0.292300
     25 N11         4.3640   -2.3080   -0.5600 nb        1 12S     -0.730000
     26 C16         5.6030   -2.8910   -0.6030 ca        1 12S      0.631200
     27 N16         5.8160   -3.9730   -1.4750 nh        1 12S     -0.923500
     28 C15         6.7020   -2.3890    0.1570 ca        1 12S     -0.301300
     29 C14         6.5170   -1.2540    0.9430 ca        1 12S     -0.006300
     30 C17         7.6370   -0.6880    1.7300 c3        1 12S     -0.060800
     31 H1         -8.5820   -1.1950   -0.7560 hn        1 12S      0.400050
     32 H2         -7.6800    0.0320   -1.4370 hn        1 12S      0.400050
     33 H3         -7.6080   -3.1730    0.3190 ha        1 12S      0.141000
     34 H4         -5.1350   -5.1300    1.0940 hc        1 12S      0.049033
     35 H5         -5.0140   -4.2810    2.6920 hc        1 12S      0.049033
     36 H6         -6.6420   -4.6440    1.9770 hc        1 12S      0.049033
     37 H7         -3.5040   -2.5960    1.5620 ha        1 12S      0.142500
     38 H8         -3.3950    0.8490    0.6940 hc        1 12S      0.057700
     39 H9         -2.4350   -0.6290    1.1060 hc        1 12S      0.057700
     40 H10        -2.2770   -1.1900   -1.3570 hc        1 12S      0.059700
     41 H11        -3.2080    0.3110   -1.7500 hc        1 12S      0.059700
     42 H12         0.0660   -1.0730   -1.0900 ha        1 12S      0.135000
     43 H13        -2.2860    2.5480   -0.8700 ha        1 12S      0.133000
     44 H14         0.4670    4.7330   -1.6180 hc        1 12S      0.048200
     45 H15        -1.2450    4.6480   -1.0450 hc        1 12S      0.048200
     46 H16        -0.4430    4.4060    1.3270 hc        1 12S      0.050700
     47 H17         1.2720    4.4760    0.7570 hc        1 12S      0.050700
     48 H18         0.8440    6.7470   -0.2690 h1        1 12S      0.023700
     49 H19        -0.8830    6.6620    0.2840 h1        1 12S      0.023700
     50 H20         0.4370    7.9110    1.8040 hn        1 12S      0.347800
     51 H21         0.1780    6.4960    2.5730 hn        1 12S      0.347800
     52 H23         2.0320    2.7730   -0.9260 ha        1 12S      0.133000
     53 H24         2.4780   -0.6920   -1.8780 hc        1 12S      0.059700
     54 H25         3.3070    0.8300   -1.3580 hc        1 12S      0.059700
     55 H26         2.8570    0.2280    1.0620 hc        1 12S      0.057700
     56 H27         2.0760   -1.3120    0.5160 hc        1 12S      0.057700
     57 H28         5.0810    0.2500    1.5780 ha        1 12S      0.142500
     58 H29         4.9940   -4.4020   -1.8410 hn        1 12S      0.400050
     59 H30         6.4930   -4.6220   -1.1430 hn        1 12S      0.400050
     60 H31         7.6820   -2.8830    0.1140 ha        1 12S      0.141000
     61 H32         8.0970    0.1650    1.1700 hc        1 12S      0.049033
     62 H33         7.2740   -0.3050    2.7150 hc        1 12S      0.049033
     63 H34         8.4290   -1.4540    1.9160 hc        1 12S      0.049033
@<TRIPOS>BOND
     1    1    2 1   
     2    1   31 1   
     3    1   32 1   
     4    2    3 ar  
     5    2    7 ar  
     6    3    4 ar  
     7    3   33 1   
     8    4    5 1   
     9    4    6 ar  
    10    5   34 1   
    11    5   35 1   
    12    5   36 1   
    13    6    8 ar  
    14    6   37 1   
    15    7    8 ar  
    16    8    9 1   
    17    9   10 1   
    18    9   38 1   
    19    9   39 1   
    20   10   11 1   
    21   10   40 1   
    22   10   41 1   
    23   11   12 ar  
    24   11   13 ar  
    25   12   20 ar  
    26   12   42 1   
    27   13   14 ar  
    28   13   43 1   
    29   14   15 1   
    30   14   19 ar  
    31   15   16 1   
    32   15   44 1   
    33   15   45 1   
    34   16   17 1   
    35   16   46 1   
    36   16   47 1   
    37   17   18 1   
    38   17   48 1   
    39   17   49 1   
    40   18   50 1   
    41   18   51 1   
    42   19   20 ar  
    43   19   52 1   
    44   20   21 1   
    45   21   22 1   
    46   21   53 1   
    47   21   54 1   
    48   22   23 1   
    49   22   55 1   
    50   22   56 1   
    51   23   24 ar  
    52   23   25 ar  
    53   24   29 ar  
    54   24   57 1   
    55   25   26 ar  
    56   26   27 1   
    57   26   28 ar  
    58   27   58 1   
    59   27   59 1   
    60   28   29 ar  
    61   28   60 1   
    62   29   30 1   
    63   30   61 1   
    64   30   62 1   
    65   30   63 1   
@<TRIPOS>SUBSTRUCTURE
     1 12S         1 TEMP              0 ****  ****    0 ROOT
