@<TRIPOS>MOLECULE
12T
   18    18     1     0     0
SMALL
bcc


@<TRIPOS>ATOM
      1 NAA         1.3500   -2.2410   -0.3020 nh        1 12T     -0.811200
      2 OAB        -3.7150    1.1090    0.0330 o         1 12T     -0.863300
      3 OAC         3.4930   -0.5620    0.5640 o         1 12T     -0.866800
      4 OAD        -3.6180   -1.1070    0.0680 o         1 12T     -0.863300
      5 OAE         3.3280    1.4270   -0.3930 o         1 12T     -0.866800
      6 CAF        -0.8800    1.3280    0.0400 ca        1 12T     -0.161000
      7 CAG         0.5100    1.3800    0.0280 ca        1 12T     -0.119000
      8 CAH        -0.7810   -1.0710   -0.1000 ca        1 12T     -0.163000
      9 CAI        -3.0500    0.0280    0.0310 c         1 12T      0.905200
     10 CAJ         2.7920    0.3640    0.0430 c         1 12T      0.911200
     11 CAK         0.6320   -1.0320   -0.1230 ca        1 12T      0.090600
     12 CAL        -1.5390    0.0950   -0.0130 ca        1 12T     -0.119600
     13 CAM         1.2890    0.2190   -0.0300 ca        1 12T     -0.176600
     14 HNAA        1.0310   -2.9310    0.3500 hn        1 12T      0.363800
     15 HNAB        2.3390   -2.0950   -0.1870 hn        1 12T      0.363800
     16 HAF        -1.4840    2.2450    0.0930 ha        1 12T      0.125000
     17 HAG         1.0350    2.3470    0.0670 ha        1 12T      0.121000
     18 HAH        -1.3180   -2.0320   -0.1480 ha        1 12T      0.131000
@<TRIPOS>BOND
     1    1   11 1   
     2    1   14 1   
     3    1   15 1   
     4    2    9 1   
     5    3   10 1   
     6    4    9 1   
     7    5   10 1   
     8    6    7 ar  
     9    6   12 ar  
    10    6   16 1   
    11    7   13 ar  
    12    7   17 1   
    13    8   11 ar  
    14    8   12 ar  
    15    8   18 1   
    16    9   12 1   
    17   10   13 1   
    18   11   13 ar  
@<TRIPOS>SUBSTRUCTURE
     1 12T         1 TEMP              0 ****  ****    0 ROOT
