@<TRIPOS>MOLECULE
12T
   18    18     1     0     0
SMALL
bcc


@<TRIPOS>ATOM
      1 NAA        -0.0350    0.3300   -0.0810 nh        1 12T     -0.811200
      2 OAB         5.5300   -0.0800   -2.4990 o         1 12T     -0.863300
      3 OAC         0.1980   -0.5060    2.6410 o         1 12T     -0.866800
      4 OAD         3.6180   -0.1150   -3.6240 o         1 12T     -0.863300
      5 OAE         1.9650    0.4460    3.5750 o         1 12T     -0.866800
      6 CAF         4.1690   -0.0470   -0.0030 ca        1 12T     -0.161000
      7 CAG         3.4550   -0.0160    1.1910 ca        1 12T     -0.119000
      8 CAH         2.1050    0.0960   -1.2280 ca        1 12T     -0.163000
      9 CAI         4.2610   -0.0690   -2.5310 c         1 12T      0.905200
     10 CAJ         1.3610    0.0040    2.5520 c         1 12T      0.911200
     11 CAK         1.3680    0.1390   -0.0220 ca        1 12T      0.090600
     12 CAL         3.4950   -0.0040   -1.2270 ca        1 12T     -0.119600
     13 CAM         2.0590    0.0540    1.2110 ca        1 12T     -0.176600
     14 HNAA       -0.4530    0.2290    0.8300 hn        1 12T      0.363800
     15 HNAB       -0.4460   -0.3260   -0.7160 hn        1 12T      0.363800
     16 HAF         5.2670   -0.1100   -0.0090 ha        1 12T      0.125000
     17 HAG         3.9810   -0.0480    2.1590 ha        1 12T      0.121000
     18 HAH         1.5920    0.1370   -2.2020 ha        1 12T      0.131000
@<TRIPOS>BOND
     1    1   11 1   
     2    1   14 1   
     3    1   15 1   
     4    2    9 1   
     5    3   10 1   
     6    4    9 1   
     7    5   10 1   
     8    6    7 ar  
     9    6   12 ar  
    10    6   16 1   
    11    7   13 ar  
    12    7   17 1   
    13    8   11 ar  
    14    8   12 ar  
    15    8   18 1   
    16    9   12 1   
    17   10   13 1   
    18   11   13 ar  
@<TRIPOS>SUBSTRUCTURE
     1 12T         1 TEMP              0 ****  ****    0 ROOT
