@<TRIPOS>MOLECULE
12T
   19    19     1     0     0
SMALL
bcc


@<TRIPOS>ATOM
      1 NAA        -0.0440   -0.1900   -0.2410 nh        1 12T     -0.824200
      2 OAB         5.6000    0.2840   -2.4380 o         1 12T     -0.819800
      3 OAC         0.2110    0.7240    2.5510 oh        1 12T     -0.611100
      4 OAD         3.7350    0.0150   -3.6440 o         1 12T     -0.819800
      5 OAE         1.4810   -0.8400    3.3470 o         1 12T     -0.528000
      6 CAF         4.1660    0.0770   -0.0130 ca        1 12T     -0.143000
      7 CAG         3.4160    0.0050    1.1500 ca        1 12T     -0.082000
      8 CAH         2.1470   -0.0640   -1.3310 ca        1 12T     -0.168000
      9 CAI         4.3540    0.1220   -2.5480 c         1 12T      0.906200
     10 CAJ         1.2730   -0.1250    2.3620 c         1 12T      0.654700
     11 CAK         1.3620   -0.1310   -0.1580 ca        1 12T      0.120600
     12 CAL         3.5320    0.0480   -1.2630 ca        1 12T     -0.069600
     13 CAM         2.0160   -0.0810    1.0970 ca        1 12T     -0.255600
     14 HNAA        0.1360    1.3290    1.8000 ho        1 12T      0.439000
     15 HNAB       -0.4540   -0.7340    0.4900 hn        1 12T      0.376800
     16 HAF         5.2650    0.1550    0.0120 ha        1 12T      0.161000
     17 HAG         3.9060    0.0130    2.1360 ha        1 12T      0.126000
     18 HAH         1.6830   -0.0990   -2.3310 ha        1 12T      0.161000
     19 HAA3       -0.3610   -0.4830   -1.1410 hn        1 12T      0.376800
@<TRIPOS>BOND
     1    1   11 1   
     2    1   15 1   
     3    1   19 1   
     4    2    9 1   
     5    3   10 1   
     6    3   14 1   
     7    4    9 1   
     8    5   10 2   
     9    6    7 ar  
    10    6   12 ar  
    11    6   16 1   
    12    7   13 ar  
    13    7   17 1   
    14    8   11 ar  
    15    8   12 ar  
    16    8   18 1   
    17    9   12 1   
    18   10   13 1   
    19   11   13 ar  
@<TRIPOS>SUBSTRUCTURE
     1 12T         1 TEMP              0 ****  ****    0 ROOT
