@<TRIPOS>MOLECULE
12T
   18    18     1     0     0
SMALL
bcc


@<TRIPOS>ATOM
      1 NAA        -0.0350    0.3310   -0.0820 nv        1 12T     -0.811200
      2 OAB         5.5300   -0.0910   -2.4980 o         1 12T     -0.863300
      3 OAC         0.1960   -0.4980    2.6420 o         1 12T     -0.866800
      4 OAD         3.6190   -0.1260   -3.6230 o         1 12T     -0.863300
      5 OAE         1.9640    0.4550    3.5750 o         1 12T     -0.866800
      6 CAF         4.1690   -0.0500   -0.0010 ca        1 12T     -0.161000
      7 CAG         3.4550   -0.0150    1.1920 ca        1 12T     -0.119000
      8 CAH         2.1050    0.0920   -1.2280 ca        1 12T     -0.163000
      9 CAI         4.2620   -0.0780   -2.5300 c         1 12T      0.905200
     10 CAJ         1.3600    0.0100    2.5530 c         1 12T      0.911200
     11 CAK         1.3680    0.1390   -0.0210 ca        1 12T      0.090600
     12 CAL         3.4950   -0.0090   -1.2260 ca        1 12T     -0.119600
     13 CAM         2.0590    0.0570    1.2120 ca        1 12T     -0.176600
     14 HNAA       -0.4460   -0.3260   -0.7150 hn        1 12T      0.363800
     15 HNAB       -0.4530    0.2330    0.8290 hn        1 12T      0.363800
     16 HAF         5.2670   -0.1140   -0.0070 ha        1 12T      0.125000
     17 HAG         3.9800   -0.0450    2.1600 ha        1 12T      0.121000
     18 HAH         1.5930    0.1310   -2.2020 ha        1 12T      0.131000
@<TRIPOS>BOND
     1    1   11 1   
     2    1   14 1   
     3    1   15 1   
     4    2    9 1   
     5    3   10 1   
     6    4    9 1   
     7    5   10 1   
     8    6    7 ar  
     9    6   12 ar  
    10    6   16 1   
    11    7   13 ar  
    12    7   17 1   
    13    8   11 ar  
    14    8   12 ar  
    15    8   18 1   
    16    9   12 1   
    17   10   13 1   
    18   11   13 ar  
@<TRIPOS>SUBSTRUCTURE
     1 12T         1 TEMP              0 ****  ****    0 ROOT
