@<TRIPOS>MOLECULE
12T
   18    16     1     0     0
SMALL
bcc


@<TRIPOS>ATOM
      1 NAA        -2.4650   -0.0150   -0.0220 n3        1 12T     -0.320000
      2 OAB         2.0860    1.0870   -3.0810 o         1 12T     -0.598000
      3 OAC        -1.1090   -1.0150    3.2300 o         1 12T     -0.601500
      4 OAD         2.1230   -1.0930   -3.0730 o         1 12T     -0.598000
      5 OAE        -1.1090    1.1640    3.1330 o         1 12T     -0.601500
      6 CAF         1.7250   -0.0150   -0.0220 c1        1 12T     -0.161000
      7 CAG         1.0320   -0.0150    1.1790 c1        1 12T     -0.119000
      8 CAH        -0.3540   -0.0150   -1.2220 c1        1 12T     -0.163000
      9 CAI         1.7890   -0.0070   -2.5320 c2        1 12T      0.354000
     10 CAJ        -0.8880    0.0480    2.5920 c2        1 12T      0.360000
     11 CAK        -1.0470   -0.0150   -0.0220 c2        1 12T      0.009000
     12 CAL         1.0320   -0.0150   -1.2220 c1        1 12T     -0.099000
     13 CAM        -0.3540   -0.0150    1.1790 c2        1 12T     -0.156000
     14 HNAA       -2.9210    0.7690   -0.1120 hn        1 12T      0.159000
     15 HNAB       -2.9210   -0.8010    0.0610 hn        1 12T      0.159000
     16 HAF         2.7020   -0.0150   -0.0220 ha        1 12T      0.125000
     17 HAG         1.5210   -0.0170    2.0240 ha        1 12T      0.121000
     18 HAH        -0.8420   -0.0140   -2.0670 ha        1 12T      0.131000
@<TRIPOS>BOND
     1    1   11 1   
     2    1   14 1   
     3    1   15 1   
     4    2    9 1   
     5    3   10 1   
     6    4    9 1   
     7    5   10 1   
     8    6   12 1   
     9    6   16 1   
    10    7   13 1   
    11    7   17 1   
    12    8   11 1   
    13    8   18 1   
    14    9   12 1   
    15   10   13 1   
    16   11   13 1   
@<TRIPOS>SUBSTRUCTURE
     1 12T         1 TEMP              0 ****  ****    0 ROOT
