@<TRIPOS>MOLECULE
12U
   62    64     1     0     0
SMALL
bcc


@<TRIPOS>ATOM
      1 C14        -1.8460    1.0830    0.6070 c         1 12U      0.629100
      2 O32        -1.1600    0.1510    0.1290 o         1 12U     -0.639100
      3 C5         -3.1770    0.8150    1.3270 c3        1 12U      0.110800
      4 N21        -3.5750   -0.5630    1.4350 n3        1 12U     -0.811200
      5 C49        -4.5350   -1.0340    0.4380 c3        1 12U      0.176500
      6 C48        -5.1140   -2.3920    0.8800 c3        1 12U     -0.093900
      7 C47        -6.4550   -2.6820    0.2420 c3        1 12U     -0.072400
      8 C46        -6.4360   -2.6990   -1.2720 c3        1 12U     -0.075400
      9 C52        -6.3780   -1.3120   -1.8740 c3        1 12U     -0.075400
     10 C51        -4.9770   -0.7690   -2.0610 c3        1 12U     -0.072400
     11 C50        -3.9800   -1.1570   -0.9920 c3        1 12U     -0.093900
     12 N1         -1.3830    2.3830    0.5590 n         1 12U     -0.461800
     13 C1         -0.2020    2.7700   -0.2030 c3        1 12U      0.033700
     14 C7          1.1160    2.5890    0.5920 c         1 12U      0.650100
     15 O22         1.8760    3.5540    0.8080 o         1 12U     -0.617100
     16 C2         -0.3980    4.2480   -0.6060 c3        1 12U     -0.087400
     17 C3         -1.5810    4.7630    0.2060 c3        1 12U     -0.090400
     18 C4         -2.2050    3.5330    0.8860 c3        1 12U      0.089000
     19 N23         1.3950    1.3220    1.0510 n         1 12U     -0.551900
     20 C24         2.6590    0.9890    1.6510 c3        1 12U      0.126300
     21 C25         3.5320    0.1040    0.8040 ca        1 12U     -0.104300
     22 C30         3.1070   -1.1840    0.4620 ca        1 12U     -0.125000
     23 C29         3.9250   -2.0170   -0.2980 ca        1 12U     -0.101000
     24 C28         5.1800   -1.5630   -0.7190 ca        1 12U     -0.139900
     25 C9          6.0680   -2.4540   -1.5330 ce        1 12U      0.650800
     26 N10         6.5670   -1.9880   -2.6380 n2        1 12U     -0.825100
     27 N11         6.2060   -3.7620   -1.0170 nh        1 12U     -0.958800
     28 C27         5.6030   -0.2720   -0.3920 ca        1 12U     -0.101000
     29 C26         4.7800    0.5580    0.3680 ca        1 12U     -0.125000
     30 H5         -3.0600    1.2010    2.3830 h1        1 12U      0.072700
     31 H5A        -3.9830    1.4170    0.8200 h1        1 12U      0.072700
     32 HN21       -2.7720   -1.1670    1.4610 hn        1 12U      0.381800
     33 H49        -5.3820   -0.2850    0.4280 h1        1 12U      0.054700
     34 H48        -4.3880   -3.2080    0.6270 hc        1 12U      0.049700
     35 H48A       -5.2510   -2.4020    1.9950 hc        1 12U      0.049700
     36 H47        -6.8000   -3.6880    0.6070 hc        1 12U      0.037200
     37 H47A       -7.2070   -1.9290    0.5980 hc        1 12U      0.037200
     38 H46        -5.5710   -3.3130   -1.6360 hc        1 12U      0.038700
     39 H46A       -7.3740   -3.2050   -1.6280 hc        1 12U      0.038700
     40 H52        -6.8820   -1.3300   -2.8780 hc        1 12U      0.038700
     41 H52A       -6.9700   -0.6050   -1.2320 hc        1 12U      0.038700
     42 H51        -4.5760   -1.1250   -3.0490 hc        1 12U      0.037200
     43 H51A       -5.0380    0.3510   -2.1190 hc        1 12U      0.037200
     44 H50        -3.0700   -0.5070   -1.1120 hc        1 12U      0.049700
     45 H50A       -3.6360   -2.2110   -1.1660 hc        1 12U      0.049700
     46 H1         -0.1160    2.1170   -1.1210 h1        1 12U      0.084700
     47 H2          0.5260    4.8450   -0.3970 hc        1 12U      0.075700
     48 H2A        -0.6110    4.3060   -1.7020 hc        1 12U      0.075700
     49 H3         -1.2430    5.4980    0.9770 hc        1 12U      0.058200
     50 H3A        -2.3310    5.2690   -0.4490 hc        1 12U      0.058200
     51 H4         -2.2320    3.6620    2.0030 h1        1 12U      0.046700
     52 H4A        -3.2610    3.3810    0.5280 h1        1 12U      0.046700
     53 HN23        0.8390    0.5600    0.7250 hn        1 12U      0.335500
     54 H24         3.2090    1.9430    1.9000 h1        1 12U      0.069200
     55 H24A        2.4450    0.4440    2.6190 h1        1 12U      0.069200
     56 H30         2.1190   -1.5420    0.7920 ha        1 12U      0.140500
     57 H29         3.5750   -3.0230   -0.5750 ha        1 12U      0.146500
     58 HN10        7.1550   -2.6070   -3.1560 hn        1 12U      0.381400
     59 HN11        5.9860   -3.8650   -0.0540 hn        1 12U      0.398300
     60 HN1A        7.0030   -4.2770   -1.3110 hn        1 12U      0.398300
     61 H27         6.5790    0.0960   -0.7460 ha        1 12U      0.146500
     62 H26         5.1120    1.5770    0.6180 ha        1 12U      0.140500
@<TRIPOS>BOND
     1    1    2 2   
     2    1    3 1   
     3    1   12 1   
     4    3    4 1   
     5    3   30 1   
     6    3   31 1   
     7    4    5 1   
     8    4   32 1   
     9    5    6 1   
    10    5   11 1   
    11    5   33 1   
    12    6    7 1   
    13    6   34 1   
    14    6   35 1   
    15    7    8 1   
    16    7   36 1   
    17    7   37 1   
    18    8    9 1   
    19    8   38 1   
    20    8   39 1   
    21    9   10 1   
    22    9   40 1   
    23    9   41 1   
    24   10   11 1   
    25   10   42 1   
    26   10   43 1   
    27   11   44 1   
    28   11   45 1   
    29   12   13 1   
    30   12   18 1   
    31   13   14 1   
    32   13   16 1   
    33   13   46 1   
    34   14   15 2   
    35   14   19 1   
    36   16   17 1   
    37   16   47 1   
    38   16   48 1   
    39   17   18 1   
    40   17   49 1   
    41   17   50 1   
    42   18   51 1   
    43   18   52 1   
    44   19   20 1   
    45   19   53 1   
    46   20   21 1   
    47   20   54 1   
    48   20   55 1   
    49   21   22 ar  
    50   21   29 ar  
    51   22   23 ar  
    52   22   56 1   
    53   23   24 ar  
    54   23   57 1   
    55   24   25 1   
    56   24   28 ar  
    57   25   26 2   
    58   25   27 1   
    59   26   58 1   
    60   27   59 1   
    61   27   60 1   
    62   28   29 ar  
    63   28   61 1   
    64   29   62 1   
@<TRIPOS>SUBSTRUCTURE
     1 12U         1 TEMP              0 ****  ****    0 ROOT
