@<TRIPOS>MOLECULE
12U
   65    67     1     0     0
SMALL
bcc


@<TRIPOS>ATOM
      1 C14         0.2920   -0.2900    0.5050 c         1 12U      0.656100
      2 O32         1.2810   -1.0440    0.5950 o         1 12U     -0.592100
      3 C5         -0.5170    0.1070    1.7450 c3        1 12U      0.034800
      4 N21         0.1050   -0.3920    2.9980 n4        1 12U     -0.765000
      5 C49        -0.8120   -0.2240    4.2060 c3        1 12U      0.137500
      6 C48         0.0290   -0.1970    5.4900 c3        1 12U     -0.100900
      7 C47        -0.7370    0.4420    6.6320 c3        1 12U     -0.081400
      8 C46        -2.0560   -0.2280    6.9530 c3        1 12U     -0.091400
      9 C52        -3.1430    0.0950    5.9510 c3        1 12U     -0.091400
     10 C51        -3.1990   -0.8400    4.7610 c3        1 12U     -0.081400
     11 C50        -1.8590   -1.3420    4.2620 c3        1 12U     -0.100900
     12 N1         -0.0900    0.2300   -0.7150 n         1 12U     -0.453800
     13 C1          0.4970   -0.2380   -1.9540 c3        1 12U      0.061700
     14 C7          1.8730    0.4010   -2.2190 c         1 12U      0.522100
     15 O22         2.4040    1.3400   -1.6570 o         1 12U     -0.375100
     16 C2         -0.4760    0.1510   -3.0950 c3        1 12U     -0.094400
     17 C3         -1.5730    1.0010   -2.4570 c3        1 12U     -0.093400
     18 C4         -1.2940    1.0210   -0.9460 c3        1 12U      0.078000
     19 N23         2.6730   -0.2590   -3.3380 n4        1 12U     -0.684800
     20 C24         3.5000    0.7250   -4.1120 c3        1 12U      0.155100
     21 C25         4.4230    0.0760   -5.0930 ca        1 12U     -0.136300
     22 C30         5.6740   -0.3940   -4.6750 ca        1 12U     -0.091000
     23 C29         6.5810   -0.9030   -5.6050 ca        1 12U     -0.081000
     24 C28         6.2370   -0.9400   -6.9620 ca        1 12U     -0.209900
     25 C9          7.1810   -1.5320   -7.9440 ce        1 12U      0.563800
     26 N10         7.3910   -2.7470   -8.2700 n2        1 12U     -0.665100
     27 N11         8.0100   -0.4970   -8.6540 n4        1 12U     -0.819600
     28 C27         4.9870   -0.4770   -7.3850 ca        1 12U     -0.081000
     29 C26         4.0810    0.0290   -6.4500 ca        1 12U     -0.091000
     30 H5         -1.5580   -0.3310    1.6610 hx        1 12U      0.138700
     31 H5A        -0.6050    1.2330    1.8060 hx        1 12U      0.138700
     32 HN21        0.3420   -1.3870    2.8870 hn        1 12U      0.462300
     33 H49        -1.3210    0.7780    4.0740 hx        1 12U      0.109700
     34 H48         0.3260   -1.2420    5.7720 hc        1 12U      0.066450
     35 H48A        0.9720    0.3970    5.3380 hc        1 12U      0.066450
     36 H47        -0.0770    0.3930    7.5420 hc        1 12U      0.068700
     37 H47A       -0.9090    1.5290    6.4080 hc        1 12U      0.068700
     38 H46        -2.3870    0.1370    7.9650 hc        1 12U      0.066700
     39 H46A       -1.9180   -1.3370    7.0380 hc        1 12U      0.066700
     40 H52        -4.1400    0.0460    6.4710 hc        1 12U      0.066700
     41 H52A       -3.0250    1.1540    5.5960 hc        1 12U      0.066700
     42 H51        -3.7380   -0.3220    3.9230 hc        1 12U      0.068700
     43 H51A       -3.8100   -1.7450    5.0340 hc        1 12U      0.068700
     44 H50        -2.0180   -1.8100    3.2530 hc        1 12U      0.066450
     45 H50A       -1.4900   -2.1580    4.9430 hc        1 12U      0.066450
     46 H1          0.6560   -1.3580   -1.8950 h1        1 12U      0.114700
     47 H2          0.0420    0.7220   -3.9040 hc        1 12U      0.080200
     48 H2A        -0.9080   -0.7800   -3.5430 hc        1 12U      0.080200
     49 H3         -2.5840    0.5650   -2.6620 hc        1 12U      0.101200
     50 H3A        -1.5650    2.0430   -2.8660 hc        1 12U      0.101200
     51 H4         -2.1580    0.5800   -0.3770 h1        1 12U      0.079700
     52 H4A        -1.1200    2.0730   -0.5830 h1        1 12U      0.079700
     53 HN23        2.0310   -0.7440   -3.9730 hn        1 12U      0.462300
     54 H24         2.7860    1.4240   -4.6390 hx        1 12U      0.129700
     55 H24A        4.0970    1.3310   -3.3640 hx        1 12U      0.129700
     56 H30         5.9650   -0.3470   -3.6120 ha        1 12U      0.167000
     57 H29         7.5620   -1.2730   -5.2600 ha        1 12U      0.175500
     58 HN10        6.8720   -3.4830   -7.8370 hn        1 12U      0.499400
     59 HN11        8.5780    0.0050   -7.9620 hn        1 12U      0.480800
     60 HN1A        7.3820    0.1640   -9.1250 hn        1 12U      0.480800
     61 H27         4.7000   -0.5140   -8.4510 ha        1 12U      0.175500
     62 H26         3.1050    0.4060   -6.8000 ha        1 12U      0.167000
     63 H212        0.9820    0.1170    3.1670 hn        1 12U      0.462300
     64 H232        3.2950   -0.9610   -2.9160 hn        1 12U      0.462300
     65 H113        8.6370   -0.9260   -9.3540 hn        1 12U      0.480800
@<TRIPOS>BOND
     1    1    2 2   
     2    1    3 1   
     3    1   12 1   
     4    3    4 1   
     5    3   30 1   
     6    3   31 1   
     7    4    5 1   
     8    4   32 1   
     9    4   63 1   
    10    5    6 1   
    11    5   11 1   
    12    5   33 1   
    13    6    7 1   
    14    6   34 1   
    15    6   35 1   
    16    7    8 1   
    17    7   36 1   
    18    7   37 1   
    19    8    9 1   
    20    8   38 1   
    21    8   39 1   
    22    9   10 1   
    23    9   40 1   
    24    9   41 1   
    25   10   11 1   
    26   10   42 1   
    27   10   43 1   
    28   11   44 1   
    29   11   45 1   
    30   12   13 1   
    31   12   18 1   
    32   13   14 1   
    33   13   16 1   
    34   13   46 1   
    35   14   15 2   
    36   14   19 1   
    37   16   17 1   
    38   16   47 1   
    39   16   48 1   
    40   17   18 1   
    41   17   49 1   
    42   17   50 1   
    43   18   51 1   
    44   18   52 1   
    45   19   20 1   
    46   19   53 1   
    47   19   64 1   
    48   20   21 1   
    49   20   54 1   
    50   20   55 1   
    51   21   22 ar  
    52   21   29 ar  
    53   22   23 ar  
    54   22   56 1   
    55   23   24 ar  
    56   23   57 1   
    57   24   25 1   
    58   24   28 ar  
    59   25   26 2   
    60   25   27 1   
    61   26   58 1   
    62   27   59 1   
    63   27   60 1   
    64   27   65 1   
    65   28   29 ar  
    66   28   61 1   
    67   29   62 1   
@<TRIPOS>SUBSTRUCTURE
     1 12U         1 TEMP              0 ****  ****    0 ROOT
