@<TRIPOS>MOLECULE
12U
   62    58     1     0     0
SMALL
bcc


@<TRIPOS>ATOM
      1 C14        -0.7280    1.5310    0.8570 c1        1 12U      0.265000
      2 O32         0.4250    1.1560    0.8590 o         1 12U     -0.399000
      3 C5         -1.4740    1.6980    2.1700 c3        1 12U     -0.079000
      4 N21        -1.4660    0.4440    2.8920 n3        1 12U     -0.281000
      5 C49        -1.6600    0.6940    4.2810 c3        1 12U     -0.022000
      6 C48        -0.7660   -0.2300    5.0840 c3        1 12U     -0.150000
      7 C47        -1.0680   -1.6780    4.7720 c3        1 12U     -0.151500
      8 C46        -1.9710   -2.2790    5.8260 c3        1 12U     -0.152000
      9 C52        -3.3940   -1.8060    5.6480 c3        1 12U     -0.152000
     10 C51        -3.5330   -0.9800    4.3820 c3        1 12U     -0.151500
     11 C50        -3.1310    0.4690    4.6320 c3        1 12U     -0.150000
     12 N1         -1.4140    1.7330   -0.3870 n2        1 12U     -0.318000
     13 C1         -0.9190    1.5480   -1.5900 c3        1 12U      0.006000
     14 C7          0.5790    1.8430   -1.5800 c1        1 12U      0.296000
     15 O22         1.0930    2.3540   -0.6000 o         1 12U     -0.377000
     16 C2         -1.7910    2.5750   -2.4590 c3        1 12U     -0.167000
     17 C3         -2.9410    3.0160   -1.5710 c3        1 12U     -0.169000
     18 C4         -2.9250    2.2220   -0.5690 c3        1 12U     -0.029000
     19 N23         1.3910    1.5300   -2.7500 n2        1 12U     -0.362000
     20 C24         2.8150    1.2610   -2.5980 c3        1 12U      0.003000
     21 C25         3.2320    0.1280   -3.5610 c2        1 12U     -0.094000
     22 C30         2.7370   -1.1560   -3.3710 c2        1 12U     -0.128000
     23 C29         3.2260   -2.2140   -4.1390 c1        1 12U     -0.096000
     24 C28         4.2090   -1.9840   -5.0940 c1        1 12U     -0.112000
     25 C9          4.6220   -3.1210   -6.0630 c1        1 12U      0.115000
     26 N10         4.1160   -3.1700   -7.2650 n1        1 12U     -0.303000
     27 N11         5.5620   -4.1220   -5.6390 n3        1 12U     -0.331000
     28 C27         4.7050   -0.6990   -5.2840 c1        1 12U     -0.116000
     29 C26         4.2160    0.3590   -4.5170 c1        1 12U     -0.116000
     30 H5         -1.0350    2.3880    2.7100 h1        1 12U      0.115000
     31 H5A        -2.3990    1.9650    1.9880 h1        1 12U      0.115000
     32 HN21       -0.6540    0.0200    2.7650 hn        1 12U      0.176000
     33 H49        -1.4210    1.6250    4.4780 h1        1 12U      0.065000
     34 H48        -0.9120   -0.0710    6.0350 hc        1 12U      0.080750
     35 H48A        0.1710   -0.0420    4.8660 hc        1 12U      0.080750
     36 H47        -1.5090   -1.7330    3.9030 hc        1 12U      0.084000
     37 H47A       -0.2320   -2.1810    4.7400 hc        1 12U      0.084000
     38 H46        -1.6520   -2.0130    6.7120 hc        1 12U      0.074250
     39 H46A       -1.9450   -3.2530    5.7540 hc        1 12U      0.074250
     40 H52        -3.6510   -1.2590    6.4200 hc        1 12U      0.074250
     41 H52A       -3.9860   -2.5820    5.5920 hc        1 12U      0.074250
     42 H51        -4.4620   -1.0080    4.0800 hc        1 12U      0.084000
     43 H51A       -2.9600   -1.3560    3.6890 hc        1 12U      0.084000
     44 H50        -3.2730    0.6840    5.5770 hc        1 12U      0.080750
     45 H50A       -3.6900    1.0590    4.0780 hc        1 12U      0.080750
     46 H1         -0.9390    0.6480   -1.9680 h1        1 12U      0.123000
     47 H2         -1.2460    3.3480   -2.7130 hc        1 12U      0.115000
     48 H2A        -2.1370    2.1260   -3.2630 hc        1 12U      0.115000
     49 H3         -2.8040    3.9400   -1.2730 hc        1 12U      0.097000
     50 H3A        -3.7940    2.9370   -2.0550 hc        1 12U      0.097000
     51 H4         -3.2240    2.6930    0.2370 h1        1 12U      0.087000
     52 H4A        -3.5070    1.4530   -0.7430 h1        1 12U      0.087000
     53 HN23        1.0150    1.5400   -3.5820 hn        1 12U      0.248000
     54 H24         3.3240    2.0690   -2.8080 h1        1 12U      0.109000
     55 H24A        2.9990    0.9910   -1.6800 h1        1 12U      0.109000
     56 H30         2.0480   -1.3180   -2.7020 ha        1 12U      0.139000
     57 H29         2.8780   -3.1180   -4.0040 ha        1 12U      0.150000
     58 HN10        3.5190   -2.5350   -7.5350 DU        1 12U      0.151000
     59 HN11        5.6770   -4.8910   -6.1420 hn        1 12U      0.193000
     60 HN1A        6.0900   -3.9720   -4.9060 hn        1 12U      0.193000
     61 H27         5.4000   -0.5360   -5.9600 ha        1 12U      0.139000
     62 H26         4.5650    1.2640   -4.6510 ha        1 12U      0.144000
@<TRIPOS>BOND
     1    1    2 1   
     2    1    3 1   
     3    3    4 1   
     4    3   30 1   
     5    3   31 1   
     6    4    5 1   
     7    4   32 1   
     8    5    6 1   
     9    5   11 1   
    10    5   33 1   
    11    6    7 1   
    12    6   34 1   
    13    6   35 1   
    14    7    8 1   
    15    7   36 1   
    16    7   37 1   
    17    8    9 1   
    18    8   38 1   
    19    8   39 1   
    20    9   10 1   
    21    9   40 1   
    22    9   41 1   
    23   10   11 1   
    24   10   42 1   
    25   10   43 1   
    26   11   44 1   
    27   11   45 1   
    28   12   13 1   
    29   12   18 1   
    30   13   14 1   
    31   13   16 1   
    32   13   46 1   
    33   14   15 1   
    34   16   17 1   
    35   16   47 1   
    36   16   48 1   
    37   17   18 1   
    38   17   49 1   
    39   17   50 1   
    40   18   51 1   
    41   18   52 1   
    42   19   20 1   
    43   19   53 1   
    44   20   21 1   
    45   20   54 1   
    46   20   55 1   
    47   21   22 1   
    48   21   29 1   
    49   22   23 1   
    50   22   56 1   
    51   23   57 1   
    52   24   28 1   
    53   25   26 1   
    54   25   27 1   
    55   27   59 1   
    56   27   60 1   
    57   28   61 1   
    58   29   62 1   
@<TRIPOS>SUBSTRUCTURE
     1 12U         1 TEMP              0 ****  ****    0 ROOT
