@<TRIPOS>MOLECULE
12U
   65    67     1     0     0
SMALL
bcc


@<TRIPOS>ATOM
      1 C14         0.2970   -0.2970    0.5100 c         1 12U      0.656100
      2 O32         1.3100   -1.0170    0.6100 o         1 12U     -0.592100
      3 C5         -0.5190    0.0960    1.7480 c3        1 12U      0.034800
      4 N21         0.1250   -0.3580    3.0060 ny        1 12U     -0.765000
      5 C49        -0.7910   -0.1980    4.2160 c3        1 12U      0.137500
      6 C48         0.0550   -0.1180    5.4940 c3        1 12U     -0.100900
      7 C47        -0.7270    0.5160    6.6280 c3        1 12U     -0.081400
      8 C46        -2.0210   -0.1910    6.9690 c3        1 12U     -0.091400
      9 C52        -3.1230    0.0750    5.9670 c3        1 12U     -0.091400
     10 C51        -3.1540   -0.8830    4.7960 c3        1 12U     -0.081400
     11 C50        -1.7990   -1.3490    4.2990 c3        1 12U     -0.100900
     12 N1         -0.1080    0.1860   -0.7160 n         1 12U     -0.453800
     13 C1          0.4880   -0.2860   -1.9500 c3        1 12U      0.061700
     14 C7          1.8420    0.3930   -2.2340 c         1 12U      0.522100
     15 O22         2.3430    1.3600   -1.6930 o         1 12U     -0.375100
     16 C2         -0.5030    0.0500   -3.0930 c3        1 12U     -0.094400
     17 C3         -1.6240    0.8750   -2.4640 c3        1 12U     -0.093400
     18 C4         -1.3380    0.9320   -0.9560 c3        1 12U      0.078000
     19 N23         2.6580   -0.2620   -3.3440 ny        1 12U     -0.684800
     20 C24         3.4620    0.7300   -4.1300 c3        1 12U      0.155100
     21 C25         4.3970    0.0910   -5.1070 ca        1 12U     -0.136300
     22 C30         5.6580   -0.3480   -4.6860 ca        1 12U     -0.091000
     23 C29         6.5740   -0.8470   -5.6130 ca        1 12U     -0.081000
     24 C28         6.2280   -0.9070   -6.9680 ca        1 12U     -0.209900
     25 C9          7.1830   -1.4890   -7.9470 ce        1 12U      0.563800
     26 N10         7.4180   -2.7020   -8.2600 n2        1 12U     -0.665100
     27 N11         7.9870   -0.4440   -8.6690 nz        1 12U     -0.819600
     28 C27         4.9670   -0.4760   -7.3940 ca        1 12U     -0.081000
     29 C26         4.0530    0.0200   -6.4620 ca        1 12U     -0.091000
     30 H5         -0.6450    1.2180    1.7880 hx        1 12U      0.138700
     31 H5A        -1.5450   -0.3790    1.6770 hx        1 12U      0.138700
     32 HN21        0.3950   -1.3470    2.9130 hn        1 12U      0.462300
     33 H49        -1.3350    0.7840    4.0680 hx        1 12U      0.109700
     34 H48         0.9770    0.5040    5.3260 hc        1 12U      0.066450
     35 H48A        0.3880   -1.1470    5.7950 hc        1 12U      0.066450
     36 H47        -0.0610    0.5070    7.5360 hc        1 12U      0.068700
     37 H47A       -0.9370    1.5920    6.3850 hc        1 12U      0.068700
     38 H46        -1.8460   -1.2940    7.0740 hc        1 12U      0.066950
     39 H46A       -2.3590    0.1820    7.9760 hc        1 12U      0.066950
     40 H52        -4.1150    0.0030    6.4940 hc        1 12U      0.066950
     41 H52A       -3.0420    1.1310    5.5920 hc        1 12U      0.066950
     42 H51        -3.7330   -1.8030    5.0880 hc        1 12U      0.068700
     43 H51A       -3.7130   -0.3990    3.9510 hc        1 12U      0.068700
     44 H50        -1.4000   -2.1390    4.9930 hc        1 12U      0.066450
     45 H50A       -1.9480   -1.8420    3.3000 hc        1 12U      0.066450
     46 H1          0.6840   -1.3990   -1.8710 h1        1 12U      0.114700
     47 H2         -0.0070    0.6230   -3.9140 hc        1 12U      0.080200
     48 H2A        -0.9060   -0.9030   -3.5220 hc        1 12U      0.080200
     49 H3         -2.6210    0.4010   -2.6560 hc        1 12U      0.101200
     50 H3A        -1.6530    1.9090   -2.8930 hc        1 12U      0.101200
     51 H4         -1.1980    1.9960   -0.6140 h1        1 12U      0.079700
     52 H4A        -2.1850    0.4740   -0.3740 h1        1 12U      0.079700
     53 HN23        3.2960   -0.9440   -2.9120 hn        1 12U      0.461800
     54 H24         4.0480    1.3580   -3.3900 hx        1 12U      0.129700
     55 H24A        2.7320    1.4080   -4.6640 hx        1 12U      0.129700
     56 H30         5.9510   -0.2820   -3.6240 ha        1 12U      0.167000
     57 H29         7.5640   -1.1920   -5.2660 ha        1 12U      0.175500
     58 HN10        6.9160   -3.4450   -7.8170 hn        1 12U      0.499400
     59 HN11        8.6220   -0.8670   -9.3670 hn        1 12U      0.480800
     60 HN1A        8.5450    0.0780   -7.9840 hn        1 12U      0.480800
     61 H27         4.6790   -0.5310   -8.4580 ha        1 12U      0.175500
     62 H26         3.0680    0.3730   -6.8130 ha        1 12U      0.167000
     63 H212        0.9860    0.1830    3.1610 hn        1 12U      0.462300
     64 H232        2.0270   -0.7700   -3.9730 hn        1 12U      0.461800
     65 H113        7.3440    0.1980   -9.1460 hn        1 12U      0.480800
@<TRIPOS>BOND
     1    1    2 2   
     2    1    3 1   
     3    1   12 1   
     4    3    4 1   
     5    3   30 1   
     6    3   31 1   
     7    4    5 1   
     8    4   32 1   
     9    4   63 1   
    10    5    6 1   
    11    5   11 1   
    12    5   33 1   
    13    6    7 1   
    14    6   34 1   
    15    6   35 1   
    16    7    8 1   
    17    7   36 1   
    18    7   37 1   
    19    8    9 1   
    20    8   38 1   
    21    8   39 1   
    22    9   10 1   
    23    9   40 1   
    24    9   41 1   
    25   10   11 1   
    26   10   42 1   
    27   10   43 1   
    28   11   44 1   
    29   11   45 1   
    30   12   13 1   
    31   12   18 1   
    32   13   14 1   
    33   13   16 1   
    34   13   46 1   
    35   14   15 2   
    36   14   19 1   
    37   16   17 1   
    38   16   47 1   
    39   16   48 1   
    40   17   18 1   
    41   17   49 1   
    42   17   50 1   
    43   18   51 1   
    44   18   52 1   
    45   19   20 1   
    46   19   53 1   
    47   19   64 1   
    48   20   21 1   
    49   20   54 1   
    50   20   55 1   
    51   21   22 ar  
    52   21   29 ar  
    53   22   23 ar  
    54   22   56 1   
    55   23   24 ar  
    56   23   57 1   
    57   24   25 1   
    58   24   28 ar  
    59   25   26 2   
    60   25   27 1   
    61   26   58 1   
    62   27   59 1   
    63   27   60 1   
    64   27   65 1   
    65   28   29 ar  
    66   28   61 1   
    67   29   62 1   
@<TRIPOS>SUBSTRUCTURE
     1 12U         1 TEMP              0 ****  ****    0 ROOT
