@<TRIPOS>MOLECULE
12W
   19    19     1     0     0
SMALL
bcc


@<TRIPOS>ATOM
      1 C25         1.8980    0.0170   -0.0570 c         1 12W      0.764200
      2 O26         2.1520    0.8180   -0.9560 o         1 12W     -0.593000
      3 O27         0.6930   -0.4750    0.2980 os        1 12W     -0.387900
      4 C28        -0.4430    0.0370   -0.4470 c3        1 12W      0.149100
      5 C29        -1.1140    1.1550    0.3540 c3        1 12W     -0.095400
      6 C30        -2.5960    0.8200    0.4140 c3        1 12W     -0.078900
      7 C31        -2.7430   -0.6580    0.0770 c3        1 12W     -0.078900
      8 C32        -1.4380   -1.1220   -0.5560 c3        1 12W     -0.095400
      9 H26        -0.1000    0.3940   -1.4540 h1        1 12W      0.083700
     10 H27        -0.6770    1.1980    1.3840 hc        1 12W      0.061700
     11 H28        -0.9400    2.1450   -0.1330 hc        1 12W      0.061700
     12 H29        -3.0120    1.0410    1.4280 hc        1 12W      0.046700
     13 H30        -3.1630    1.4430   -0.3240 hc        1 12W      0.046700
     14 H31        -2.9500   -1.2480    1.0050 hc        1 12W      0.046700
     15 H32        -3.6010   -0.8220   -0.6210 hc        1 12W      0.046700
     16 H33        -1.5850   -1.3890   -1.6310 hc        1 12W      0.061700
     17 H34        -1.0380   -2.0260   -0.0300 hc        1 12W      0.061700
     18 OXT         2.8330   -0.5330    0.7500 oh        1 12W     -0.557100
     19 HXT         3.6980   -0.1780    0.4770 ho        1 12W      0.456000
@<TRIPOS>BOND
     1    1    2 2   
     2    1    3 1   
     3    1   18 1   
     4    3    4 1   
     5    4    5 1   
     6    4    8 1   
     7    4    9 1   
     8    5    6 1   
     9    5   10 1   
    10    5   11 1   
    11    6    7 1   
    12    6   12 1   
    13    6   13 1   
    14    7    8 1   
    15    7   14 1   
    16    7   15 1   
    17    8   16 1   
    18    8   17 1   
    19   18   19 1   
@<TRIPOS>SUBSTRUCTURE
     1 12W         1 TEMP              0 ****  ****    0 ROOT
