@<TRIPOS>MOLECULE
12W
   18    17     1     0     0
SMALL
bcc


@<TRIPOS>ATOM
      1 C25         0.3030    0.0070   -0.9880 c         1 12W      0.497100
      2 O26         0.2220    0.9520   -0.1570 o         1 12W     -0.580500
      3 O27         0.2510   -1.2660   -0.4110 oh        1 12W     -0.710100
      4 C28        -0.0950    0.1990    2.9410 c2        1 12W     -0.189700
      5 C29        -0.1060   -1.2880    3.1400 c3        1 12W     -0.056700
      6 C30        -0.2630   -1.4920    4.6530 c3        1 12W     -0.083400
      7 C31        -0.3360   -0.0880    5.2710 c3        1 12W     -0.056700
      8 C32        -0.2210    0.8520    4.1090 c2        1 12W     -0.189700
      9 H26         0.1600   -1.1540    0.5420 ho        1 12W      0.382000
     10 H27         0.0080    0.6230    1.9260 ha        1 12W      0.172500
     11 H28         0.8440   -1.7410    2.7610 hc        1 12W      0.041700
     12 H29        -0.9520   -1.7520    2.5740 hc        1 12W      0.041700
     13 H30        -1.1890   -2.0710    4.8800 hc        1 12W      0.027700
     14 H31         0.6050   -2.0600    5.0670 hc        1 12W      0.027700
     15 H32        -1.3010    0.0640    5.8150 hc        1 12W      0.041700
     16 H33         0.4950    0.0750    6.0020 hc        1 12W      0.041700
     17 H34        -0.2430    1.9300    4.2610 ha        1 12W      0.172500
     18 OXT         0.4220   -0.0110   -2.2320 o         1 12W     -0.580500
@<TRIPOS>BOND
     1    1    2 1   
     2    1    3 1   
     3    1   18 1   
     4    3    9 1   
     5    4    5 1   
     6    4    8 2   
     7    4   10 1   
     8    5    6 1   
     9    5   11 1   
    10    5   12 1   
    11    6    7 1   
    12    6   13 1   
    13    6   14 1   
    14    7    8 1   
    15    7   15 1   
    16    7   16 1   
    17    8   17 1   
@<TRIPOS>SUBSTRUCTURE
     1 12W         1 TEMP              0 ****  ****    0 ROOT
