@<TRIPOS>MOLECULE
12W
   19    18     1     0     0
SMALL
bcc


@<TRIPOS>ATOM
      1 C25         0.4260   -0.3220   -2.4840 c1        1 12W      0.395000
      2 O26         1.3920   -1.0300   -2.7200 o         1 12W     -0.404000
      3 O27        -0.2280   -0.4200   -1.2560 o         1 12W     -0.226000
      4 C28         0.5990   -0.0950   -0.1300 c3        1 12W      0.038000
      5 C29         0.5570   -1.0570    0.7470 c3        1 12W     -0.174000
      6 C30        -0.6320   -0.6540    1.7550 c3        1 12W     -0.157500
      7 C31        -0.9800    0.8330    1.4200 c3        1 12W     -0.157500
      8 C32         0.0150    1.2520    0.6320 c3        1 12W     -0.174000
      9 H26         1.5270    0.0570   -0.4230 h1        1 12W      0.123000
     10 H27         0.3560   -1.9170    0.3040 hc        1 12W      0.101000
     11 H28         1.4020   -1.1140    1.2250 hc        1 12W      0.101000
     12 H29        -0.3280   -0.7300    2.6850 hc        1 12W      0.086000
     13 H30        -1.4240   -1.2350    1.6030 hc        1 12W      0.086000
     14 H31        -1.8420    0.8840    0.9400 hc        1 12W      0.086000
     15 H32        -1.0130    1.3730    2.2460 hc        1 12W      0.086000
     16 H33        -0.3260    1.8950   -0.0310 hc        1 12W      0.101000
     17 H34         0.7130    1.6620    1.1660 hc        1 12W      0.101000
     18 OXT        -0.0620    0.5310   -3.4600 oh        1 12W     -0.266000
     19 HXT        -0.1510    0.0890   -4.2180 ho        1 12W      0.255000
@<TRIPOS>BOND
     1    1    2 1   
     2    1   18 1   
     3    3    4 1   
     4    4    5 1   
     5    4    8 1   
     6    4    9 1   
     7    5    6 1   
     8    5   10 1   
     9    5   11 1   
    10    6    7 1   
    11    6   12 1   
    12    6   13 1   
    13    7    8 1   
    14    7   14 1   
    15    7   15 1   
    16    8   16 1   
    17    8   17 1   
    18   18   19 1   
@<TRIPOS>SUBSTRUCTURE
     1 12W         1 TEMP              0 ****  ****    0 ROOT
