@<TRIPOS>MOLECULE
12W
   19    18     1     0     0
SMALL
bcc


@<TRIPOS>ATOM
      1 C25        -0.1500    0.0400   -0.6770 c         1 12W      0.774200
      2 O26         1.0330    0.0100   -0.3600 o         1 12W     -0.539000
      3 O27        -1.1880    0.0320    0.1920 oh        1 12W     -0.588100
      4 C28         0.7530   -0.3050    2.9300 c2        1 12W     -0.194200
      5 C29         0.9030   -1.5400    3.7660 c3        1 12W     -0.056700
      6 C30        -0.0950   -1.3650    4.9190 c3        1 12W     -0.084400
      7 C31        -0.7770   -0.0060    4.6990 c3        1 12W     -0.056700
      8 C32        -0.1660    0.5340    3.4420 c2        1 12W     -0.194200
      9 H26        -0.8510   -0.0110    1.1070 ho        1 12W      0.467500
     10 H27         1.3550   -0.1630    2.0260 ha        1 12W      0.147500
     11 H28         0.6760   -2.4560    3.1660 hc        1 12W      0.051700
     12 H29         1.9510   -1.6310    4.1460 hc        1 12W      0.051700
     13 H30         0.4320   -1.3860    5.9030 hc        1 12W      0.044200
     14 H31        -0.8490   -2.1880    4.9180 hc        1 12W      0.044200
     15 H32        -0.5890    0.6860    5.5580 hc        1 12W      0.051700
     16 H33        -1.8840   -0.1200    4.5880 hc        1 12W      0.051700
     17 H34        -0.4640    1.5090    3.0510 ha        1 12W      0.147500
     18 OXT        -0.5750    0.0890   -1.9510 oh        1 12W     -0.588100
     19 HXT        -1.5480    0.1050   -1.9700 ho        1 12W      0.467500
@<TRIPOS>BOND
     1    1    2 2   
     2    1    3 1   
     3    1   18 1   
     4    3    9 1   
     5    4    5 1   
     6    4    8 2   
     7    4   10 1   
     8    5    6 1   
     9    5   11 1   
    10    5   12 1   
    11    6    7 1   
    12    6   13 1   
    13    6   14 1   
    14    7    8 1   
    15    7   15 1   
    16    7   16 1   
    17    8   17 1   
    18   18   19 1   
@<TRIPOS>SUBSTRUCTURE
     1 12W         1 TEMP              0 ****  ****    0 ROOT
