@<TRIPOS>MOLECULE
12X
   55    50     1     0     0
SMALL
bcc


@<TRIPOS>ATOM
      1 C10        -2.4450   -1.9060   -5.9340 c1        1 12X      0.320000
      2 O11        -1.7330   -2.1750   -6.9370 o         1 12X     -0.569500
      3 C12        -2.2700   -2.6590   -4.6840 c2        1 12X     -0.126000
      4 C13        -2.7490   -1.7730   -3.4510 c3        1 12X     -0.150000
      5 C14        -1.5930   -1.7890   -2.4320 c3        1 12X      0.003000
      6 C15        -0.8140   -2.6810   -2.8220 c3        1 12X     -0.102000
      7 N16        -0.9900   -2.7950   -4.4240 n3        1 12X     -0.274000
      8 O33        -2.1230   -2.1280   -1.0440 os        1 12X     -0.204000
      9 C34        -1.7790   -1.1020   -0.1480 c2        1 12X      0.162000
     10 C35        -0.5410   -0.6990    0.2710 c1        1 12X     -0.266000
     11 C36        -0.4220    0.1980    1.3280 c1        1 12X      0.124000
     12 N37        -1.5400    0.6770    1.9480 n1        1 12X     -0.178000
     13 C38        -2.7950    0.2710    1.5260 c1        1 12X      0.079000
     14 C39        -2.9150   -0.6150    0.4820 c1        1 12X     -0.138000
     15 C40        -4.1920   -1.0270    0.0530 c1        1 12X     -0.026000
     16 C41        -5.3290   -0.5390    0.6850 c1        1 12X     -0.225000
     17 C42        -5.2070    0.3590    1.7420 c1        1 12X      0.119000
     18 C43        -3.9480    0.7660    2.1660 c1        1 12X     -0.198000
     19 BR44       -3.6470    1.8060    3.7410 br        1 12X      0.070000
     20 O45        -6.1150    1.0310    2.5780 os        1 12X     -0.203000
     21 C46        -7.4070    0.4650    2.5900 c3        1 12X     -0.074000
     22 C47         1.0470    0.3820    1.6430 c2        1 12X     -0.028000
     23 C48         1.8740   -0.5370    2.3880 c1        1 12X     -0.465000
     24 S49         3.2750    0.0570    2.4720 ss        1 12X      0.580000
     25 C50         3.2520    1.4080    1.7250 c1        1 12X     -0.170000
     26 N51         1.9290    1.6120    1.2260 n2        1 12X     -0.142000
     27 N52         4.3630    2.2650    1.5170 n2        1 12X     -0.294000
     28 C53         5.6640    1.8450    1.8950 c2        1 12X      0.303000
     29 O54         5.8260    0.7500    2.3970 o         1 12X     -0.354000
     30 C55         6.8560    2.7330    1.6180 c3        1 12X     -0.116000
     31 C56         7.7430    2.7830    2.8410 c3        1 12X     -0.209500
     32 C57         7.6380    2.1760    0.4500 c3        1 12X     -0.209500
     33 H9         -2.7790   -3.4720   -4.8810 h4        1 12X      0.096000
     34 H10        -2.9250   -0.8570   -3.7440 hc        1 12X      0.101500
     35 H11        -3.5540   -2.1590   -3.0520 hc        1 12X      0.101500
     36 H12        -1.1380   -0.9230   -2.4200 h1        1 12X      0.097000
     37 H13        -1.0440   -3.5350   -2.3990 h1        1 12X      0.072500
     38 H14         0.1100   -2.4380   -2.6030 h1        1 12X      0.072500
     39 H35         0.2600   -1.0480   -0.1650 ha        1 12X      0.177000
     40 H36        -4.2780   -1.6640   -0.6820 ha        1 12X      0.163000
     41 H37        -6.2130   -0.8250    0.3870 ha        1 12X      0.139000
     42 H38        -7.8140    0.5580    1.7020 h1        1 12X      0.082667
     43 H39        -7.9620    0.9300    3.2540 h1        1 12X      0.082667
     44 H40        -7.3450   -0.4860    2.8240 h1        1 12X      0.082667
     45 H41         1.5860   -1.3880    2.7700 DU        1 12X      0.200000
     46 H42         4.2430    3.0810    1.1260 hn        1 12X      0.255000
     47 H43         6.5470    3.6340    1.4020 hc        1 12X      0.109000
     48 H44         7.3600    3.4030    3.4970 hc        1 12X      0.086667
     49 H45         8.6370    3.0910    2.5840 hc        1 12X      0.086667
     50 H46         7.8060    1.8880    3.2360 hc        1 12X      0.086667
     51 H47         7.0440    2.0740   -0.3230 hc        1 12X      0.086667
     52 H48         8.3670    2.7900    0.2230 hc        1 12X      0.086667
     53 H49         8.0100    1.3020    0.6930 hc        1 12X      0.086667
     54 H2         -0.5230   -2.1220   -4.8300 hn        1 12X      0.176000
     55 OXT        -3.3110   -0.9950   -6.0040 o         1 12X     -0.569500
@<TRIPOS>BOND
     1    1    2 1   
     2    1   55 1   
     3    3    4 1   
     4    3    7 1   
     5    3   33 1   
     6    4    5 1   
     7    4   34 1   
     8    4   35 1   
     9    5    6 1   
    10    5    8 1   
    11    5   36 1   
    12    6    7 1   
    13    6   37 1   
    14    6   38 1   
    15    7   54 1   
    16    8    9 1   
    17    9   10 1   
    18    9   14 1   
    19   10   39 1   
    20   11   12 1   
    21   11   22 1   
    22   13   18 1   
    23   14   15 1   
    24   15   40 1   
    25   16   17 1   
    26   16   41 1   
    27   17   20 1   
    28   18   19 1   
    29   20   21 1   
    30   21   42 1   
    31   21   43 1   
    32   21   44 1   
    33   22   23 1   
    34   22   26 1   
    35   23   24 1   
    36   24   25 1   
    37   25   26 1   
    38   27   28 1   
    39   27   46 1   
    40   28   29 1   
    41   28   30 1   
    42   30   31 1   
    43   30   32 1   
    44   30   47 1   
    45   31   48 1   
    46   31   49 1   
    47   31   50 1   
    48   32   51 1   
    49   32   52 1   
    50   32   53 1   
@<TRIPOS>SUBSTRUCTURE
     1 12X         1 TEMP              0 ****  ****    0 ROOT
