@<TRIPOS>MOLECULE
12X
   55    58     1     0     0
SMALL
bcc


@<TRIPOS>ATOM
      1 C10        -1.7570    6.6250   -0.3750 c         1 12X      0.900600
      2 O11        -2.9740    6.4440   -0.0870 o         1 12X     -0.834800
      3 C12        -0.6790    5.8040    0.4060 c3        1 12X      0.021500
      4 C13         0.1730    5.0000   -0.5930 c3        1 12X     -0.071400
      5 C14        -0.1510    3.5290   -0.3160 c3        1 12X      0.115100
      6 C15        -0.9570    3.5170    1.0040 c3        1 12X      0.134800
      7 N16        -1.2180    4.8880    1.4210 n3        1 12X     -0.795200
      8 O33         1.1210    2.8620   -0.1650 os        1 12X     -0.320900
      9 C34         1.1200    1.4980   -0.1370 ca        1 12X      0.207100
     10 C35        -0.0070    0.6930   -0.1730 ca        1 12X     -0.331300
     11 C36         0.1700   -0.7230   -0.1490 ca        1 12X      0.452300
     12 N37         1.3650   -1.3230   -0.0900 nb        1 12X     -0.704000
     13 C38         2.4910   -0.5340   -0.0480 ca        1 12X      0.472600
     14 C39         2.4220    0.8930   -0.0690 ca        1 12X     -0.203300
     15 C40         3.6030    1.6670   -0.0210 ca        1 12X     -0.026000
     16 C41         4.8320    1.0620    0.0440 ca        1 12X     -0.225000
     17 C42         4.9230   -0.3550    0.0640 ca        1 12X      0.164100
     18 C43         3.7870   -1.1570    0.0190 ca        1 12X     -0.123200
     19 BR44        3.8930   -3.0320    0.0440 br        1 12X     -0.070100
     20 O45         6.1440   -1.0040    0.1210 os        1 12X     -0.319900
     21 C46         7.3000   -0.1850    0.2350 c3        1 12X      0.115700
     22 C47        -1.0260   -1.5870   -0.2050 cc        1 12X      0.300300
     23 C48        -1.0080   -2.9350   -0.5600 cd        1 12X     -0.259400
     24 S49        -2.5310   -3.5960   -0.5310 ss        1 12X     -0.004300
     25 C50        -3.2040   -2.0690   -0.0370 cd        1 12X      0.488300
     26 N51        -2.2870   -1.0850    0.0990 nc        1 12X     -0.668000
     27 N52        -4.5620   -1.8640    0.2090 n         1 12X     -0.527400
     28 C53        -5.5480   -2.8180   -0.0060 c         1 12X      0.660100
     29 O54        -5.2610   -3.9690   -0.3860 o         1 12X     -0.593100
     30 C55        -6.9830   -2.3740    0.2680 c3        1 12X     -0.126700
     31 C56        -7.4290   -1.3800   -0.7830 c3        1 12X     -0.091600
     32 C57        -7.8930   -3.5840    0.2910 c3        1 12X     -0.091600
     33 H9         -0.0300    6.5450    0.9490 h1        1 12X      0.056700
     34 H10        -0.0880    5.2810   -1.6420 hc        1 12X      0.062200
     35 H11         1.2620    5.1940   -0.4360 hc        1 12X      0.062200
     36 H12        -0.7140    3.0530   -1.1580 h1        1 12X      0.055700
     37 H13        -1.9000    2.9210    0.8680 h1        1 12X      0.034200
     38 H14        -0.3470    3.0190    1.8080 h1        1 12X      0.034200
     39 H35        -1.0160    1.1250   -0.2030 ha        1 12X      0.178000
     40 H36         3.5100    2.7670   -0.0360 ha        1 12X      0.163000
     41 H37         5.7420    1.6770    0.0800 ha        1 12X      0.139000
     42 H38         7.2580    0.4400    1.1600 h1        1 12X      0.043367
     43 H39         8.1340   -0.9300    0.3020 h1        1 12X      0.043367
     44 H40         7.4220    0.4580   -0.6710 h1        1 12X      0.043367
     45 H41        -0.1040   -3.4890   -0.8180 h4        1 12X      0.201000
     46 H42        -4.8370   -0.9440    0.4820 hn        1 12X      0.342500
     47 H43        -7.0180   -1.8810    1.2810 hc        1 12X      0.069700
     48 H44        -6.8190   -0.4460   -0.7390 hc        1 12X      0.047533
     49 H45        -7.3340   -1.8200   -1.8060 hc        1 12X      0.047533
     50 H46        -8.4990   -1.1090   -0.6140 hc        1 12X      0.047533
     51 H47        -7.5570   -4.3070    1.0720 hc        1 12X      0.047533
     52 H48        -8.9400   -3.2660    0.5130 hc        1 12X      0.047533
     53 H49        -7.8720   -4.1050   -0.6970 hc        1 12X      0.047533
     54 H2         -2.2130    5.0480    1.4910 hn        1 12X      0.379800
     55 OXT        -1.3350    7.4220   -1.2560 o         1 12X     -0.834800
@<TRIPOS>BOND
     1    1    2 1   
     2    1    3 1   
     3    1   55 1   
     4    3    4 1   
     5    3    7 1   
     6    3   33 1   
     7    4    5 1   
     8    4   34 1   
     9    4   35 1   
    10    5    6 1   
    11    5    8 1   
    12    5   36 1   
    13    6    7 1   
    14    6   37 1   
    15    6   38 1   
    16    7   54 1   
    17    8    9 1   
    18    9   10 ar  
    19    9   14 ar  
    20   10   11 ar  
    21   10   39 1   
    22   11   12 ar  
    23   11   22 1   
    24   12   13 ar  
    25   13   14 ar  
    26   13   18 ar  
    27   14   15 ar  
    28   15   16 ar  
    29   15   40 1   
    30   16   17 ar  
    31   16   41 1   
    32   17   18 ar  
    33   17   20 1   
    34   18   19 1   
    35   20   21 1   
    36   21   42 1   
    37   21   43 1   
    38   21   44 1   
    39   22   23 2   
    40   22   26 1   
    41   23   24 1   
    42   23   45 1   
    43   24   25 1   
    44   25   26 2   
    45   25   27 1   
    46   27   28 1   
    47   27   46 1   
    48   28   29 2   
    49   28   30 1   
    50   30   31 1   
    51   30   32 1   
    52   30   47 1   
    53   31   48 1   
    54   31   49 1   
    55   31   50 1   
    56   32   51 1   
    57   32   52 1   
    58   32   53 1   
@<TRIPOS>SUBSTRUCTURE
     1 12X         1 TEMP              0 ****  ****    0 ROOT
