@<TRIPOS>MOLECULE
12Y
   55    49     1     0     0
SMALL
bcc


@<TRIPOS>ATOM
      1 C10        -3.4310   -0.4490   -6.1160 c1        1 12Y      0.320000
      2 O11        -2.7380   -0.5480   -7.1180 o         1 12Y     -0.569000
      3 C12        -3.1710   -1.3090   -4.9590 c2        1 12Y     -0.127000
      4 C13        -3.2990   -0.4520   -3.6090 c3        1 12Y     -0.150000
      5 C14        -2.0210   -0.7020   -2.8170 c3        1 12Y      0.003000
      6 C15        -1.4490   -1.6860   -3.3950 c3        1 12Y     -0.101000
      7 N16        -1.9010   -1.6500   -4.9350 n3        1 12Y     -0.274000
      8 O33        -2.3590   -1.0630   -1.3800 os        1 12Y     -0.203000
      9 C34        -1.9510   -0.0720   -0.5570 c1        1 12Y      0.165000
     10 C35        -0.6270   -0.0650   -0.2810 c1        1 12Y     -0.290000
     11 C36        -0.1400    0.6920    0.7890 c1        1 12Y      0.112000
     12 N37        -1.0020    1.4250    1.5560 n1        1 12Y     -0.152000
     13 C38        -2.3620    1.4180    1.2730 c1        1 12Y      0.055000
     14 C39        -2.8350    0.6800    0.2290 c1        1 12Y     -0.134000
     15 C40        -4.2130    0.6360   -0.0330 c1        1 12Y     -0.043000
     16 C41        -5.0970    1.3460    0.7710 c1        1 12Y     -0.213000
     17 C42        -4.6220    2.0940    1.8290 c1        1 12Y      0.082000
     18 C43        -3.2640    2.1400    2.0900 c2        1 12Y     -0.156000
     19 O45        -5.1480    3.2680    2.3150 o         1 12Y     -0.216000
     20 C46        -6.4890    3.1820    2.6620 c3        1 12Y     -0.073000
     21 C47         1.3540    0.6610    1.0380 c1        1 12Y     -0.016000
     22 C48         2.3570    1.3180    0.2340 c1        1 12Y     -0.499000
     23 S49         3.7220    0.9340    0.7870 ss        1 12Y      0.607000
     24 C50         3.4900   -0.0040    1.9850 c1        1 12Y     -0.187000
     25 N51         2.0800   -0.1720    2.1430 n2        1 12Y     -0.120000
     26 N52         4.5200   -0.7280    2.7160 n2        1 12Y     -0.294000
     27 C53         5.8570   -0.7650    2.2180 c2        1 12Y      0.301000
     28 O54         6.1420   -0.1770    1.1590 o         1 12Y     -0.350000
     29 C55         6.9710   -1.4600    3.0420 c3        1 12Y     -0.116000
     30 C56         7.3920   -2.7220    2.3520 c3        1 12Y     -0.209000
     31 C57         8.1560   -0.5320    3.1660 c3        1 12Y     -0.209000
     32 H9         -3.8530   -2.0500   -5.1100 h4        1 12Y      0.097000
     33 H10        -3.3820    0.4950   -3.8210 hc        1 12Y      0.101500
     34 H11        -4.0530   -0.7440   -3.1100 hc        1 12Y      0.101500
     35 H12        -1.4340    0.1030   -2.8430 h1        1 12Y      0.091000
     36 H13        -0.4550   -1.5900   -3.3290 h1        1 12Y      0.071000
     37 H14        -1.7380   -2.5400   -2.9760 h1        1 12Y      0.071000
     38 H35        -0.0450   -0.8170   -0.4950 ha        1 12Y      0.161000
     39 H36        -4.5400    0.1220   -0.7590 ha        1 12Y      0.159000
     40 H37        -6.0560    1.3160    0.5870 ha        1 12Y      0.135000
     41 H38        -2.9240    2.6560    2.8760 ha        1 12Y      0.160000
     42 H39        -6.6070    2.4890    3.3650 h1        1 12Y      0.079000
     43 H40        -6.7850    4.0260    2.9960 h1        1 12Y      0.079000
     44 H41        -7.0210    2.9380    1.8650 h1        1 12Y      0.079000
     45 H42         2.1870    1.9130   -0.5410 DU        1 12Y      0.191000
     46 H43         4.2960   -1.2100    3.4710 hn        1 12Y      0.250000
     47 H44         6.6320   -1.6740    3.9290 hc        1 12Y      0.105000
     48 H45         8.1290   -3.1490    2.8650 hc        1 12Y      0.086167
     49 H46         7.6990   -2.5130    1.4580 hc        1 12Y      0.086167
     50 H47         6.6370   -3.3320    2.3020 hc        1 12Y      0.086167
     51 H48         8.9010   -1.0120    3.5230 hc        1 12Y      0.086167
     52 H49         7.9240    0.2220    3.7730 hc        1 12Y      0.086167
     53 H50         8.3860   -0.1840    2.2940 hc        1 12Y      0.086167
     54 OXT        -4.4020    0.3410   -6.1020 o         1 12Y     -0.569000
     55 H2         -1.4200   -1.0410   -5.3710 hn        1 12Y      0.176000
@<TRIPOS>BOND
     1    1    2 1   
     2    1   54 1   
     3    3    4 1   
     4    3    7 1   
     5    3   32 1   
     6    4    5 1   
     7    4   33 1   
     8    4   34 1   
     9    5    6 1   
    10    5    8 1   
    11    5   35 1   
    12    6    7 1   
    13    6   36 1   
    14    6   37 1   
    15    7   55 1   
    16    8    9 1   
    17    9   10 1   
    18   10   38 1   
    19   11   12 1   
    20   13   14 1   
    21   13   18 1   
    22   14   15 1   
    23   15   39 1   
    24   16   17 1   
    25   16   40 1   
    26   17   18 1   
    27   18   41 1   
    28   19   20 1   
    29   20   42 1   
    30   20   43 1   
    31   20   44 1   
    32   21   22 1   
    33   21   25 1   
    34   22   23 1   
    35   23   24 1   
    36   24   25 1   
    37   26   27 1   
    38   26   46 1   
    39   27   28 1   
    40   27   29 1   
    41   29   30 1   
    42   29   31 1   
    43   29   47 1   
    44   30   48 1   
    45   30   49 1   
    46   30   50 1   
    47   31   51 1   
    48   31   52 1   
    49   31   53 1   
@<TRIPOS>SUBSTRUCTURE
     1 12Y         1 TEMP              0 ****  ****    0 ROOT
