@<TRIPOS>MOLECULE
12Y
   55    58     1     0     0
SMALL
bcc


@<TRIPOS>ATOM
      1 C10         0.9790    6.0210    0.1770 c         1 12Y      0.935600
      2 O11        -0.0400    5.6320   -0.4550 o         1 12Y     -0.834800
      3 C12         1.9940    4.9390    0.6860 c3        1 12Y      0.016500
      4 C13         2.3070    3.9550   -0.4660 c3        1 12Y     -0.090400
      5 C14         1.5300    2.6770   -0.1230 c3        1 12Y      0.107100
      6 C15         0.8760    2.9560    1.2540 c3        1 12Y      0.121800
      7 N16         1.4610    4.1660    1.8190 n3        1 12Y     -0.747200
      8 O33         2.5140    1.6200   -0.0390 os        1 12Y     -0.332900
      9 C34         2.0500    0.3380    0.0130 ca        1 12Y      0.204100
     10 C35         0.7180   -0.0290    0.1110 ca        1 12Y     -0.333300
     11 C36         0.3940   -1.4200    0.1490 ca        1 12Y      0.444300
     12 N37         1.3020   -2.4000    0.1040 nb        1 12Y     -0.711000
     13 C38         2.6310   -2.0430    0.0180 ca        1 12Y      0.452600
     14 C39         3.0630   -0.6810   -0.0320 ca        1 12Y     -0.200300
     15 C40         4.4410   -0.3760   -0.1230 ca        1 12Y     -0.043000
     16 C41         5.3850   -1.3740   -0.1650 ca        1 12Y     -0.215000
     17 C42         4.9620   -2.7270   -0.1150 ca        1 12Y      0.126100
     18 C43         3.6240   -3.0700   -0.0260 ca        1 12Y     -0.225300
     19 O45         5.8390   -3.8010   -0.1490 os        1 12Y     -0.333900
     20 C46         7.2200   -3.4810   -0.2480 c3        1 12Y      0.117700
     21 C47        -1.0290   -1.8030    0.2600 cc        1 12Y      0.305300
     22 C48        -1.4820   -3.0030    0.8030 cd        1 12Y     -0.266400
     23 S49        -3.1410   -3.0910    0.7910 ss        1 12Y     -0.011300
     24 C50        -3.2370   -1.5190    0.0510 cd        1 12Y      0.490300
     25 N51        -2.0330   -0.9470   -0.1790 nc        1 12Y     -0.665000
     26 N52        -4.4370   -0.8920   -0.2870 n         1 12Y     -0.526400
     27 C53        -5.6940   -1.3950    0.0190 c         1 12Y      0.659100
     28 O54        -5.8320   -2.5070    0.5610 o         1 12Y     -0.594100
     29 C55        -6.8810   -0.5150   -0.3680 c3        1 12Y     -0.126700
     30 C56        -8.1630   -1.3140   -0.2600 c3        1 12Y     -0.091600
     31 C57        -6.9300    0.7100    0.5220 c3        1 12Y     -0.091600
     32 H9          2.9280    5.4790    1.0020 h1        1 12Y      0.046700
     33 H10         1.9450    4.3730   -1.4360 hc        1 12Y      0.056200
     34 H11         3.4010    3.7440   -0.5410 hc        1 12Y      0.056200
     35 H12         0.7730    2.4180   -0.9050 h1        1 12Y      0.070700
     36 H13        -0.2160    3.1660    1.0840 h1        1 12Y      0.057700
     37 H14         0.9870    2.0750    1.9380 h1        1 12Y      0.057700
     38 H35        -0.0790    0.7260    0.1640 ha        1 12Y      0.179000
     39 H36         4.7370    0.6860   -0.1610 ha        1 12Y      0.157000
     40 H37         6.4510   -1.1230   -0.2350 ha        1 12Y      0.134000
     41 H38         3.3250   -4.1270    0.0100 ha        1 12Y      0.157000
     42 H39         7.5550   -2.8900    0.6380 h1        1 12Y      0.039367
     43 H40         7.7200   -4.4830   -0.2640 h1        1 12Y      0.039367
     44 H41         7.4320   -2.9230   -1.1930 h1        1 12Y      0.039367
     45 H42        -0.8300   -3.7890    1.1830 h4        1 12Y      0.195000
     46 H43        -4.3710    0.0210   -0.6860 hn        1 12Y      0.343500
     47 H44        -6.7510   -0.1880   -1.4390 hc        1 12Y      0.069700
     48 H45        -8.3150   -1.6650    0.7890 hc        1 12Y      0.047700
     49 H46        -9.0300   -0.6800   -0.5630 hc        1 12Y      0.047700
     50 H47        -8.1160   -2.2110   -0.9230 hc        1 12Y      0.047700
     51 H48        -6.9840    0.4130    1.5970 hc        1 12Y      0.047700
     52 H49        -6.0280    1.3520    0.3740 hc        1 12Y      0.047700
     53 H50        -7.8360    1.3160    0.2770 hc        1 12Y      0.047700
     54 OXT         1.2870    7.2220    0.4000 o         1 12Y     -0.834800
     55 H2          2.2280    3.9090    2.4180 hn        1 12Y      0.311800
@<TRIPOS>BOND
     1    1    2 1   
     2    1    3 1   
     3    1   54 1   
     4    3    4 1   
     5    3    7 1   
     6    3   32 1   
     7    4    5 1   
     8    4   33 1   
     9    4   34 1   
    10    5    6 1   
    11    5    8 1   
    12    5   35 1   
    13    6    7 1   
    14    6   36 1   
    15    6   37 1   
    16    7   55 1   
    17    8    9 1   
    18    9   10 ar  
    19    9   14 ar  
    20   10   11 ar  
    21   10   38 1   
    22   11   12 ar  
    23   11   21 1   
    24   12   13 ar  
    25   13   14 ar  
    26   13   18 ar  
    27   14   15 ar  
    28   15   16 ar  
    29   15   39 1   
    30   16   17 ar  
    31   16   40 1   
    32   17   18 ar  
    33   17   19 1   
    34   18   41 1   
    35   19   20 1   
    36   20   42 1   
    37   20   43 1   
    38   20   44 1   
    39   21   22 2   
    40   21   25 1   
    41   22   23 1   
    42   22   45 1   
    43   23   24 1   
    44   24   25 2   
    45   24   26 1   
    46   26   27 1   
    47   26   46 1   
    48   27   28 2   
    49   27   29 1   
    50   29   30 1   
    51   29   31 1   
    52   29   47 1   
    53   30   48 1   
    54   30   49 1   
    55   30   50 1   
    56   31   51 1   
    57   31   52 1   
    58   31   53 1   
@<TRIPOS>SUBSTRUCTURE
     1 12Y         1 TEMP              0 ****  ****    0 ROOT
