@<TRIPOS>MOLECULE
12Z
   39    41     1     0     0
SMALL
bcc


@<TRIPOS>ATOM
      1 C1          0.0700    0.1400   -0.1240 cc        1 12Z     -0.420000
      2 C2          1.4900    0.0710   -0.2200 cd        1 12Z      0.733200
      3 N3          2.1630    0.0020    1.0190 nd        1 12Z     -0.773000
      4 C4          1.2580    0.0110    2.0210 cc        1 12Z      0.709300
      5 S5         -0.4050    0.1340    1.5020 ss        1 12Z     -0.164300
      6 C6         -0.8380    0.1570   -1.2380 c         1 12Z      0.649300
      7 N7          2.1810    0.1030   -1.3930 nh        1 12Z     -0.938500
      8 N8          1.5410   -0.1550    3.3630 nh        1 12Z     -0.812900
      9 O9         -0.4600    0.0930   -2.4250 o         1 12Z     -0.594100
     10 C10        -5.0040    0.2170   -0.5360 ca        1 12Z      0.409200
     11 N11        -4.5150   -0.5510   -1.5300 nb        1 12Z     -0.669000
     12 C12        -3.1840   -0.5390   -1.7230 ca        1 12Z      0.442200
     13 C13        -2.2880    0.2190   -0.9350 ca        1 12Z     -0.268900
     14 C14        -2.8180    1.0160    0.0850 ca        1 12Z     -0.070000
     15 C15        -4.1990    1.0190    0.2920 ca        1 12Z     -0.255300
     16 C16         4.4440   -0.6300    5.7480 c3        1 12Z     -0.074900
     17 C17         3.0050   -0.6470    5.2780 c3        1 12Z     -0.093400
     18 C18         2.9050   -0.0500    3.8620 c3        1 12Z      0.203500
     19 C19         3.4490    1.3890    3.8860 c3        1 12Z     -0.093400
     20 C20         4.8840    1.4030    4.3660 c3        1 12Z     -0.074900
     21 C21         5.0170    0.7710    5.7370 c3        1 12Z     -0.081400
     22 HN7         1.6630    0.0710   -2.2430 hn        1 12Z      0.456800
     23 HN7A        3.1580   -0.0500   -1.4030 hn        1 12Z      0.456800
     24 HN8         0.8470    0.2180    3.9750 hn        1 12Z      0.416800
     25 H12        -2.8000   -1.1610   -2.5540 h4        1 12Z      0.041100
     26 H14        -2.1610    1.6480    0.7060 ha        1 12Z      0.150000
     27 H15        -4.6500    1.6350    1.0800 ha        1 12Z      0.145000
     28 H16         4.4950   -1.0490    6.7870 hc        1 12Z      0.045450
     29 H16A        5.0620   -1.2930    5.0870 hc        1 12Z      0.045450
     30 H17         2.3700   -0.0550    5.9880 hc        1 12Z      0.048450
     31 H17A        2.6250   -1.7020    5.2750 hc        1 12Z      0.048450
     32 H18         3.5630   -0.6640    3.1770 h1        1 12Z      0.088700
     33 H19         2.8190    2.0220    4.5640 hc        1 12Z      0.048450
     34 H19A        3.3970    1.8300    2.8560 hc        1 12Z      0.048450
     35 H20         5.2510    2.4610    4.4030 hc        1 12Z      0.045450
     36 H20A        5.5280    0.8480    3.6340 hc        1 12Z      0.045450
     37 H21         6.0970    0.7380    6.0320 hc        1 12Z      0.042200
     38 H21A        4.4800    1.4020    6.4930 hc        1 12Z      0.042200
     39 H10        -6.1010    0.1880   -0.4030 h4        1 12Z      0.023100
@<TRIPOS>BOND
     1    1    2 2   
     2    1    5 1   
     3    1    6 1   
     4    2    3 1   
     5    2    7 1   
     6    3    4 2   
     7    4    5 1   
     8    4    8 1   
     9    6    9 2   
    10    6   13 1   
    11    7   22 1   
    12    7   23 1   
    13    8   18 1   
    14    8   24 1   
    15   10   11 ar  
    16   10   15 ar  
    17   10   39 1   
    18   11   12 ar  
    19   12   13 ar  
    20   12   25 1   
    21   13   14 ar  
    22   14   15 ar  
    23   14   26 1   
    24   15   27 1   
    25   16   17 1   
    26   16   21 1   
    27   16   28 1   
    28   16   29 1   
    29   17   18 1   
    30   17   30 1   
    31   17   31 1   
    32   18   19 1   
    33   18   32 1   
    34   19   20 1   
    35   19   33 1   
    36   19   34 1   
    37   20   21 1   
    38   20   35 1   
    39   20   36 1   
    40   21   37 1   
    41   21   38 1   
@<TRIPOS>SUBSTRUCTURE
     1 12Z         1 TEMP              0 ****  ****    0 ROOT
