@<TRIPOS>MOLECULE
12Z
   41    43     1     0     0
SMALL
bcc


@<TRIPOS>ATOM
      1 C1          0.3800   -0.7190   -0.1000 cc        1 12Z     -0.280000
      2 C2          1.4320   -1.6330   -0.3830 cd        1 12Z      0.430200
      3 N3          2.2230   -1.9640    0.7000 nd        1 12Z     -0.573000
      4 C4          1.7510   -1.2950    1.7890 cc        1 12Z      0.351300
      5 S5          0.4070   -0.2910    1.4820 ss        1 12Z      0.375700
      6 C6         -0.6330   -0.2710   -1.0960 c         1 12Z      0.645300
      7 N7          1.6950   -2.2040   -1.6990 n4        1 12Z     -0.799300
      8 N8          2.3840   -1.4700    3.0880 n4        1 12Z     -0.728700
      9 O9         -0.6150   -0.7920   -2.2210 o         1 12Z     -0.525100
     10 C10        -3.6360    2.4830   -0.0610 ca        1 12Z      0.485200
     11 N11        -3.8640    1.5800   -1.0300 nb        1 12Z     -0.629000
     12 C12        -2.8770    0.7190   -1.3360 ca        1 12Z      0.505200
     13 C13        -1.6220    0.7080   -0.6740 ca        1 12Z     -0.346900
     14 C14        -1.3980    1.6730    0.3270 ca        1 12Z     -0.081000
     15 C15        -2.4090    2.5680    0.6450 ca        1 12Z     -0.232300
     16 C16         4.5460    0.8050    5.2950 c3        1 12Z     -0.078900
     17 C17         3.9650   -0.4960    4.7670 c3        1 12Z     -0.099900
     18 C18         2.9320   -0.1720    3.6780 c3        1 12Z      0.125500
     19 C19         1.8120    0.6950    4.2540 c3        1 12Z     -0.099900
     20 C20         2.4050    1.9910    4.7820 c3        1 12Z     -0.078900
     21 C21         3.4670    1.7220    5.8270 c3        1 12Z     -0.095400
     22 HN7         2.0460   -3.1700   -1.6160 hn        1 12Z      0.498467
     23 HN7A        0.8110   -2.1990   -2.2520 hn        1 12Z      0.498467
     24 HN8         1.6920   -1.8740    3.7360 hn        1 12Z      0.478800
     25 H14        -0.4150    1.7750    0.8190 ha        1 12Z      0.115000
     26 H15        -2.2700    3.3470    1.4100 ha        1 12Z      0.177000
     27 H16         5.1220    1.3200    4.4820 hc        1 12Z      0.077950
     28 H16A        5.2720    0.5590    6.1160 hc        1 12Z      0.077950
     29 H17         3.4790   -1.0560    5.6090 hc        1 12Z      0.064450
     30 H17A        4.7940   -1.1270    4.3510 hc        1 12Z      0.064450
     31 H18         3.4470    0.3700    2.8290 hx        1 12Z      0.115700
     32 H19         1.2930    0.1590    5.0940 hc        1 12Z      0.064450
     33 H19A        1.0490    0.9300    3.4620 hc        1 12Z      0.064450
     34 H20         1.5790    2.6060    5.2320 hc        1 12Z      0.077950
     35 H20A        2.8420    2.5810    3.9340 hc        1 12Z      0.077950
     36 H21         3.9300    2.6960    6.1410 hc        1 12Z      0.081200
     37 H21A        2.9970    1.2690    6.7390 hc        1 12Z      0.081200
     38 H10        -4.4700    3.1830    0.1580 h4        1 12Z      0.071100
     39 H73         2.3980   -1.6280   -2.1860 hn        1 12Z      0.498467
     40 H82         3.1730   -2.1370    3.0090 hn        1 12Z      0.478800
     41 H12        -3.0920   -0.0040   -2.1510 h4        1 12Z      0.065100
@<TRIPOS>BOND
     1    1    2 2   
     2    1    5 1   
     3    1    6 1   
     4    2    3 1   
     5    2    7 1   
     6    3    4 2   
     7    4    5 1   
     8    4    8 1   
     9    6    9 2   
    10    6   13 1   
    11    7   22 1   
    12    7   23 1   
    13    7   39 1   
    14    8   18 1   
    15    8   24 1   
    16    8   40 1   
    17   10   11 ar  
    18   10   15 ar  
    19   10   38 1   
    20   11   12 ar  
    21   12   13 ar  
    22   12   41 1   
    23   13   14 ar  
    24   14   15 ar  
    25   14   25 1   
    26   15   26 1   
    27   16   17 1   
    28   16   21 1   
    29   16   27 1   
    30   16   28 1   
    31   17   18 1   
    32   17   29 1   
    33   17   30 1   
    34   18   19 1   
    35   18   31 1   
    36   19   20 1   
    37   19   32 1   
    38   19   33 1   
    39   20   21 1   
    40   20   34 1   
    41   20   35 1   
    42   21   36 1   
    43   21   37 1   
@<TRIPOS>SUBSTRUCTURE
     1 12Z         1 TEMP              0 ****  ****    0 ROOT
