@<TRIPOS>MOLECULE
12Z
   39    35     1     0     0
SMALL
bcc


@<TRIPOS>ATOM
      1 C1         -0.1970    0.9290   -2.1330 c1        1 12Z     -0.606000
      2 C2          1.2450    0.9060   -2.0910 c1        1 12Z      0.213000
      3 N3          1.6930    0.8120   -0.5900 n2        1 12Z     -0.247000
      4 C4          0.5240    0.7820    0.2300 c1        1 12Z     -0.065000
      5 S5         -0.7070    0.8540   -0.6990 ss        1 12Z      0.424000
      6 C6         -1.0480    1.1180   -3.3720 c1        1 12Z      0.369000
      7 N7          2.1100    0.9710   -3.2130 n2        1 12Z     -0.338000
      8 N8          0.5000    0.7920    1.6490 n2        1 12Z     -0.253000
      9 O9         -1.3410    2.2370   -3.7420 o         1 12Z     -0.356000
     10 C10        -2.4370   -2.3130   -5.4640 c1        1 12Z     -0.123500
     11 N11        -1.3600   -1.6230   -5.9350 n1        1 12Z     -0.144000
     12 C12        -0.9180   -0.5150   -5.2760 c1        1 12Z     -0.024000
     13 C13        -1.5640   -0.0880   -4.1260 c1        1 12Z     -0.184000
     14 C14        -2.6420   -0.7780   -3.6540 c1        1 12Z     -0.070000
     15 C15        -3.0840   -1.8880   -4.3140 c1        1 12Z     -0.123500
     16 C16         1.4240    1.2050    4.4690 c3        1 12Z     -0.158500
     17 C17         2.1660    0.5020    3.3540 c3        1 12Z     -0.173500
     18 C18         1.2300   -0.1990    2.3860 c3        1 12Z      0.007000
     19 C19         0.2440   -1.1100    3.0910 c3        1 12Z     -0.173500
     20 C20        -0.4970   -0.4060    4.2070 c3        1 12Z     -0.158500
     21 C21         0.4380    0.2940    5.1730 c3        1 12Z     -0.160000
     22 HN7         2.7070    0.2980   -3.3690 hn        1 12Z      0.253000
     23 HN7A        2.0700    1.6880   -3.7790 hn        1 12Z      0.253000
     24 HN8         0.0160    1.4250    2.0920 hn        1 12Z      0.213000
     25 H10        -2.7520   -3.1070   -5.9370 ha        1 12Z      0.152500
     26 H12        -0.1470   -0.0220   -5.6150 ha        1 12Z      0.177000
     27 H14        -3.0970   -0.4790   -2.8440 ha        1 12Z      0.152000
     28 H15        -3.8550   -2.3830   -3.9770 ha        1 12Z      0.152500
     29 H16         2.0730    1.5340    5.1230 hc        1 12Z      0.079500
     30 H16A        0.9380    1.9670    4.0940 hc        1 12Z      0.079500
     31 H17         2.7700   -0.1610    3.7450 hc        1 12Z      0.095500
     32 H17A        2.6950    1.1610    2.8610 hc        1 12Z      0.095500
     33 H18         1.7620   -0.7310    1.7620 h1        1 12Z      0.124000
     34 H19        -0.4050   -1.4390    2.4380 hc        1 12Z      0.095500
     35 H19A        0.7300   -1.8710    3.4660 hc        1 12Z      0.095500
     36 H20        -1.1020    0.2570    3.8160 hc        1 12Z      0.079500
     37 H20A       -1.0260   -1.0650    4.7000 hc        1 12Z      0.079500
     38 H21        -0.0940    0.8270    5.7980 hc        1 12Z      0.083000
     39 H21A        0.9360   -0.3810    5.6770 hc        1 12Z      0.083000
@<TRIPOS>BOND
     1    1    2 1   
     2    1    5 1   
     3    2    3 1   
     4    3    4 1   
     5    4    5 1   
     6    6    9 1   
     7    6   13 1   
     8    7   22 1   
     9    7   23 1   
    10    8   18 1   
    11    8   24 1   
    12   10   15 1   
    13   10   25 1   
    14   11   12 1   
    15   12   26 1   
    16   13   14 1   
    17   14   27 1   
    18   15   28 1   
    19   16   17 1   
    20   16   21 1   
    21   16   29 1   
    22   16   30 1   
    23   17   18 1   
    24   17   31 1   
    25   17   32 1   
    26   18   19 1   
    27   18   33 1   
    28   19   20 1   
    29   19   34 1   
    30   19   35 1   
    31   20   21 1   
    32   20   36 1   
    33   20   37 1   
    34   21   38 1   
    35   21   39 1   
@<TRIPOS>SUBSTRUCTURE
     1 12Z         1 TEMP              0 ****  ****    0 ROOT
