@<TRIPOS>MOLECULE
12Z
   39    41     1     0     0
SMALL
bcc


@<TRIPOS>ATOM
      1 C1          0.0700    0.1390   -0.1240 cc        1 12Z     -0.420000
      2 C2          1.4900    0.0720   -0.2200 cd        1 12Z      0.733200
      3 N3          2.1640    0.0040    1.0180 nd        1 12Z     -0.773000
      4 C4          1.2590    0.0110    2.0200 cc        1 12Z      0.709300
      5 S5         -0.4050    0.1320    1.5020 ss        1 12Z     -0.164300
      6 C6         -0.8380    0.1550   -1.2380 c         1 12Z      0.649300
      7 N7          2.1810    0.1060   -1.3940 nv        1 12Z     -0.938500
      8 N8          1.5420   -0.1550    3.3620 nu        1 12Z     -0.812900
      9 O9         -0.4600    0.0930   -2.4250 o         1 12Z     -0.594100
     10 C10        -5.0050    0.2070   -0.5350 ca        1 12Z      0.409200
     11 N11        -4.5140   -0.5590   -1.5300 nb        1 12Z     -0.669000
     12 C12        -3.1830   -0.5450   -1.7240 ca        1 12Z      0.442200
     13 C13        -2.2880    0.2140   -0.9340 ca        1 12Z     -0.268900
     14 C14        -2.8200    1.0100    0.0860 ca        1 12Z     -0.070000
     15 C15        -4.2000    1.0100    0.2930 ca        1 12Z     -0.255300
     16 C16         4.4450   -0.6260    5.7480 c3        1 12Z     -0.074900
     17 C17         3.0060   -0.6450    5.2770 c3        1 12Z     -0.093400
     18 C18         2.9050   -0.0480    3.8620 c3        1 12Z      0.203500
     19 C19         3.4470    1.3920    3.8860 c3        1 12Z     -0.093400
     20 C20         4.8830    1.4070    4.3660 c3        1 12Z     -0.074900
     21 C21         5.0160    0.7760    5.7360 c3        1 12Z     -0.081400
     22 HN7         1.6630    0.0740   -2.2430 hn        1 12Z      0.456800
     23 HN7A        3.1580   -0.0460   -1.4040 hn        1 12Z      0.456800
     24 HN8         0.8470    0.2170    3.9750 hn        1 12Z      0.416800
     25 H12        -2.7970   -1.1650   -2.5550 h4        1 12Z      0.041100
     26 H14        -2.1640    1.6430    0.7080 ha        1 12Z      0.150000
     27 H15        -4.6530    1.6250    1.0810 ha        1 12Z      0.145000
     28 H16         5.0650   -1.2880    5.0870 hc        1 12Z      0.045450
     29 H16A        4.4970   -1.0450    6.7870 hc        1 12Z      0.045450
     30 H17         2.3700   -0.0550    5.9870 hc        1 12Z      0.048450
     31 H17A        2.6280   -1.7000    5.2740 hc        1 12Z      0.048450
     32 H18         3.5640   -0.6610    3.1760 h1        1 12Z      0.088700
     33 H19         2.8160    2.0240    4.5640 hc        1 12Z      0.048450
     34 H19A        3.3950    1.8330    2.8560 hc        1 12Z      0.048450
     35 H20         5.2480    2.4670    4.4030 hc        1 12Z      0.045450
     36 H20A        5.5280    0.8540    3.6340 hc        1 12Z      0.045450
     37 H21         4.4790    1.4060    6.4930 hc        1 12Z      0.042200
     38 H21A        6.0970    0.7450    6.0320 hc        1 12Z      0.042200
     39 H10        -6.1010    0.1760   -0.4030 h4        1 12Z      0.023100
@<TRIPOS>BOND
     1    1    2 2   
     2    1    5 1   
     3    1    6 1   
     4    2    3 1   
     5    2    7 1   
     6    3    4 2   
     7    4    5 1   
     8    4    8 1   
     9    6    9 2   
    10    6   13 1   
    11    7   22 1   
    12    7   23 1   
    13    8   18 1   
    14    8   24 1   
    15   10   11 ar  
    16   10   15 ar  
    17   10   39 1   
    18   11   12 ar  
    19   12   13 ar  
    20   12   25 1   
    21   13   14 ar  
    22   14   15 ar  
    23   14   26 1   
    24   15   27 1   
    25   16   17 1   
    26   16   21 1   
    27   16   28 1   
    28   16   29 1   
    29   17   18 1   
    30   17   30 1   
    31   17   31 1   
    32   18   19 1   
    33   18   32 1   
    34   19   20 1   
    35   19   33 1   
    36   19   34 1   
    37   20   21 1   
    38   20   35 1   
    39   20   36 1   
    40   21   37 1   
    41   21   38 1   
@<TRIPOS>SUBSTRUCTURE
     1 12Z         1 TEMP              0 ****  ****    0 ROOT
