@<TRIPOS>MOLECULE
12Z
   39    41     1     0     0
SMALL
bcc


@<TRIPOS>ATOM
      1 C1          1.2100   -0.9280    0.0420 cc        1 12Z     -0.420000
      2 C2          0.1730   -1.9060    0.0090 cd        1 12Z      0.733200
      3 N3         -1.1310   -1.3810   -0.1210 nd        1 12Z     -0.773000
      4 C4         -1.0650   -0.0340   -0.1940 cc        1 12Z      0.709300
      5 S5          0.5470    0.6260   -0.0760 ss        1 12Z     -0.164300
      6 C6          2.6170   -1.2120    0.1070 c         1 12Z      0.649300
      7 N7          0.3810   -3.2470    0.1290 nh        1 12Z     -0.938500
      8 N8         -2.1300    0.8120   -0.4360 nh        1 12Z     -0.812900
      9 O9          3.0780   -2.3710    0.1250 o         1 12Z     -0.594100
     10 C10         5.3950    1.9710    0.0320 ca        1 12Z      0.409200
     11 N11         5.6620    0.8470   -0.6620 nb        1 12Z     -0.669000
     12 C12         4.7550   -0.1440   -0.6090 ca        1 12Z      0.442200
     13 C13         3.5450   -0.0560    0.1180 ca        1 12Z     -0.268900
     14 C14         3.2920    1.1160    0.8390 ca        1 12Z     -0.070000
     15 C15         4.2290    2.1500    0.7990 ca        1 12Z     -0.255300
     16 C16        -5.8760    0.7860   -0.9930 c3        1 12Z     -0.074900
     17 C17        -4.4640    1.3330   -1.0120 c3        1 12Z     -0.093400
     18 C18        -3.5030    0.3410   -0.3320 c3        1 12Z      0.203500
     19 C19        -3.9710    0.1030    1.1150 c3        1 12Z     -0.093400
     20 C20        -5.3860   -0.4340    1.1300 c3        1 12Z     -0.074900
     21 C21        -6.3420    0.5000    0.4190 c3        1 12Z     -0.081400
     22 HN7         1.3200   -3.5770    0.1380 hn        1 12Z      0.456800
     23 HN7A       -0.3650   -3.8830   -0.0020 hn        1 12Z      0.456800
     24 HN8        -1.9890    1.7480   -0.1170 hn        1 12Z      0.416800
     25 H12         4.9970   -1.0670   -1.1690 h4        1 12Z      0.041100
     26 H14         2.3770    1.2180    1.4460 ha        1 12Z      0.150000
     27 H15         4.0660    3.0820    1.3550 ha        1 12Z      0.145000
     28 H16        -6.5640    1.5300   -1.4740 hc        1 12Z      0.045450
     29 H16A       -5.9210   -0.1560   -1.6010 hc        1 12Z      0.045450
     30 H17        -4.1450    1.5060   -2.0730 hc        1 12Z      0.048450
     31 H17A       -4.4350    2.3190   -0.4800 hc        1 12Z      0.048450
     32 H18        -3.5650   -0.6430   -0.8880 h1        1 12Z      0.088700
     33 H19        -3.2890   -0.6320    1.6170 hc        1 12Z      0.048450
     34 H19A       -3.9260    1.0640    1.6910 hc        1 12Z      0.048450
     35 H20        -5.4090   -1.4410    0.6360 hc        1 12Z      0.045450
     36 H20A       -5.7160   -0.5740    2.1920 hc        1 12Z      0.045450
     37 H21        -6.4200    1.4630    0.9900 hc        1 12Z      0.042200
     38 H21A       -7.3650    0.0420    0.3910 hc        1 12Z      0.042200
     39 H10         6.1600    2.7660   -0.0300 h4        1 12Z      0.023100
@<TRIPOS>BOND
     1    1    2 2   
     2    1    5 1   
     3    1    6 1   
     4    2    3 1   
     5    2    7 1   
     6    3    4 2   
     7    4    5 1   
     8    4    8 1   
     9    6    9 2   
    10    6   13 1   
    11    7   22 1   
    12    7   23 1   
    13    8   18 1   
    14    8   24 1   
    15   10   11 ar  
    16   10   15 ar  
    17   10   39 1   
    18   11   12 ar  
    19   12   13 ar  
    20   12   25 1   
    21   13   14 ar  
    22   14   15 ar  
    23   14   26 1   
    24   15   27 1   
    25   16   17 1   
    26   16   21 1   
    27   16   28 1   
    28   16   29 1   
    29   17   18 1   
    30   17   30 1   
    31   17   31 1   
    32   18   19 1   
    33   18   32 1   
    34   19   20 1   
    35   19   33 1   
    36   19   34 1   
    37   20   21 1   
    38   20   35 1   
    39   20   36 1   
    40   21   37 1   
    41   21   38 1   
@<TRIPOS>SUBSTRUCTURE
     1 12Z         1 TEMP              0 ****  ****    0 ROOT
