@<TRIPOS>MOLECULE
130
   41    30     1     0     0
SMALL
bcc


@<TRIPOS>ATOM
      1 C1          0.5410    1.0570   -4.8200 c1        1 130     -0.136000
      2 C2          1.4740    0.0330   -4.8340 c1        1 130     -0.122500
      3 C3          1.9090   -0.5240   -3.6420 c1        1 130     -0.122500
      4 C4          1.4040   -0.0490   -2.4170 c1        1 130     -0.046000
      5 C5          0.4850    0.9600   -2.4040 c1        1 130     -0.046000
      6 C6          0.0430    1.5250   -3.6150 c1        1 130     -0.051000
      7 C7          0.0270    1.7000   -6.0900 c2        1 130      0.116000
      8 N1          0.7520    2.7610   -6.6910 n3        1 130     -0.331000
      9 N2         -1.0830    1.2780   -6.6330 n1        1 130     -0.302000
     10 N3          1.6520   -0.4050   -1.1330 n1        1 130     -0.190000
     11 N4          0.1710    1.2210   -1.1110 n1        1 130     -0.190000
     12 C8          0.8910    0.3790   -0.3240 c2        1 130      0.064000
     13 C1'         0.8360    0.4510    1.0590 c1        1 130     -0.127000
     14 C2'         1.7340    1.2530    1.7460 c1        1 130     -0.122500
     15 C3'         1.7130    1.2870    3.1320 c1        1 130     -0.122500
     16 C4'         0.7950    0.5200    3.8300 c1        1 130     -0.085500
     17 C5'        -0.1030   -0.2820    3.1430 c1        1 130     -0.049000
     18 C6'        -0.0820   -0.3160    1.7580 c1        1 130      0.147000
     19 O6'        -1.0310   -1.0850    1.0590 oh        1 130     -0.246000
     20 C1B        -1.0000   -1.0740    3.8430 c1        1 130     -0.049000
     21 C2B        -2.1600   -0.5170    4.3590 c1        1 130     -0.122500
     22 C3B        -3.0510   -1.3060    5.0690 c1        1 130     -0.122500
     23 C4B        -2.7830   -2.6530    5.2620 c1        1 130     -0.122500
     24 C5B        -1.6240   -3.2090    4.7450 c1        1 130     -0.122500
     25 C6B        -0.7320   -2.4200    4.0350 c1        1 130     -0.085500
     26 HC2         1.8240   -0.2970   -5.6840 ha        1 130      0.136875
     27 HC3         2.5660   -1.2460   -3.6520 ha        1 130      0.136875
     28 HC6        -0.6140    2.2470   -3.6050 ha        1 130      0.156000
     29 HH11        1.4060    3.1920   -6.2200 hn        1 130      0.192500
     30 HH12        0.5590    3.0200   -7.5460 hn        1 130      0.192500
     31 HH21       -1.5500    0.5950   -6.2460 DU        1 130      0.207000
     32 HN3         2.2280   -1.0570   -0.8590 DU        1 130      0.207000
     33 HC'2        2.3810    1.7940    1.2550 ha        1 130      0.136875
     34 HC'3        2.3460    1.8520    3.6160 ha        1 130      0.136875
     35 HC'4        0.7800    0.5440    4.8060 ha        1 130      0.144500
     36 HO6        -1.7240   -0.5720    0.8390 ho        1 130      0.247000
     37 H2'        -2.3490    0.4320    4.2230 ha        1 130      0.136875
     38 H3'        -3.8680   -0.9140    5.4330 ha        1 130      0.136875
     39 H4'        -3.4110   -3.2080    5.7620 ha        1 130      0.136875
     40 H5'        -1.4350   -4.1580    4.8810 ha        1 130      0.136875
     41 H6'         0.0840   -2.8130    3.6710 ha        1 130      0.144500
@<TRIPOS>BOND
     1    1    6 1   
     2    1    7 1   
     3    2    3 1   
     4    2   26 1   
     5    3   27 1   
     6    4    5 1   
     7    6   28 1   
     8    7    8 1   
     9    7    9 1   
    10    8   29 1   
    11    8   30 1   
    12   10   12 1   
    13   11   12 1   
    14   12   13 1   
    15   13   18 1   
    16   14   15 1   
    17   14   33 1   
    18   15   34 1   
    19   16   17 1   
    20   16   35 1   
    21   18   19 1   
    22   19   36 1   
    23   20   25 1   
    24   21   22 1   
    25   21   37 1   
    26   22   38 1   
    27   23   24 1   
    28   23   39 1   
    29   24   40 1   
    30   25   41 1   
@<TRIPOS>SUBSTRUCTURE
     1 130         1 TEMP              0 ****  ****    0 ROOT
