@<TRIPOS>MOLECULE
130
   41    44     1     0     0
SMALL
bcc


@<TRIPOS>ATOM
      1 C1          0.5180   -0.0770    4.8840 ca        1 130     -0.219900
      2 C2         -0.6130   -0.9100    5.0130 ca        1 130     -0.080000
      3 C3         -1.4200   -1.2150    3.9290 ca        1 130     -0.140000
      4 C4         -1.0760   -0.6600    2.6900 ca        1 130     -0.060200
      5 C5          0.0870    0.2010    2.5450 ca        1 130      0.062400
      6 C6          0.8820    0.4820    3.6640 ca        1 130     -0.051000
      7 C7          1.3700    0.1990    6.0860 ce        1 130      0.639800
      8 N1          0.6510    0.6420    7.2170 nh        1 130     -0.892800
      9 N2          2.6540   -0.0010    6.1300 n2        1 130     -0.834100
     10 N3         -1.6470   -0.7460    1.4210 na        1 130     -0.274300
     11 N4          0.1960    0.6190    1.2050 nc        1 130     -0.576100
     12 C8         -0.8430    0.0420    0.5580 cd        1 130      0.474400
     13 C1'        -1.1860    0.1900   -0.8590 ca        1 130     -0.210900
     14 C2'        -2.5110    0.5050   -1.1950 ca        1 130     -0.079000
     15 C3'        -2.8820    0.6510   -2.5250 ca        1 130     -0.169000
     16 C4'        -1.9350    0.4890   -3.5360 ca        1 130     -0.075000
     17 C5'        -0.6040    0.1840   -3.2400 cp        1 130     -0.064000
     18 C6'        -0.2280    0.0330   -1.8800 ca        1 130      0.192100
     19 O6'         1.0790   -0.3010   -1.6490 oh        1 130     -0.492100
     20 C1B         0.3590    0.0370   -4.3310 cp        1 130     -0.034000
     21 C2B         0.3410    0.9440   -5.4010 ca        1 130     -0.108000
     22 C3B         1.2360    0.8020   -6.4590 ca        1 130     -0.134000
     23 C4B         2.1560   -0.2470   -6.4630 ca        1 130     -0.124000
     24 C5B         2.1820   -1.1500   -5.4010 ca        1 130     -0.134000
     25 C6B         1.2910   -1.0100   -4.3390 ca        1 130     -0.108000
     26 HC2        -0.8540   -1.3340    6.0020 ha        1 130      0.153000
     27 HC3        -2.2960   -1.8680    4.0370 ha        1 130      0.141000
     28 HC6         1.7650    1.1310    3.5690 ha        1 130      0.156000
     29 HH11        1.2100    0.9850    7.9690 hn        1 130      0.397300
     30 HH12       -0.1080    1.2440    6.9840 hn        1 130      0.397300
     31 HH21        3.0340   -0.4090    5.3030 hn        1 130      0.396400
     32 HN3        -2.4480   -1.2570    1.1640 hn        1 130      0.311700
     33 HC'2       -3.2560    0.6520   -0.3990 ha        1 130      0.136000
     34 HC'3       -3.9230    0.8970   -2.7830 ha        1 130      0.140000
     35 HC'4       -2.2380    0.6030   -4.5900 ha        1 130      0.144000
     36 HO6         1.2900   -0.1710   -0.7130 ho        1 130      0.448000
     37 H2'        -0.3760    1.7780   -5.3990 ha        1 130      0.138000
     38 H3'         1.2170    1.5200   -7.2920 ha        1 130      0.131500
     39 H4'         2.8610   -0.3580   -7.3000 ha        1 130      0.131000
     40 H5'         2.9090   -1.9750   -5.3980 ha        1 130      0.131500
     41 H6'         1.3250   -1.7150   -3.4930 ha        1 130      0.138000
@<TRIPOS>BOND
     1    1    2 ar  
     2    1    6 ar  
     3    1    7 1   
     4    2    3 ar  
     5    2   26 1   
     6    3    4 ar  
     7    3   27 1   
     8    4    5 ar  
     9    4   10 1   
    10    5    6 ar  
    11    5   11 1   
    12    6   28 1   
    13    7    8 1   
    14    7    9 2   
    15    8   29 1   
    16    8   30 1   
    17    9   31 1   
    18   10   12 1   
    19   10   32 1   
    20   11   12 2   
    21   12   13 1   
    22   13   14 ar  
    23   13   18 ar  
    24   14   15 ar  
    25   14   33 1   
    26   15   16 ar  
    27   15   34 1   
    28   16   17 ar  
    29   16   35 1   
    30   17   18 ar  
    31   17   20 1   
    32   18   19 1   
    33   19   36 1   
    34   20   21 ar  
    35   20   25 ar  
    36   21   22 ar  
    37   21   37 1   
    38   22   23 ar  
    39   22   38 1   
    40   23   24 ar  
    41   23   39 1   
    42   24   25 ar  
    43   24   40 1   
    44   25   41 1   
@<TRIPOS>SUBSTRUCTURE
     1 130         1 TEMP              0 ****  ****    0 ROOT
