@<TRIPOS>MOLECULE
130
   42    45     1     0     0
SMALL
bcc


@<TRIPOS>ATOM
      1 C1          0.1070   -0.0360   -0.2640 ca        1 130     -0.294900
      2 C2          0.2850   -1.4230   -0.0720 ca        1 130     -0.093000
      3 C3          0.3400   -1.9720    1.1990 ca        1 130     -0.110000
      4 C4          0.2140   -1.1030    2.2910 ca        1 130     -0.034200
      5 C5          0.0280    0.3350    2.0980 ca        1 130      0.075400
      6 C6         -0.0280    0.8530    0.8040 ca        1 130     -0.048000
      7 C7          0.0230    0.4700   -1.6460 ce        1 130      0.603800
      8 N1          1.1540    1.4250   -1.9510 n4        1 130     -0.828600
      9 N2         -0.7990    0.2420   -2.5960 n2        1 130     -0.723100
     10 N3          0.2390   -1.2980    3.6640 na        1 130     -0.248300
     11 N4         -0.0760    0.9660    3.3470 nc        1 130     -0.571100
     12 C8          0.0380   -0.0270    4.2680 cd        1 130      0.540400
     13 C1'         0.0040    0.1640    5.7180 ca        1 130     -0.182900
     14 C2'         0.4200    1.4020    6.2350 ca        1 130     -0.045000
     15 C3'         0.3830    1.6470    7.6030 ca        1 130     -0.165000
     16 C4'        -0.0670    0.6630    8.4810 ca        1 130     -0.049000
     17 C5'        -0.4800   -0.5850    8.0040 cp        1 130     -0.107000
     18 C6'        -0.4460   -0.8310    6.6140 ca        1 130      0.169100
     19 O6'        -0.8460   -2.0320    6.0790 oh        1 130     -0.533100
     20 C1B        -0.9410   -1.6010    8.9510 cp        1 130     -0.072000
     21 C2B        -1.9730   -1.3000    9.8510 ca        1 130     -0.122000
     22 C3B        -2.4000   -2.2550   10.7720 ca        1 130     -0.123500
     23 C4B        -1.7980   -3.5130   10.8090 ca        1 130     -0.112000
     24 C5B        -0.7660   -3.8160    9.9200 ca        1 130     -0.123500
     25 C6B        -0.3380   -2.8660    8.9940 ca        1 130     -0.122000
     26 HC2         0.3780   -2.0840   -0.9480 ha        1 130      0.145000
     27 HC3         0.4750   -3.0540    1.3420 ha        1 130      0.164000
     28 HC6        -0.2040    1.9290    0.6520 ha        1 130      0.148000
     29 HH11        1.0500    1.8730   -2.8690 hn        1 130      0.467800
     30 HH12        1.1710    2.1400   -1.2160 hn        1 130      0.467800
     31 HH21       -1.5650   -0.3750   -2.4200 hn        1 130      0.488400
     32 HN3         0.2270   -2.1650    4.1440 hn        1 130      0.338700
     33 HC'2        0.7740    2.1900    5.5510 ha        1 130      0.159000
     34 HC'3        0.7090    2.6230    7.9940 ha        1 130      0.153000
     35 HC'4       -0.0960    0.8600    9.5650 ha        1 130      0.155000
     36 HO6        -1.2870   -2.5520    6.7730 ho        1 130      0.456000
     37 H2'        -2.4460   -0.3060    9.8260 ha        1 130      0.138000
     38 H3'        -3.2120   -2.0120   11.4750 ha        1 130      0.143500
     39 H4'        -2.1340   -4.2630   11.5400 ha        1 130      0.145000
     40 H5'        -0.2830   -4.8040    9.9540 ha        1 130      0.143500
     41 H6'         0.4880   -3.1020    8.3060 ha        1 130      0.138000
     42 H13         2.0320    0.8970   -1.9250 hn        1 130      0.467800
@<TRIPOS>BOND
     1    1    2 ar  
     2    1    6 ar  
     3    1    7 1   
     4    2    3 ar  
     5    2   26 1   
     6    3    4 ar  
     7    3   27 1   
     8    4    5 ar  
     9    4   10 1   
    10    5    6 ar  
    11    5   11 1   
    12    6   28 1   
    13    7    8 1   
    14    7    9 2   
    15    8   29 1   
    16    8   30 1   
    17    8   42 1   
    18    9   31 1   
    19   10   12 1   
    20   10   32 1   
    21   11   12 2   
    22   12   13 1   
    23   13   14 ar  
    24   13   18 ar  
    25   14   15 ar  
    26   14   33 1   
    27   15   16 ar  
    28   15   34 1   
    29   16   17 ar  
    30   16   35 1   
    31   17   18 ar  
    32   17   20 1   
    33   18   19 1   
    34   19   36 1   
    35   20   21 ar  
    36   20   25 ar  
    37   21   22 ar  
    38   21   37 1   
    39   22   23 ar  
    40   22   38 1   
    41   23   24 ar  
    42   23   39 1   
    43   24   25 ar  
    44   24   40 1   
    45   25   41 1   
@<TRIPOS>SUBSTRUCTURE
     1 130         1 TEMP              0 ****  ****    0 ROOT
