@<TRIPOS>MOLECULE
130
   42    45     1     0     0
SMALL
bcc


@<TRIPOS>ATOM
      1 C1          0.0560   -0.1570   -0.1070 ca        1 130     -0.304900
      2 C2          1.3940   -0.6040   -0.0540 ca        1 130     -0.107000
      3 C3          2.0520   -0.7650    1.1540 ca        1 130     -0.112000
      4 C4          1.3450   -0.4640    2.3270 ca        1 130     -0.034200
      5 C5         -0.0400    0.0040    2.2760 ca        1 130      0.067400
      6 C6         -0.6750    0.1480    1.0420 ca        1 130     -0.018000
      7 C7         -0.6090   -0.0490   -1.4180 ce        1 130      0.603800
      8 N1         -0.0760    1.1300   -2.2000 n4        1 130     -0.828600
      9 N2         -1.5210   -0.7400   -1.9830 n2        1 130     -0.719100
     10 N3          1.6800   -0.5010    3.6720 na        1 130     -0.266300
     11 N4         -0.5080    0.2320    3.5840 nc        1 130     -0.528100
     12 C8          0.5250   -0.0840    4.3940 cd        1 130      0.539400
     13 C1'         0.5420   -0.0230    5.8570 ca        1 130     -0.196900
     14 C2'         1.4160    0.8540    6.5080 ca        1 130     -0.070000
     15 C3'         1.4080    0.9440    7.8960 ca        1 130     -0.164000
     16 C4'         0.5320    0.1570    8.6440 ca        1 130     -0.051000
     17 C5'        -0.3410   -0.7410    8.0230 cp        1 130     -0.108000
     18 C6'        -0.3360   -0.8270    6.6120 ca        1 130      0.190100
     19 O6'        -1.1340   -1.6880    5.9070 oh        1 130     -0.491100
     20 C1B        -1.2370   -1.5620    8.8370 cp        1 130     -0.069000
     21 C2B        -2.0780   -0.9540    9.7800 ca        1 130     -0.121500
     22 C3B        -2.9180   -1.7320   10.5740 ca        1 130     -0.123500
     23 C4B        -2.9220   -3.1210   10.4410 ca        1 130     -0.113000
     24 C5B        -2.0830   -3.7320    9.5090 ca        1 130     -0.123500
     25 C6B        -1.2440   -2.9580    8.7090 ca        1 130     -0.121500
     26 HC2         1.9200   -0.8590   -0.9870 ha        1 130      0.134000
     27 HC3         3.0900   -1.1260    1.1900 ha        1 130      0.162000
     28 HC6        -1.7220    0.4860    0.9940 ha        1 130      0.163000
     29 HH11       -0.3300    1.9860   -1.6950 hn        1 130      0.466800
     30 HH12        0.9450    1.0500   -2.2310 hn        1 130      0.466800
     31 HH21       -1.8880   -1.5310   -1.4930 hn        1 130      0.490400
     32 HN3         2.5260   -0.8250    4.0650 hn        1 130      0.325700
     33 HC'2        2.0990    1.4840    5.9180 ha        1 130      0.140000
     34 HC'3        2.0910    1.6390    8.4060 ha        1 130      0.151000
     35 HC'4        0.5270    0.2350    9.7440 ha        1 130      0.154000
     36 HO6        -1.7990   -2.0600    6.5120 ho        1 130      0.445000
     37 H2'        -2.0740    0.1410    9.8880 ha        1 130      0.138500
     38 H3'        -3.5770   -1.2480   11.3110 ha        1 130      0.142500
     39 H4'        -3.5830   -3.7340   11.0720 ha        1 130      0.144000
     40 H5'        -2.0780   -4.8280    9.4070 ha        1 130      0.142500
     41 H6'        -0.5710   -3.4440    7.9850 ha        1 130      0.138500
     42 H13        -0.4520    1.1710   -3.1540 hn        1 130      0.466800
@<TRIPOS>BOND
     1    1    2 ar  
     2    1    6 ar  
     3    1    7 1   
     4    2    3 ar  
     5    2   26 1   
     6    3    4 ar  
     7    3   27 1   
     8    4    5 ar  
     9    4   10 1   
    10    5    6 ar  
    11    5   11 1   
    12    6   28 1   
    13    7    8 1   
    14    7    9 2   
    15    8   29 1   
    16    8   30 1   
    17    8   42 1   
    18    9   31 1   
    19   10   12 1   
    20   10   32 1   
    21   11   12 2   
    22   12   13 1   
    23   13   14 ar  
    24   13   18 ar  
    25   14   15 ar  
    26   14   33 1   
    27   15   16 ar  
    28   15   34 1   
    29   16   17 ar  
    30   16   35 1   
    31   17   18 ar  
    32   17   20 1   
    33   18   19 1   
    34   19   36 1   
    35   20   21 ar  
    36   20   25 ar  
    37   21   22 ar  
    38   21   37 1   
    39   22   23 ar  
    40   22   38 1   
    41   23   24 ar  
    42   23   39 1   
    43   24   25 ar  
    44   24   40 1   
    45   25   41 1   
@<TRIPOS>SUBSTRUCTURE
     1 130         1 TEMP              0 ****  ****    0 ROOT
