@<TRIPOS>MOLECULE
130
   42    45     1     0     0
SMALL
bcc


@<TRIPOS>ATOM
      1 C1          0.0810   -0.0040   -0.2620 ca        1 130     -0.294900
      2 C2          0.2610   -1.3910   -0.0800 ca        1 130     -0.093000
      3 C3          0.3220   -1.9490    1.1870 ca        1 130     -0.110000
      4 C4          0.2010   -1.0870    2.2860 ca        1 130     -0.034200
      5 C5          0.0130    0.3520    2.1030 ca        1 130      0.075400
      6 C6         -0.0490    0.8790    0.8130 ca        1 130     -0.048000
      7 C7         -0.0100    0.5110   -1.6400 ce        1 130      0.603800
      8 N1          1.1190    1.4680   -1.9450 nz        1 130     -0.828600
      9 N2         -0.8370    0.2900   -2.5870 n2        1 130     -0.723100
     10 N3          0.2330   -1.2910    3.6570 na        1 130     -0.248300
     11 N4         -0.0850    0.9740    3.3570 nc        1 130     -0.571100
     12 C8          0.0340   -0.0240    4.2700 cd        1 130      0.540400
     13 C1'         0.0080    0.1580    5.7220 ca        1 130     -0.182900
     14 C2'         0.4240    1.3930    6.2440 ca        1 130     -0.045000
     15 C3'         0.3940    1.6300    7.6140 ca        1 130     -0.165000
     16 C4'        -0.0500    0.6390    8.4880 ca        1 130     -0.049000
     17 C5'        -0.4640   -0.6070    8.0060 cp        1 130     -0.107000
     18 C6'        -0.4370   -0.8430    6.6140 ca        1 130      0.169100
     19 O6'        -0.8380   -2.0420    6.0730 oh        1 130     -0.533100
     20 C1B        -0.9180   -1.6290    8.9490 cp        1 130     -0.072000
     21 C2B        -1.9460   -1.3350    9.8550 ca        1 130     -0.122000
     22 C3B        -2.3660   -2.2970   10.7730 ca        1 130     -0.123500
     23 C4B        -1.7620   -3.5540   10.7990 ca        1 130     -0.112000
     24 C5B        -0.7340   -3.8490    9.9030 ca        1 130     -0.123500
     25 C6B        -0.3120   -2.8930    8.9810 ca        1 130     -0.122000
     26 HC2         0.3500   -2.0470   -0.9600 ha        1 130      0.145000
     27 HC3         0.4590   -3.0320    1.3230 ha        1 130      0.164000
     28 HC6        -0.2270    1.9550    0.6680 ha        1 130      0.148000
     29 HH11        1.1400    2.1780   -1.2050 hn        1 130      0.467800
     30 HH12        1.9970    0.9390   -1.9270 hn        1 130      0.467800
     31 HH21       -1.6020   -0.3290   -2.4110 hn        1 130      0.488400
     32 HN3         0.2240   -2.1610    4.1320 hn        1 130      0.338700
     33 HC'2        0.7740    2.1860    5.5640 ha        1 130      0.159000
     34 HC'3        0.7210    2.6040    8.0090 ha        1 130      0.153000
     35 HC'4       -0.0740    0.8290    9.5740 ha        1 130      0.155000
     36 HO6        -1.2740   -2.5660    6.7660 ho        1 130      0.456000
     37 H2'        -2.4210   -0.3420    9.8390 ha        1 130      0.138000
     38 H3'        -3.1760   -2.0600   11.4810 ha        1 130      0.143500
     39 H4'        -2.0930   -4.3090   11.5270 ha        1 130      0.145000
     40 H5'        -0.2490   -4.8370    9.9280 ha        1 130      0.143500
     41 H6'         0.5100   -3.1230    8.2870 ha        1 130      0.138000
     42 H13         1.0110    1.9210   -2.8600 hn        1 130      0.467800
@<TRIPOS>BOND
     1    1    2 ar  
     2    1    6 ar  
     3    1    7 1   
     4    2    3 ar  
     5    2   26 1   
     6    3    4 ar  
     7    3   27 1   
     8    4    5 ar  
     9    4   10 1   
    10    5    6 ar  
    11    5   11 1   
    12    6   28 1   
    13    7    8 1   
    14    7    9 2   
    15    8   29 1   
    16    8   30 1   
    17    8   42 1   
    18    9   31 1   
    19   10   12 1   
    20   10   32 1   
    21   11   12 2   
    22   12   13 1   
    23   13   14 ar  
    24   13   18 ar  
    25   14   15 ar  
    26   14   33 1   
    27   15   16 ar  
    28   15   34 1   
    29   16   17 ar  
    30   16   35 1   
    31   17   18 ar  
    32   17   20 1   
    33   18   19 1   
    34   19   36 1   
    35   20   21 ar  
    36   20   25 ar  
    37   21   22 ar  
    38   21   37 1   
    39   22   23 ar  
    40   22   38 1   
    41   23   24 ar  
    42   23   39 1   
    43   24   25 ar  
    44   24   40 1   
    45   25   41 1   
@<TRIPOS>SUBSTRUCTURE
     1 130         1 TEMP              0 ****  ****    0 ROOT
