@<TRIPOS>MOLECULE
132
   43    31     1     0     0
SMALL
bcc


@<TRIPOS>ATOM
      1 C1         -0.5490    0.5740   -4.7950 c1        1 132     -0.217000
      2 C2          0.8390    0.5530   -4.8260 c1        1 132     -0.034000
      3 C3          1.5590    0.4950   -3.6400 c1        1 132     -0.114000
      4 C4          0.8830    0.4580   -2.4080 c1        1 132     -0.020000
      5 C5         -0.4880    0.4790   -2.3780 c1        1 132     -0.020000
      6 C6         -1.2170    0.5370   -3.5790 c1        1 132     -0.021000
      7 C7         -1.0310    0.3750   -6.2180 c2        1 132      0.356000
      8 N1         -1.2920    1.5010   -7.0420 n3        1 132     -0.309000
      9 N2         -1.2060   -0.8350   -6.6860 n2        1 132     -0.321000
     10 N3          1.3390    0.4010   -1.1030 n1        1 132     -0.166000
     11 C9         -0.8840    0.4340   -1.0590 c1        1 132     -0.198000
     12 C8          0.2510    0.3860   -0.2740 c2        1 132      0.088000
     13 C1'         0.2470   -0.4500    0.8330 c1        1 132     -0.098000
     14 C2'         0.2230   -1.8260    0.6620 c1        1 132     -0.116000
     15 C3'         0.1580   -2.6600    1.7670 c1        1 132     -0.116000
     16 C4'         0.1190   -2.1190    3.0440 c1        1 132     -0.094500
     17 C5'         0.1440   -0.7440    3.2140 c1        1 132     -0.089000
     18 C6'         0.2080    0.0910    2.1090 c1        1 132      0.120000
     19 O6'         0.2180    1.4870    2.2820 oh        1 132     -0.284000
     20 C1B         0.1400   -0.2030    4.4930 c1        1 132     -0.089000
     21 C2B         1.3320   -0.0450    5.1830 c1        1 132     -0.116000
     22 C3B         1.3240    0.4560    6.4760 c1        1 132     -0.116000
     23 C4B         0.1240    0.8000    7.0780 c1        1 132     -0.116000
     24 C5B        -1.0680    0.6420    6.3890 c1        1 132     -0.116000
     25 C6B        -1.0610    0.1410    5.0970 c1        1 132     -0.094500
     26 CL2         2.1090    0.4130   -6.0120 cl        1 132      0.007000
     27 HC3         2.5350    0.4810   -3.6620 ha        1 132      0.175000
     28 HC6        -2.1930    0.5520   -3.5580 ha        1 132      0.150000
     29 HH11       -1.1870    2.3460   -6.7090 hn        1 132      0.275500
     30 HH12       -1.5950    1.3810   -7.8970 hn        1 132      0.275500
     31 HH21       -1.0380   -1.5610   -6.1540 DU        1 132      0.248000
     32 HH22       -1.4980   -0.9550   -7.5470 hn        1 132      0.263000
     33 HN3         2.2120    0.3770   -0.8410 DU        1 132      0.248000
     34 HC9        -1.8050    0.4370   -0.7350 DU        1 132      0.248000
     35 HC'2        0.2500   -2.2070   -0.2360 ha        1 132      0.144333
     36 HC'3        0.1410   -3.6290    1.6470 ha        1 132      0.144333
     37 HC'4        0.0740   -2.7070    3.8220 ha        1 132      0.146500
     38 HO6         1.0380    1.7990    2.1290 ho        1 132      0.252000
     39 H2'         2.1770   -0.2880    4.7590 ha        1 132      0.144333
     40 H3'         2.1640    0.5670    6.9610 ha        1 132      0.144333
     41 H4'         0.1180    1.1530    7.9890 ha        1 132      0.144333
     42 H5'        -1.9130    0.8840    6.8130 ha        1 132      0.144333
     43 H6'        -1.9000    0.0300    4.6110 ha        1 132      0.146500
@<TRIPOS>BOND
     1    1    6 1   
     2    1    7 1   
     3    2    3 1   
     4    2   26 1   
     5    3   27 1   
     6    4    5 1   
     7    6   28 1   
     8    7    8 1   
     9    7    9 1   
    10    8   29 1   
    11    8   30 1   
    12    9   32 1   
    13   10   12 1   
    14   11   12 1   
    15   12   13 1   
    16   13   18 1   
    17   14   15 1   
    18   14   35 1   
    19   15   36 1   
    20   16   17 1   
    21   16   37 1   
    22   18   19 1   
    23   19   38 1   
    24   20   25 1   
    25   21   22 1   
    26   21   39 1   
    27   22   40 1   
    28   23   24 1   
    29   23   41 1   
    30   24   42 1   
    31   25   43 1   
@<TRIPOS>SUBSTRUCTURE
     1 132         1 TEMP              0 ****  ****    0 ROOT
