@<TRIPOS>MOLECULE
132
   43    46     1     0     0
SMALL
bcc


@<TRIPOS>ATOM
      1 C1         -4.5070    0.2450    0.2470 ca        1 132     -0.300900
      2 C2         -4.1280   -1.0070   -0.2990 ca        1 132      0.044400
      3 C3         -2.8030   -1.3040   -0.5800 ca        1 132     -0.114000
      4 C4         -1.8360   -0.3230   -0.3000 ca        1 132     -0.001200
      5 C5         -2.2170    0.9680    0.2580 ca        1 132     -0.095800
      6 C6         -3.5540    1.2330    0.5150 ca        1 132     -0.021000
      7 C7         -5.9290    0.5420    0.5500 ce        1 132      0.533400
      8 N1         -6.6120   -0.2810    1.3760 nh        1 132     -0.469100
      9 N2         -6.4780    1.6560    0.0100 nh        1 132     -0.453200
     10 N3         -0.4650   -0.3250   -0.4800 na        1 132     -0.143400
     11 C9         -1.0000    1.7170    0.4200 cc        1 132     -0.186200
     12 C8          0.0540    0.9040   -0.0270 cd        1 132      0.072700
     13 C1'         1.4640    1.2490   -0.0680 ca        1 132     -0.109800
     14 C2'         1.8080    2.6070   -0.1800 ca        1 132     -0.068000
     15 C3'         3.1370    3.0080   -0.2060 ca        1 132     -0.159000
     16 C4'         4.1570    2.0620   -0.1140 ca        1 132     -0.054000
     17 C5'         3.8570    0.7010    0.0040 cp        1 132     -0.104000
     18 C6'         2.5040    0.2970    0.0130 ca        1 132      0.165100
     19 O6'         2.1400   -1.0270    0.0980 oh        1 132     -0.530100
     20 C1B         4.9490   -0.2680    0.1140 cp        1 132     -0.074000
     21 C2B         5.9230   -0.3410   -0.8910 ca        1 132     -0.122500
     22 C3B         6.9790   -1.2450   -0.7780 ca        1 132     -0.123500
     23 C4B         7.0740   -2.0760    0.3380 ca        1 132     -0.112000
     24 C5B         6.1110   -2.0020    1.3450 ca        1 132     -0.123500
     25 C6B         5.0520   -1.1030    1.2360 ca        1 132     -0.122500
     26 CL2        -5.3110   -2.1760   -0.6610 cl        1 132     -0.071400
     27 HC3        -2.5180   -2.2760   -1.0140 ha        1 132      0.175000
     28 HC6        -3.8460    2.2040    0.9470 ha        1 132      0.150000
     29 HH11       -7.5770   -0.1580    1.5900 hn        1 132      0.324200
     30 HH12       -6.1490   -1.0920    1.7330 hn        1 132      0.324200
     31 HH21       -5.9190    2.2130   -0.6030 hn        1 132      0.324200
     32 HH22       -7.4170    1.9390    0.1800 hn        1 132      0.324200
     33 HN3         0.0910   -1.1010   -0.7530 hn        1 132      0.335700
     34 HC9        -0.9140    2.7200    0.8280 ha        1 132      0.174000
     35 HC'2        1.0070    3.3600   -0.2540 ha        1 132      0.142000
     36 HC'3        3.3880    4.0760   -0.2980 ha        1 132      0.151000
     37 HC'4        5.2120    2.3810   -0.1310 ha        1 132      0.155000
     38 HO6         2.9440   -1.5710    0.1350 ho        1 132      0.453000
     39 H2'         5.8520    0.3180   -1.7690 ha        1 132      0.139500
     40 H3'         7.7400   -1.2980   -1.5720 ha        1 132      0.143500
     41 H4'         7.9110   -2.7850    0.4270 ha        1 132      0.145000
     42 H5'         6.1910   -2.6500    2.2310 ha        1 132      0.143500
     43 H6'         4.3030   -1.0340    2.0400 ha        1 132      0.139500
@<TRIPOS>BOND
     1    1    2 ar  
     2    1    6 ar  
     3    1    7 1   
     4    2    3 ar  
     5    2   26 1   
     6    3    4 ar  
     7    3   27 1   
     8    4    5 ar  
     9    4   10 1   
    10    5    6 ar  
    11    5   11 1   
    12    6   28 1   
    13    7    8 2   
    14    7    9 1   
    15    8   29 1   
    16    8   30 1   
    17    9   31 1   
    18    9   32 1   
    19   10   12 1   
    20   10   33 1   
    21   11   12 2   
    22   11   34 1   
    23   12   13 1   
    24   13   14 ar  
    25   13   18 ar  
    26   14   15 ar  
    27   14   35 1   
    28   15   16 ar  
    29   15   36 1   
    30   16   17 ar  
    31   16   37 1   
    32   17   18 ar  
    33   17   20 1   
    34   18   19 1   
    35   19   38 1   
    36   20   21 ar  
    37   20   25 ar  
    38   21   22 ar  
    39   21   39 1   
    40   22   23 ar  
    41   22   40 1   
    42   23   24 ar  
    43   23   41 1   
    44   24   25 ar  
    45   24   42 1   
    46   25   43 1   
@<TRIPOS>SUBSTRUCTURE
     1 132         1 TEMP              0 ****  ****    0 ROOT
