@<TRIPOS>MOLECULE
132
   43    46     1     0     0
SMALL
bcc


@<TRIPOS>ATOM
      1 C1         -0.0330    0.0680   -0.0680 ca        1 132     -0.300900
      2 C2          1.3720   -0.1260   -0.0740 ca        1 132      0.044400
      3 C3          2.0920   -0.2490    1.1040 ca        1 132     -0.114000
      4 C4          1.3850   -0.1830    2.3170 ca        1 132     -0.001200
      5 C5         -0.0590    0.0200    2.3330 ca        1 132     -0.095800
      6 C6         -0.7440    0.1500    1.1340 ca        1 132     -0.021000
      7 C7         -0.7890    0.1890   -1.3390 ce        1 132      0.533400
      8 N1         -0.7020   -0.8020   -2.2530 nh        1 132     -0.469100
      9 N2         -1.5700    1.2800   -1.5160 nh        1 132     -0.453200
     10 N3          1.8210   -0.2600    3.6270 na        1 132     -0.143400
     11 C9         -0.4530    0.0340    3.7170 cc        1 132     -0.186200
     12 C8          0.7090   -0.1480    4.4840 cd        1 132      0.072700
     13 C1'         0.8000   -0.1840    5.9330 ca        1 132     -0.109800
     14 C2'        -0.1760    0.5050    6.6720 ca        1 132     -0.068000
     15 C3'        -0.1600    0.4960    8.0610 ca        1 132     -0.159000
     16 C4'         0.8300   -0.2090    8.7450 ca        1 132     -0.054000
     17 C5'         1.8160   -0.9120    8.0480 cp        1 132     -0.104000
     18 C6'         1.8040   -0.8860    6.6360 ca        1 132      0.165100
     19 O6'         2.7610   -1.5320    5.8870 oh        1 132     -0.530100
     20 C1B         2.8330   -1.6550    8.7930 cp        1 132     -0.074000
     21 C2B         3.6480   -0.9890    9.7180 ca        1 132     -0.122500
     22 C3B         4.6000   -1.6960   10.4500 ca        1 132     -0.123500
     23 C4B         4.7430   -3.0720   10.2700 ca        1 132     -0.112000
     24 C5B         3.9290   -3.7420    9.3560 ca        1 132     -0.123500
     25 C6B         2.9780   -3.0390    8.6190 ca        1 132     -0.122500
     26 CL2         2.2210   -0.1750   -1.5470 cl        1 132     -0.071400
     27 HC3         3.1840   -0.3890    1.0910 ha        1 132      0.175000
     28 HC6        -1.8360    0.2930    1.1410 ha        1 132      0.150000
     29 HH11       -0.0980   -1.5760   -2.0630 hn        1 132      0.324200
     30 HH12       -1.1530   -0.7660   -3.1400 hn        1 132      0.324200
     31 HH21       -1.5780    1.9800   -0.8040 hn        1 132      0.324200
     32 HH22       -2.1260    1.4270   -2.3290 hn        1 132      0.324200
     33 HN3         2.7390   -0.4900    3.9280 hn        1 132      0.335700
     34 HC9        -1.4650    0.1500    4.0930 ha        1 132      0.174000
     35 HC'2       -0.9600    1.0650    6.1380 ha        1 132      0.142000
     36 HC'3       -0.9300    1.0450    8.6240 ha        1 132      0.151000
     37 HC'4        0.8400   -0.2190    9.8480 ha        1 132      0.155000
     38 HO6         3.3930   -1.9600    6.4890 ho        1 132      0.453000
     39 H2'         3.5320    0.0960    9.8660 ha        1 132      0.139500
     40 H3'         5.2380   -1.1670   11.1740 ha        1 132      0.143500
     41 H4'         5.4920   -3.6300   10.8520 ha        1 132      0.145000
     42 H5'         4.0330   -4.8290    9.2190 ha        1 132      0.143500
     43 H6'         2.3240   -3.5730    7.9120 ha        1 132      0.139500
@<TRIPOS>BOND
     1    1    2 ar  
     2    1    6 ar  
     3    1    7 1   
     4    2    3 ar  
     5    2   26 1   
     6    3    4 ar  
     7    3   27 1   
     8    4    5 ar  
     9    4   10 1   
    10    5    6 ar  
    11    5   11 1   
    12    6   28 1   
    13    7    8 2   
    14    7    9 1   
    15    8   29 1   
    16    8   30 1   
    17    9   31 1   
    18    9   32 1   
    19   10   12 1   
    20   10   33 1   
    21   11   12 2   
    22   11   34 1   
    23   12   13 1   
    24   13   14 ar  
    25   13   18 ar  
    26   14   15 ar  
    27   14   35 1   
    28   15   16 ar  
    29   15   36 1   
    30   16   17 ar  
    31   16   37 1   
    32   17   18 ar  
    33   17   20 1   
    34   18   19 1   
    35   19   38 1   
    36   20   21 ar  
    37   20   25 ar  
    38   21   22 ar  
    39   21   39 1   
    40   22   23 ar  
    41   22   40 1   
    42   23   24 ar  
    43   23   41 1   
    44   24   25 ar  
    45   24   42 1   
    46   25   43 1   
@<TRIPOS>SUBSTRUCTURE
     1 132         1 TEMP              0 ****  ****    0 ROOT
