@<TRIPOS>MOLECULE
133
   45    47     1     0     0
SMALL
bcc


@<TRIPOS>ATOM
      1 C1         -0.0850    0.0890    0.0680 ca        1 133     -0.330900
      2 C2          1.2920   -0.2760    0.0310 ca        1 133      0.168900
      3 F2          1.8810   -0.4830   -1.1700 f         1 133     -0.127900
      4 C3          2.0460   -0.4230    1.2010 ca        1 133     -0.153000
      5 C4          1.3920   -0.1960    2.4150 ca        1 133     -0.008200
      6 C5         -0.0200    0.1900    2.4620 ca        1 133      0.061400
      7 C6         -0.7360    0.3350    1.2790 ca        1 133     -0.025000
      8 C7         -0.8030    0.2520   -1.2080 ce        1 133      0.602800
      9 N1         -2.0020   -0.6600   -1.2930 n4        1 133     -0.824600
     10 N2         -0.5760    0.9880   -2.2260 n2        1 133     -0.710100
     11 N3          1.8130   -0.2450    3.7340 na        1 133     -0.266300
     12 N4         -0.4160    0.3580    3.8040 nc        1 133     -0.529100
     13 C8          0.6830    0.0880    4.5390 cd        1 133      0.546400
     14 C1'         0.7940    0.1160    5.9970 ca        1 133     -0.175900
     15 C2'         1.7210    0.9740    6.6110 ca        1 133     -0.104000
     16 C3'         1.8180    1.0290    7.9940 ca        1 133     -0.128000
     17 C4'         0.9990    0.2280    8.7990 ca        1 133     -0.130000
     18 C5'         0.0810   -0.6320    8.2040 ca        1 133      0.053100
     19 C6'        -0.0330   -0.6950    6.7880 ca        1 133      0.164100
     20 O6'        -0.8970   -1.5530    6.1620 oh        1 133     -0.486100
     21 O5'        -0.7540   -1.5000    8.8770 os        1 133     -0.349900
     22 C10        -0.9480   -1.2180   10.2740 c3        1 133      0.135400
     23 C20        -2.0890   -2.1230   10.7340 c3        1 133     -0.072700
     24 C30        -2.0890   -2.1940   12.2460 c3        1 133     -0.093600
     25 C40        -3.4170   -1.6180   10.2140 c3        1 133     -0.093600
     26 HC3         3.1080   -0.7050    1.1470 ha        1 133      0.180000
     27 HC6        -1.7860    0.6650    1.3140 ha        1 133      0.153000
     28 HH11       -1.6620   -1.6270   -1.3310 hn        1 133      0.469467
     29 HH12       -2.5630   -0.5350   -0.4440 hn        1 133      0.469467
     30 HH21        0.2180    1.5960   -2.2010 hn        1 133      0.490400
     31 HN3         2.7080   -0.5000    4.0650 hn        1 133      0.329700
     32 HC'2        2.3610    1.6180    5.9880 ha        1 133      0.142000
     33 HC'3        2.5430    1.7080    8.4690 ha        1 133      0.152000
     34 HC'4        1.0890    0.2830    9.8940 ha        1 133      0.155000
     35 HO'6       -1.4620   -1.9630    6.8400 ho        1 133      0.452000
     36 H101        0.0010   -1.4630   10.8200 h1        1 133      0.048200
     37 H102       -1.2030   -0.1360   10.4110 h1        1 133      0.048200
     38 H20        -1.9070   -3.1540   10.3170 hc        1 133      0.066700
     39 H301       -2.9300   -2.8410   12.5940 hc        1 133      0.041867
     40 H302       -2.2200   -1.1770   12.6890 hc        1 133      0.041867
     41 H303       -1.1300   -2.6260   12.6200 hc        1 133      0.041867
     42 H401       -4.2340   -2.3250   10.4950 hc        1 133      0.041867
     43 H402       -3.6550   -0.6150   10.6430 hc        1 133      0.041867
     44 H403       -3.3850   -1.5300    9.1010 hc        1 133      0.041867
     45 H13        -2.5770   -0.4670   -2.1220 hn        1 133      0.469467
@<TRIPOS>BOND
     1    1    2 ar  
     2    1    7 ar  
     3    1    8 1   
     4    2    3 1   
     5    2    4 ar  
     6    4    5 ar  
     7    4   26 1   
     8    5    6 ar  
     9    5   11 1   
    10    6    7 ar  
    11    6   12 1   
    12    7   27 1   
    13    8    9 1   
    14    8   10 2   
    15    9   28 1   
    16    9   29 1   
    17    9   45 1   
    18   10   30 1   
    19   11   13 1   
    20   11   31 1   
    21   12   13 2   
    22   13   14 1   
    23   14   15 ar  
    24   14   19 ar  
    25   15   16 ar  
    26   15   32 1   
    27   16   17 ar  
    28   16   33 1   
    29   17   18 ar  
    30   17   34 1   
    31   18   19 ar  
    32   18   21 1   
    33   19   20 1   
    34   20   35 1   
    35   21   22 1   
    36   22   23 1   
    37   22   36 1   
    38   22   37 1   
    39   23   24 1   
    40   23   25 1   
    41   23   38 1   
    42   24   39 1   
    43   24   40 1   
    44   24   41 1   
    45   25   42 1   
    46   25   43 1   
    47   25   44 1   
@<TRIPOS>SUBSTRUCTURE
     1 133         1 TEMP              0 ****  ****    0 ROOT
