@<TRIPOS>MOLECULE
133
   44    46     1     0     0
SMALL
bcc


@<TRIPOS>ATOM
      1 C1          0.6490   -0.0970   -4.5810 ca        1 133     -0.186900
      2 C2         -0.6180    0.5200   -4.7790 ca        1 133      0.191900
      3 F2         -0.9930    0.9160   -6.0160 f         1 133     -0.119900
      4 C3         -1.4980    0.7440   -3.7090 ca        1 133     -0.187000
      5 C4         -1.0770    0.3370   -2.4420 ca        1 133     -0.037200
      6 C5          0.2180   -0.2880   -2.2290 ca        1 133      0.049400
      7 C6          1.0680   -0.5000   -3.3200 ca        1 133     -0.036000
      8 C7          1.5480   -0.3400   -5.7560 ce        1 133      0.656800
      9 N1          2.7450    0.4040   -5.7190 nh        1 133     -0.959800
     10 N2          1.1320   -1.1350   -6.6930 n2        1 133     -0.815100
     11 N3         -1.6790    0.4040   -1.1860 na        1 133     -0.274300
     12 N4          0.3730   -0.5910   -0.8630 nc        1 133     -0.571100
     13 C8         -0.7660   -0.1720   -0.2660 cd        1 133      0.475400
     14 C1'        -1.1050   -0.2860    1.1540 ca        1 133     -0.188900
     15 C2'        -2.3780   -0.7770    1.5030 ca        1 133     -0.115000
     16 C3'        -2.7460   -0.9000    2.8320 ca        1 133     -0.133000
     17 C4'        -1.8590   -0.5390    3.8530 ca        1 133     -0.165000
     18 C5'        -0.5930   -0.0600    3.5300 ca        1 133      0.100100
     19 C6'        -0.1990    0.0660    2.1630 ca        1 133      0.162100
     20 O6'         1.0600    0.5630    1.9680 oh        1 133     -0.471100
     21 O5'         0.3610    0.3430    4.4400 os        1 133     -0.303900
     22 C10         0.0580    0.0700    5.8160 c3        1 133      0.126400
     23 C20         1.2980    0.4770    6.6080 c3        1 133     -0.069700
     24 C30         0.9360    0.6190    8.0700 c3        1 133     -0.092600
     25 C40         2.4090   -0.5330    6.4180 c3        1 133     -0.092600
     26 HC3        -2.4730    1.2180   -3.8790 ha        1 133      0.157000
     27 HC6         2.0430   -0.9890   -3.1760 ha        1 133      0.154000
     28 HH11        3.5010    0.0750   -6.2730 hn        1 133      0.401300
     29 HH12        3.0060    0.7640   -4.8320 hn        1 133      0.401300
     30 HH21        1.7500   -1.2780   -7.4640 hn        1 133      0.385400
     31 HN3        -2.5740    0.7570   -0.9750 hn        1 133      0.313700
     32 HC'2       -3.0780   -1.0820    0.7110 ha        1 133      0.136000
     33 HC'3       -3.7410   -1.2880    3.0960 ha        1 133      0.139000
     34 HC'4       -2.1710   -0.6420    4.9020 ha        1 133      0.145000
     35 HO'6        1.2770    0.5260    1.0240 ho        1 133      0.442000
     36 H101       -0.1680   -1.0200    5.9480 h1        1 133      0.039200
     37 H102       -0.8300    0.6830    6.1240 h1        1 133      0.039200
     38 H20         1.6490    1.4730    6.2150 hc        1 133      0.070700
     39 H301        1.8410    0.9000    8.6600 hc        1 133      0.038700
     40 H302        0.1620    1.4110    8.2090 hc        1 133      0.038700
     41 H303        0.5370   -0.3430    8.4730 hc        1 133      0.038700
     42 H401        2.1160   -1.5260    6.8360 hc        1 133      0.038700
     43 H402        2.6290   -0.6540    5.3290 hc        1 133      0.038700
     44 H403        3.3350   -0.1900    6.9370 hc        1 133      0.038700
@<TRIPOS>BOND
     1    1    2 ar  
     2    1    7 ar  
     3    1    8 1   
     4    2    3 1   
     5    2    4 ar  
     6    4    5 ar  
     7    4   26 1   
     8    5    6 ar  
     9    5   11 1   
    10    6    7 ar  
    11    6   12 1   
    12    7   27 1   
    13    8    9 1   
    14    8   10 2   
    15    9   28 1   
    16    9   29 1   
    17   10   30 1   
    18   11   13 1   
    19   11   31 1   
    20   12   13 2   
    21   13   14 1   
    22   14   15 ar  
    23   14   19 ar  
    24   15   16 ar  
    25   15   32 1   
    26   16   17 ar  
    27   16   33 1   
    28   17   18 ar  
    29   17   34 1   
    30   18   19 ar  
    31   18   21 1   
    32   19   20 1   
    33   20   35 1   
    34   21   22 1   
    35   22   23 1   
    36   22   36 1   
    37   22   37 1   
    38   23   24 1   
    39   23   25 1   
    40   23   38 1   
    41   24   39 1   
    42   24   40 1   
    43   24   41 1   
    44   25   42 1   
    45   25   43 1   
    46   25   44 1   
@<TRIPOS>SUBSTRUCTURE
     1 133         1 TEMP              0 ****  ****    0 ROOT
