@<TRIPOS>MOLECULE
133
   44    36     1     0     0
SMALL
bcc


@<TRIPOS>ATOM
      1 C1          1.1750    0.6760   -5.3820 c1        1 133     -0.172000
      2 C2          0.2680    1.7400   -5.4220 c1        1 133      0.118000
      3 F2         -0.2520    2.4350   -6.3940 f         1 133     -0.101000
      4 C3         -0.2210    2.2730   -4.2440 c1        1 133     -0.178000
      5 C4          0.1960    1.7430   -2.9990 c1        1 133     -0.045000
      6 C5          1.0750    0.7130   -2.9590 c1        1 133     -0.045000
      7 C6          1.5800    0.1610   -4.1630 c1        1 133     -0.011000
      8 C7          1.6820    0.1610   -6.7540 c2        1 133      0.119000
      9 N1          1.0100   -0.9110   -7.4040 n3        1 133     -0.330000
     10 N2          2.7260    0.7140   -7.3130 n1        1 133     -0.292000
     11 N3         -0.1230    2.0680   -1.7330 n1        1 133     -0.172000
     12 N4          1.2950    0.4080   -1.6590 n1        1 133     -0.172000
     13 C8          0.5580    1.2410   -0.9040 c2        1 133      0.072000
     14 C1'         0.5340    1.2470    0.4870 c1        1 133     -0.043000
     15 C2'         1.3760    2.0950    1.1960 c1        1 133     -0.109500
     16 C3'         1.3250    2.1240    2.5800 c1        1 133     -0.109500
     17 C4'         0.4360    1.3100    3.2550 c1        1 133     -0.129000
     18 C5'        -0.4030    0.4660    2.5510 c1        1 133     -0.013000
     19 C6'        -0.3510    0.4380    1.1600 c1        1 133      0.085000
     20 O6'        -1.2520   -0.3680    0.4380 oh        1 133     -0.270000
     21 O5'        -1.3750   -0.3090    3.2420 os        1 133     -0.237000
     22 C10        -0.8310   -1.1110    4.2980 c3        1 133     -0.017000
     23 C20        -1.8900   -2.1410    4.7490 c3        1 133     -0.115000
     24 C30        -1.3730   -3.5210    4.5170 c3        1 133     -0.209000
     25 C40        -2.1860   -1.9520    6.2200 c3        1 133     -0.209000
     26 HC3        -0.8560    3.0230   -4.2690 ha        1 133      0.156000
     27 HC6         2.2150   -0.5860   -4.1310 ha        1 133      0.170000
     28 HH11        1.3330   -1.2390   -8.2040 hn        1 133      0.191500
     29 HH12        0.2970   -1.3230   -6.9940 hn        1 133      0.191500
     30 HH21        3.1480    1.3890   -6.9030 DU        1 133      0.215000
     31 HN3        -0.7220    2.7570   -1.4680 DU        1 133      0.215000
     32 HC'2        2.0120    2.6790    0.7120 ha        1 133      0.154000
     33 HC'3        1.9210    2.7230    3.0820 ha        1 133      0.154000
     34 HC'4        0.4020    1.3280    4.2150 ha        1 133      0.145000
     35 HO'6       -0.8830   -1.1560    0.2800 ho        1 133      0.249000
     36 H101       -0.5780   -0.5140    5.0890 h1        1 133      0.084000
     37 H102       -0.0220   -1.5890    3.9710 h1        1 133      0.084000
     38 H20        -2.7620   -2.0020    4.2000 hc        1 133      0.106000
     39 H301       -1.9710   -4.1650    4.9360 hc        1 133      0.078000
     40 H302       -0.4500   -3.6090    4.9190 hc        1 133      0.078000
     41 H303       -1.3300   -3.6930    3.5680 hc        1 133      0.078000
     42 H401       -1.3140   -1.9410    6.7430 hc        1 133      0.078000
     43 H402       -2.7520   -2.6970    6.5380 hc        1 133      0.078000
     44 H403       -2.6670   -1.0830    6.3550 hc        1 133      0.078000
@<TRIPOS>BOND
     1    1    7 1   
     2    1    8 1   
     3    2    3 1   
     4    2    4 1   
     5    4   26 1   
     6    5    6 1   
     7    7   27 1   
     8    8    9 1   
     9    8   10 1   
    10    9   28 1   
    11    9   29 1   
    12   11   13 1   
    13   12   13 1   
    14   13   14 1   
    15   14   19 1   
    16   15   16 1   
    17   15   32 1   
    18   16   33 1   
    19   17   18 1   
    20   17   34 1   
    21   18   21 1   
    22   19   20 1   
    23   20   35 1   
    24   21   22 1   
    25   22   23 1   
    26   22   36 1   
    27   22   37 1   
    28   23   24 1   
    29   23   25 1   
    30   23   38 1   
    31   24   39 1   
    32   24   40 1   
    33   24   41 1   
    34   25   42 1   
    35   25   43 1   
    36   25   44 1   
@<TRIPOS>SUBSTRUCTURE
     1 133         1 TEMP              0 ****  ****    0 ROOT
