@<TRIPOS>MOLECULE
133
   45    47     1     0     0
SMALL
bcc


@<TRIPOS>ATOM
      1 C1         -0.0890    0.0770    0.0650 ca        1 133     -0.330900
      2 C2          1.2860   -0.2950    0.0280 ca        1 133      0.168900
      3 F2          1.8730   -0.5080   -1.1750 f         1 133     -0.127900
      4 C3          2.0400   -0.4450    1.1960 ca        1 133     -0.153000
      5 C4          1.3890   -0.2110    2.4100 ca        1 133     -0.008200
      6 C5         -0.0210    0.1820    2.4590 ca        1 133      0.061400
      7 C6         -0.7380    0.3290    1.2760 ca        1 133     -0.025000
      8 C7         -0.8070    0.2410   -1.2100 ce        1 133      0.602800
      9 N1         -2.0110   -0.6660   -1.2930 n4        1 133     -0.824600
     10 N2         -0.5780    0.9740   -2.2300 n2        1 133     -0.710100
     11 N3          1.8110   -0.2600    3.7290 na        1 133     -0.266300
     12 N4         -0.4150    0.3550    3.8000 nc        1 133     -0.529100
     13 C8          0.6840    0.0810    4.5350 cd        1 133      0.546400
     14 C1'         0.7970    0.1110    5.9930 ca        1 133     -0.175900
     15 C2'         1.7300    0.9650    6.6040 ca        1 133     -0.104000
     16 C3'         1.8280    1.0220    7.9870 ca        1 133     -0.128000
     17 C4'         1.0050    0.2290    8.7940 ca        1 133     -0.130000
     18 C5'         0.0810   -0.6270    8.2020 ca        1 133      0.053100
     19 C6'        -0.0350   -0.6930    6.7870 ca        1 133      0.164100
     20 O6'        -0.9040   -1.5470    6.1640 oh        1 133     -0.486100
     21 O5'        -0.7590   -1.4890    8.8770 os        1 133     -0.349900
     22 C10        -0.9450   -1.2060   10.2760 c3        1 133      0.135400
     23 C20        -2.0900   -2.1030   10.7400 c3        1 133     -0.071700
     24 C30        -2.0820   -2.1780   12.2520 c3        1 133     -0.093600
     25 C40        -3.4170   -1.5890   10.2290 c3        1 133     -0.093600
     26 HC3         3.1000   -0.7320    1.1430 ha        1 133      0.180000
     27 HC6        -1.7860    0.6640    1.3120 ha        1 133      0.153000
     28 HH11       -1.6750   -1.6350   -1.3290 hn        1 133      0.469467
     29 HH12       -2.5710   -0.5370   -0.4440 hn        1 133      0.469467
     30 HH21        0.2180    1.5790   -2.2070 hn        1 133      0.490400
     31 HN3         2.7050   -0.5190    4.0600 hn        1 133      0.329700
     32 HC'2        2.3720    1.6030    5.9790 ha        1 133      0.142000
     33 HC'3        2.5570    1.6980    8.4590 ha        1 133      0.152000
     34 HC'4        1.0960    0.2850    9.8890 ha        1 133      0.155000
     35 HO'6       -1.4720   -1.9520    6.8420 ho        1 133      0.452000
     36 H101        0.0050   -1.4570   10.8170 h1        1 133      0.048200
     37 H102       -1.1930   -0.1230   10.4150 h1        1 133      0.048200
     38 H20        -1.9170   -3.1350   10.3210 hc        1 133      0.066700
     39 H301       -2.9260   -2.8190   12.6040 hc        1 133      0.041867
     40 H302       -2.2030   -1.1610   12.6980 hc        1 133      0.041867
     41 H303       -1.1240   -2.6170   12.6200 hc        1 133      0.041867
     42 H401       -3.3900   -1.4990    9.1160 hc        1 133      0.041867
     43 H402       -3.6460   -0.5850   10.6610 hc        1 133      0.041867
     44 H403       -4.2380   -2.2910   10.5130 hc        1 133      0.041867
     45 H13        -2.5860   -0.4720   -2.1220 hn        1 133      0.469467
@<TRIPOS>BOND
     1    1    2 ar  
     2    1    7 ar  
     3    1    8 1   
     4    2    3 1   
     5    2    4 ar  
     6    4    5 ar  
     7    4   26 1   
     8    5    6 ar  
     9    5   11 1   
    10    6    7 ar  
    11    6   12 1   
    12    7   27 1   
    13    8    9 1   
    14    8   10 2   
    15    9   28 1   
    16    9   29 1   
    17    9   45 1   
    18   10   30 1   
    19   11   13 1   
    20   11   31 1   
    21   12   13 2   
    22   13   14 1   
    23   14   15 ar  
    24   14   19 ar  
    25   15   16 ar  
    26   15   32 1   
    27   16   17 ar  
    28   16   33 1   
    29   17   18 ar  
    30   17   34 1   
    31   18   19 ar  
    32   18   21 1   
    33   19   20 1   
    34   20   35 1   
    35   21   22 1   
    36   22   23 1   
    37   22   36 1   
    38   22   37 1   
    39   23   24 1   
    40   23   25 1   
    41   23   38 1   
    42   24   39 1   
    43   24   40 1   
    44   24   41 1   
    45   25   42 1   
    46   25   43 1   
    47   25   44 1   
@<TRIPOS>SUBSTRUCTURE
     1 133         1 TEMP              0 ****  ****    0 ROOT
