@<TRIPOS>MOLECULE
133
   45    47     1     0     0
SMALL
bcc


@<TRIPOS>ATOM
      1 C1         -0.0890    0.0870    0.0660 ca        1 133     -0.330900
      2 C2          1.2830   -0.2950    0.0270 ca        1 133      0.168900
      3 F2          1.8680   -0.5100   -1.1760 f         1 133     -0.127900
      4 C3          2.0370   -0.4530    1.1950 ca        1 133     -0.153000
      5 C4          1.3890   -0.2170    2.4100 ca        1 133     -0.008200
      6 C5         -0.0180    0.1860    2.4610 ca        1 133      0.061400
      7 C6         -0.7350    0.3410    1.2790 ca        1 133     -0.025000
      8 C7         -0.8070    0.2590   -1.2080 ce        1 133      0.602800
      9 N1         -2.0180   -0.6390   -1.2910 nz        1 133     -0.824600
     10 N2         -0.5730    0.9920   -2.2260 n2        1 133     -0.710100
     11 N3          1.8120   -0.2720    3.7290 na        1 133     -0.266300
     12 N4         -0.4100    0.3590    3.8030 nc        1 133     -0.529100
     13 C8          0.6880    0.0750    4.5360 cd        1 133      0.546400
     14 C1'         0.8020    0.1020    5.9940 ca        1 133     -0.175900
     15 C2'         1.7410    0.9490    6.6060 ca        1 133     -0.104000
     16 C3'         1.8410    1.0020    7.9890 ca        1 133     -0.128000
     17 C4'         1.0140    0.2110    8.7950 ca        1 133     -0.130000
     18 C5'         0.0840   -0.6370    8.2020 ca        1 133      0.053100
     19 C6'        -0.0330   -0.6990    6.7870 ca        1 133      0.164100
     20 O6'        -0.9090   -1.5460    6.1630 oh        1 133     -0.486100
     21 O5'        -0.7610   -1.4960    8.8770 os        1 133     -0.349900
     22 C10        -0.9450   -1.2130   10.2750 c3        1 133      0.135400
     23 C20        -2.0950   -2.1040   10.7380 c3        1 133     -0.071700
     24 C30        -2.0900   -2.1780   12.2500 c3        1 133     -0.093600
     25 C40        -3.4200   -1.5820   10.2250 c3        1 133     -0.093600
     26 HC3         3.0960   -0.7480    1.1400 ha        1 133      0.180000
     27 HC6        -1.7810    0.6830    1.3160 ha        1 133      0.153000
     28 HH11       -1.6890   -1.6100   -1.3300 hn        1 133      0.469467
     29 HH12       -2.5760   -0.5070   -0.4410 hn        1 133      0.469467
     30 HH21        0.2280    1.5910   -2.2030 hn        1 133      0.490400
     31 HN3         2.7040   -0.5380    4.0580 hn        1 133      0.329700
     32 HC'2        2.3870    1.5840    5.9810 ha        1 133      0.142000
     33 HC'3        2.5750    1.6720    8.4620 ha        1 133      0.152000
     34 HC'4        1.1070    0.2640    9.8900 ha        1 133      0.155000
     35 HO'6       -1.4780   -1.9490    6.8410 ho        1 133      0.452000
     36 H101        0.0030   -1.4700   10.8170 h1        1 133      0.048200
     37 H102       -1.1870   -0.1280   10.4150 h1        1 133      0.048200
     38 H20        -1.9280   -3.1370   10.3190 hc        1 133      0.066700
     39 H301       -2.9380   -2.8160   12.6010 hc        1 133      0.041867
     40 H302       -2.2060   -1.1610   12.6950 hc        1 133      0.041867
     41 H303       -1.1350   -2.6230   12.6190 hc        1 133      0.041867
     42 H401       -4.2440   -2.2800   10.5080 hc        1 133      0.041867
     43 H402       -3.6430   -0.5770   10.6570 hc        1 133      0.041867
     44 H403       -3.3910   -1.4930    9.1120 hc        1 133      0.041867
     45 H13        -2.5920   -0.4390   -2.1190 hn        1 133      0.469467
@<TRIPOS>BOND
     1    1    2 ar  
     2    1    7 ar  
     3    1    8 1   
     4    2    3 1   
     5    2    4 ar  
     6    4    5 ar  
     7    4   26 1   
     8    5    6 ar  
     9    5   11 1   
    10    6    7 ar  
    11    6   12 1   
    12    7   27 1   
    13    8    9 1   
    14    8   10 2   
    15    9   28 1   
    16    9   29 1   
    17    9   45 1   
    18   10   30 1   
    19   11   13 1   
    20   11   31 1   
    21   12   13 2   
    22   13   14 1   
    23   14   15 ar  
    24   14   19 ar  
    25   15   16 ar  
    26   15   32 1   
    27   16   17 ar  
    28   16   33 1   
    29   17   18 ar  
    30   17   34 1   
    31   18   19 ar  
    32   18   21 1   
    33   19   20 1   
    34   20   35 1   
    35   21   22 1   
    36   22   23 1   
    37   22   36 1   
    38   22   37 1   
    39   23   24 1   
    40   23   25 1   
    41   23   38 1   
    42   24   39 1   
    43   24   40 1   
    44   24   41 1   
    45   25   42 1   
    46   25   43 1   
    47   25   44 1   
@<TRIPOS>SUBSTRUCTURE
     1 133         1 TEMP              0 ****  ****    0 ROOT
