@<TRIPOS>MOLECULE
134
   52    44     1     0     0
SMALL
bcc


@<TRIPOS>ATOM
      1 C1         -0.6690    0.6430   -6.3320 c1        1 134     -0.179000
      2 C2          0.3020    1.6750   -6.3270 c1        1 134      0.119000
      3 F2          0.8730    2.2500   -7.3880 f         1 134     -0.104000
      4 C3          0.7510    2.1990   -5.1250 c1        1 134     -0.189000
      5 C4          0.2440    1.7070   -3.9110 c1        1 134     -0.036500
      6 C5         -0.7110    0.6910   -3.9150 c1        1 134     -0.036500
      7 C6         -1.1680    0.1580   -5.1400 c1        1 134     -0.022000
      8 C7         -1.1250    0.1920   -7.7050 c2        1 134      0.119000
      9 N1         -2.2280    0.7870   -8.2980 n3        1 134     -0.329000
     10 N2         -0.4720   -0.7670   -8.3360 n1        1 134     -0.294000
     11 N3          0.5100    2.0410   -2.5910 n1        1 134     -0.187000
     12 CN4        -1.0330    0.4010   -2.5900 c1        1 134     -0.179000
     13 C8         -0.2800    1.2330   -1.7730 c2        1 134      0.024000
     14 C1'        -0.4200    1.2320   -0.3670 c1        1 134     -0.041000
     15 C2'        -1.3570    2.0730    0.2400 c1        1 134     -0.119500
     16 C3'        -1.4350    2.1440    1.6210 c1        1 134     -0.119500
     17 C4'        -0.5750    1.3740    2.4130 c1        1 134     -0.116000
     18 C5'         0.3520    0.5420    1.8180 c1        1 134     -0.021000
     19 C6'         0.4320    0.4690    0.4140 c1        1 134      0.082000
     20 O6'         1.4790   -0.2640   -0.1950 oh        1 134     -0.270000
     21 O5'         1.2740   -0.1950    2.6250 os        1 134     -0.239000
     22 C1B         1.6910   -1.1950    4.7360 c3        1 134     -0.100000
     23 C2B         0.9970   -1.8480    5.9000 c3        1 134     -0.154000
     24 C3B        -0.2550   -2.2620    5.5700 c3        1 134     -0.159000
     25 C4B        -0.6060   -2.8190    4.3920 c3        1 134     -0.152000
     26 C5B         0.1080   -2.1460    3.2210 c3        1 134     -0.183000
     27 C6B         0.6720   -0.7100    3.5820 c3        1 134      0.037000
     28 CM          2.4420   -0.0190    5.2290 c3        1 134     -0.208000
     29 HC3         1.3990    2.8860   -5.1220 ha        1 134      0.153000
     30 HC6        -1.8540   -0.5720   -5.1450 ha        1 134      0.157000
     31 HH11       -2.6860    1.4490   -7.8530 hn        1 134      0.189500
     32 HH12       -2.5270    0.4890   -9.0990 hn        1 134      0.189500
     33 HH21        0.2650   -1.1650   -7.9390 DU        1 134      0.193667
     34 HN3         1.1030    2.6850   -2.3050 DU        1 134      0.193667
     35 HN4        -1.6540   -0.2480   -2.2990 DU        1 134      0.193667
     36 HC'2       -1.9430    2.5960   -0.2960 ha        1 134      0.143000
     37 HC'3       -2.0800    2.7230    2.0370 ha        1 134      0.143000
     38 HC'4       -0.6310    1.4260    3.3750 ha        1 134      0.146000
     39 HO'6        1.2290   -1.1190   -0.2920 ho        1 134      0.246000
     40 H1'         2.3410   -1.8530    4.3380 hc        1 134      0.099000
     41 H2'1        1.5130   -2.6070    6.1850 hc        1 134      0.084000
     42 H2'2        0.9390   -1.2130    6.6310 hc        1 134      0.084000
     43 H3'1       -0.5180   -2.9090    6.2640 hc        1 134      0.082000
     44 H3'2       -0.8250   -1.4920    5.6780 hc        1 134      0.082000
     45 H4'1       -0.3770   -3.7570    4.4050 hc        1 134      0.084500
     46 H4'2       -1.6150   -2.7230    4.2670 hc        1 134      0.084500
     47 H5'1        0.8610   -2.7190    2.9370 hc        1 134      0.089000
     48 H5'2       -0.5060   -2.0620    2.4940 hc        1 134      0.089000
     49 H6'        -0.0250   -0.1270    3.9350 h1        1 134      0.091000
     50 HM1         1.8030    0.7230    5.4310 hc        1 134      0.079667
     51 HM2         2.9330   -0.2600    6.0440 hc        1 134      0.079667
     52 HM3         3.0600    0.2670    4.5580 hc        1 134      0.079667
@<TRIPOS>BOND
     1    1    7 1   
     2    1    8 1   
     3    2    3 1   
     4    2    4 1   
     5    4   29 1   
     6    5    6 1   
     7    7   30 1   
     8    8    9 1   
     9    8   10 1   
    10    9   31 1   
    11    9   32 1   
    12   11   13 1   
    13   12   13 1   
    14   13   14 1   
    15   14   19 1   
    16   15   16 1   
    17   15   36 1   
    18   16   37 1   
    19   17   18 1   
    20   17   38 1   
    21   18   21 1   
    22   19   20 1   
    23   20   39 1   
    24   21   27 1   
    25   22   23 1   
    26   22   27 1   
    27   22   28 1   
    28   22   40 1   
    29   23   24 1   
    30   23   41 1   
    31   23   42 1   
    32   24   25 1   
    33   24   43 1   
    34   24   44 1   
    35   25   26 1   
    36   25   45 1   
    37   25   46 1   
    38   26   27 1   
    39   26   47 1   
    40   26   48 1   
    41   27   49 1   
    42   28   50 1   
    43   28   51 1   
    44   28   52 1   
@<TRIPOS>SUBSTRUCTURE
     1 134         1 TEMP              0 ****  ****    0 ROOT
