@<TRIPOS>MOLECULE
134
   53    56     1     0     0
SMALL
bcc


@<TRIPOS>ATOM
      1 C1          0.1530    0.0860    0.0870 ca        1 134     -0.335900
      2 C2          1.4020   -0.5840    0.2520 ca        1 134      0.134900
      3 F2          2.0800   -0.9930   -0.8530 f         1 134     -0.155900
      4 C3          1.9460   -0.8280    1.5110 ca        1 134     -0.147000
      5 C4          1.2120   -0.4000    2.6290 ca        1 134      0.005800
      6 C5         -0.0710    0.2750    2.4720 ca        1 134     -0.102800
      7 C6         -0.5740    0.5120    1.2020 ca        1 134     -0.007000
      8 C7         -0.3720    0.4040   -1.2510 ce        1 134      0.610800
      9 N1         -0.4610   -0.8100   -2.1400 n4        1 134     -0.828600
     10 N2         -0.7670    1.5070   -1.7620 n2        1 134     -0.727100
     11 N3          1.4900   -0.4860    3.9790 na        1 134     -0.144400
     12 CN4        -0.5430    0.5620    3.8010 cc        1 134     -0.180200
     13 C8          0.4200    0.0810    4.7010 cd        1 134      0.068700
     14 C1'         0.3770    0.1550    6.1510 ca        1 134     -0.087800
     15 C2'        -0.4190    1.1540    6.7430 ca        1 134     -0.094000
     16 C3'        -0.5320    1.2610    8.1230 ca        1 134     -0.132000
     17 C4'         0.1440    0.3740    8.9630 ca        1 134     -0.119000
     18 C5'         0.9490   -0.6150    8.4010 ca        1 134      0.051100
     19 C6'         1.0800   -0.7260    6.9940 ca        1 134      0.135100
     20 O6'         1.8770   -1.6980    6.4380 oh        1 134     -0.528100
     21 O5'         1.6010   -1.5930    9.1260 os        1 134     -0.356900
     22 C1B         3.6630   -1.7320   10.3260 c3        1 134     -0.075700
     23 C2B         4.3430   -1.4700   11.6620 c3        1 134     -0.074400
     24 C3B         3.5360   -2.0170   12.8200 c3        1 134     -0.081400
     25 C4B         2.1350   -1.4420   12.8290 c3        1 134     -0.077400
     26 C5B         1.4310   -1.6980   11.5150 c3        1 134     -0.095400
     27 C6B         2.2440   -1.1500   10.3470 c3        1 134      0.149100
     28 CM          4.4760   -1.1390    9.1960 c3        1 134     -0.091100
     29 HC3         2.9180   -1.3340    1.6130 ha        1 134      0.176000
     30 HC6        -1.5390    1.0300    1.0800 ha        1 134      0.153000
     31 HH11       -0.8780   -0.5930   -3.0520 hn        1 134      0.471800
     32 HH12       -1.0250   -1.5180   -1.6600 hn        1 134      0.471800
     33 HH21       -0.7010    2.3340   -1.2040 hn        1 134      0.483400
     34 HN3         2.2530   -0.9680    4.3940 hn        1 134      0.336700
     35 HN4        -1.4800    1.0500    4.0540 ha        1 134      0.175000
     36 HC'2       -0.9580    1.8630    6.0950 ha        1 134      0.143000
     37 HC'3       -1.1640    2.0490    8.5610 ha        1 134      0.151000
     38 HC'4        0.0430    0.4510   10.0560 ha        1 134      0.157000
     39 HO'6        2.2420   -2.2440    7.1560 ho        1 134      0.462000
     40 H1'         3.5780   -2.8440   10.1710 hc        1 134      0.065700
     41 H2'1        4.4910   -0.3650   11.7950 hc        1 134      0.048700
     42 H2'2        5.3580   -1.9460   11.6520 hc        1 134      0.048700
     43 H3'1        3.4820   -3.1350   12.7460 hc        1 134      0.049700
     44 H3'2        4.0510   -1.7680   13.7840 hc        1 134      0.049700
     45 H4'1        2.1840   -0.3380   13.0230 hc        1 134      0.048200
     46 H4'2        1.5430   -1.9030   13.6620 hc        1 134      0.048200
     47 H5'1        0.4180   -1.2170   11.5200 hc        1 134      0.054700
     48 H5'2        1.2780   -2.7990   11.3680 hc        1 134      0.054700
     49 H6'         2.2900   -0.0290   10.3830 h1        1 134      0.058700
     50 HM1         4.6190   -0.0410    9.3440 hc        1 134      0.036700
     51 HM2         5.4810   -1.6230    9.1490 hc        1 134      0.036700
     52 HM3         3.9540   -1.3000    8.2210 hc        1 134      0.036700
     53 H13         0.4950   -1.1720   -2.2750 hn        1 134      0.471800
@<TRIPOS>BOND
     1    1    2 ar  
     2    1    7 ar  
     3    1    8 1   
     4    2    3 1   
     5    2    4 ar  
     6    4    5 ar  
     7    4   29 1   
     8    5    6 ar  
     9    5   11 1   
    10    6    7 ar  
    11    6   12 1   
    12    7   30 1   
    13    8    9 1   
    14    8   10 2   
    15    9   31 1   
    16    9   32 1   
    17    9   53 1   
    18   10   33 1   
    19   11   13 1   
    20   11   34 1   
    21   12   13 2   
    22   12   35 1   
    23   13   14 1   
    24   14   15 ar  
    25   14   19 ar  
    26   15   16 ar  
    27   15   36 1   
    28   16   17 ar  
    29   16   37 1   
    30   17   18 ar  
    31   17   38 1   
    32   18   19 ar  
    33   18   21 1   
    34   19   20 1   
    35   20   39 1   
    36   21   27 1   
    37   22   23 1   
    38   22   27 1   
    39   22   28 1   
    40   22   40 1   
    41   23   24 1   
    42   23   41 1   
    43   23   42 1   
    44   24   25 1   
    45   24   43 1   
    46   24   44 1   
    47   25   26 1   
    48   25   45 1   
    49   25   46 1   
    50   26   27 1   
    51   26   47 1   
    52   26   48 1   
    53   27   49 1   
    54   28   50 1   
    55   28   51 1   
    56   28   52 1   
@<TRIPOS>SUBSTRUCTURE
     1 134         1 TEMP              0 ****  ****    0 ROOT
