@<TRIPOS>MOLECULE
134
   52    55     1     0     0
SMALL
bcc


@<TRIPOS>ATOM
      1 C1         -5.4550   -0.1840   -0.0630 ca        1 134     -0.206900
      2 C2         -4.9260   -1.4840    0.1770 ca        1 134      0.174900
      3 F2         -5.7670   -2.5230    0.3930 f         1 134     -0.133900
      4 C3         -3.5470   -1.7150    0.2150 ca        1 134     -0.195000
      5 C4         -2.7010   -0.6160    0.0050 ca        1 134     -0.009200
      6 C5         -3.2340    0.7090   -0.2340 ca        1 134     -0.119800
      7 C6         -4.6140    0.9000   -0.2700 ca        1 134     -0.030000
      8 C7         -6.9390    0.0140   -0.1180 ce        1 134      0.651800
      9 N1         -7.4330    0.8940    0.8740 nh        1 134     -0.950800
     10 N2         -7.6030   -0.5520   -1.0770 n2        1 134     -0.810100
     11 N3         -1.3130   -0.5450   -0.0470 na        1 134     -0.165400
     12 CN4        -2.0990    1.5810   -0.3980 cc        1 134     -0.166200
     13 C8         -0.9450    0.7980   -0.2610 cd        1 134      0.005700
     14 C1'         0.4310    1.2530   -0.3570 ca        1 134     -0.045800
     15 C2'         0.6990    2.4170   -1.0990 ca        1 134     -0.100000
     16 C3'         1.9870    2.9270   -1.2100 ca        1 134     -0.140000
     17 C4'         3.0590    2.2880   -0.5870 ca        1 134     -0.133000
     18 C5'         2.8210    1.1230    0.1410 ca        1 134      0.036100
     19 C6'         1.5140    0.5950    0.2600 ca        1 134      0.123100
     20 O6'         1.2810   -0.5520    0.9820 oh        1 134     -0.517100
     21 O5'         3.8020    0.4590    0.8600 os        1 134     -0.357900
     22 C1B         5.3400   -1.2740    0.2500 c3        1 134     -0.076700
     23 C2B         6.7320   -1.5610   -0.2930 c3        1 134     -0.074400
     24 C3B         7.7900   -0.7320    0.4030 c3        1 134     -0.080400
     25 C4B         7.4850    0.7470    0.2890 c3        1 134     -0.076400
     26 C5B         6.1120    1.0640    0.8380 c3        1 134     -0.093400
     27 C6B         5.0390    0.2270    0.1480 c3        1 134      0.149100
     28 CM          4.3080   -2.0850   -0.5020 c3        1 134     -0.093100
     29 HC3        -3.1550   -2.7230    0.3960 ha        1 134      0.152000
     30 HC6        -5.0310    1.9000   -0.4650 ha        1 134      0.151000
     31 HH11       -6.8410    1.0080    1.6650 hn        1 134      0.394300
     32 HH12       -8.3950    0.7980    1.1050 hn        1 134      0.394300
     33 HH21       -8.5900   -0.4040   -1.0830 hn        1 134      0.381400
     34 HN3        -0.6860   -1.2580    0.2270 hn        1 134      0.315700
     35 HN4        -2.1420    2.6500   -0.5850 ha        1 134      0.158000
     36 HC'2       -0.1370    2.9300   -1.6020 ha        1 134      0.146000
     37 HC'3        2.1640    3.8440   -1.7930 ha        1 134      0.140000
     38 HC'4        4.0790    2.6920   -0.6640 ha        1 134      0.144000
     39 HO'6        2.1130   -0.8130    1.4120 ho        1 134      0.449000
     40 H1'         5.3060   -1.5580    1.3390 hc        1 134      0.062700
     41 H2'1        6.9570   -2.6510   -0.1590 hc        1 134      0.044700
     42 H2'2        6.7530   -1.3470   -1.3950 hc        1 134      0.044700
     43 H3'1        7.8420   -1.0220    1.4860 hc        1 134      0.044700
     44 H3'2        8.7920   -0.9460   -0.0520 hc        1 134      0.044700
     45 H4'1        8.2550    1.3360    0.8530 hc        1 134      0.043700
     46 H4'2        7.5430    1.0600   -0.7860 hc        1 134      0.043700
     47 H5'1        6.0810    0.8580    1.9400 hc        1 134      0.053700
     48 H5'2        5.8800    2.1510    0.6930 hc        1 134      0.053700
     49 H6'         4.9390    0.5230   -0.9300 h1        1 134      0.058700
     50 HM1         4.4840   -3.1760   -0.3450 hc        1 134      0.038367
     51 HM2         3.2810   -1.8310   -0.1400 hc        1 134      0.038367
     52 HM3         4.3570   -1.8730   -1.5970 hc        1 134      0.038367
@<TRIPOS>BOND
     1    1    2 ar  
     2    1    7 ar  
     3    1    8 1   
     4    2    3 1   
     5    2    4 ar  
     6    4    5 ar  
     7    4   29 1   
     8    5    6 ar  
     9    5   11 1   
    10    6    7 ar  
    11    6   12 1   
    12    7   30 1   
    13    8    9 1   
    14    8   10 2   
    15    9   31 1   
    16    9   32 1   
    17   10   33 1   
    18   11   13 1   
    19   11   34 1   
    20   12   13 2   
    21   12   35 1   
    22   13   14 1   
    23   14   15 ar  
    24   14   19 ar  
    25   15   16 ar  
    26   15   36 1   
    27   16   17 ar  
    28   16   37 1   
    29   17   18 ar  
    30   17   38 1   
    31   18   19 ar  
    32   18   21 1   
    33   19   20 1   
    34   20   39 1   
    35   21   27 1   
    36   22   23 1   
    37   22   27 1   
    38   22   28 1   
    39   22   40 1   
    40   23   24 1   
    41   23   41 1   
    42   23   42 1   
    43   24   25 1   
    44   24   43 1   
    45   24   44 1   
    46   25   26 1   
    47   25   45 1   
    48   25   46 1   
    49   26   27 1   
    50   26   47 1   
    51   26   48 1   
    52   27   49 1   
    53   28   50 1   
    54   28   51 1   
    55   28   52 1   
@<TRIPOS>SUBSTRUCTURE
     1 134         1 TEMP              0 ****  ****    0 ROOT
