@<TRIPOS>MOLECULE
134
   53    56     1     0     0
SMALL
bcc


@<TRIPOS>ATOM
      1 C1          0.1360    0.1170    0.0940 ca        1 134     -0.335900
      2 C2          1.3970   -0.5310    0.2530 ca        1 134      0.134900
      3 F2          2.0820   -0.9190   -0.8560 f         1 134     -0.155900
      4 C3          1.9470   -0.7770    1.5100 ca        1 134     -0.147000
      5 C4          1.2050   -0.3720    2.6310 ca        1 134      0.005800
      6 C5         -0.0890    0.2810    2.4820 ca        1 134     -0.102800
      7 C6         -0.5980    0.5200    1.2130 ca        1 134     -0.007000
      8 C7         -0.3950    0.4380   -1.2400 ce        1 134      0.610800
      9 N1         -0.4620   -0.7700   -2.1400 n4        1 134     -0.828600
     10 N2         -0.8100    1.5380   -1.7410 n2        1 134     -0.727100
     11 N3          1.4860   -0.4650    3.9810 na        1 134     -0.144400
     12 CN4        -0.5670    0.5470    3.8130 cc        1 134     -0.180200
     13 C8          0.4060    0.0760    4.7080 cd        1 134      0.068700
     14 C1'         0.3630    0.1360    6.1590 ca        1 134     -0.087800
     15 C2'        -0.4520    1.1150    6.7600 ca        1 134     -0.094000
     16 C3'        -0.5660    1.2080    8.1410 ca        1 134     -0.132000
     17 C4'         0.1270    0.3270    8.9730 ca        1 134     -0.118000
     18 C5'         0.9500   -0.6420    8.4020 ca        1 134      0.051100
     19 C6'         1.0820   -0.7390    6.9940 ca        1 134      0.135100
     20 O6'         1.8970   -1.6910    6.4290 oh        1 134     -0.528100
     21 O5'         1.6200   -1.6140    9.1180 os        1 134     -0.356900
     22 C1B         3.6870   -1.7240   10.3140 c3        1 134     -0.075700
     23 C2B         4.3640   -1.4620   11.6510 c3        1 134     -0.074400
     24 C3B         3.5690   -2.0340   12.8050 c3        1 134     -0.081400
     25 C4B         2.1580   -1.4860   12.8220 c3        1 134     -0.077400
     26 C5B         1.4560   -1.7440   11.5060 c3        1 134     -0.095400
     27 C6B         2.2570   -1.1700   10.3420 c3        1 134      0.149100
     28 CM          4.4860   -1.1060    9.1880 c3        1 134     -0.091100
     29 HC3         2.9270   -1.2670    1.6060 ha        1 134      0.176000
     30 HC6        -1.5710    1.0220    1.0970 ha        1 134      0.153000
     31 HH11       -0.8840   -0.5510   -3.0500 hn        1 134      0.471800
     32 HH12        0.5000   -1.1130   -2.2790 hn        1 134      0.471800
     33 HH21       -0.7580    2.3610   -1.1760 hn        1 134      0.483400
     34 HN3         2.2570   -0.9370    4.3910 hn        1 134      0.336700
     35 HN4        -1.5120    1.0160    4.0710 ha        1 134      0.175000
     36 HC'2       -1.0040    1.8190    6.1190 ha        1 134      0.143000
     37 HC'3       -1.2120    1.9810    8.5860 ha        1 134      0.151000
     38 HC'4        0.0260    0.3920   10.0670 ha        1 134      0.157000
     39 HO'6        2.2720   -2.2360    7.1420 ho        1 134      0.462000
     40 H1'         3.6230   -2.8360   10.1480 hc        1 134      0.065700
     41 H2'1        4.4910   -0.3560   11.7940 hc        1 134      0.048700
     42 H2'2        5.3880   -1.9180   11.6360 hc        1 134      0.048700
     43 H3'1        3.5360   -3.1530   12.7210 hc        1 134      0.049700
     44 H3'2        4.0800   -1.7840   13.7710 hc        1 134      0.049700
     45 H4'1        1.5760   -1.9660   13.6510 hc        1 134      0.048200
     46 H4'2        2.1860   -0.3830   13.0250 hc        1 134      0.048200
     47 H5'1        1.3240   -2.8460   11.3500 hc        1 134      0.054700
     48 H5'2        0.4350   -1.2820   11.5170 hc        1 134      0.054700
     49 H6'         2.2810   -0.0490   10.3880 h1        1 134      0.058700
     50 HM1         3.9660   -1.2680    8.2120 hc        1 134      0.036700
     51 HM2         4.6090   -0.0070    9.3460 hc        1 134      0.036700
     52 HM3         5.5000   -1.5710    9.1350 hc        1 134      0.036700
     53 H13        -1.0130   -1.4910   -1.6670 hn        1 134      0.471800
@<TRIPOS>BOND
     1    1    2 ar  
     2    1    7 ar  
     3    1    8 1   
     4    2    3 1   
     5    2    4 ar  
     6    4    5 ar  
     7    4   29 1   
     8    5    6 ar  
     9    5   11 1   
    10    6    7 ar  
    11    6   12 1   
    12    7   30 1   
    13    8    9 1   
    14    8   10 2   
    15    9   31 1   
    16    9   32 1   
    17    9   53 1   
    18   10   33 1   
    19   11   13 1   
    20   11   34 1   
    21   12   13 2   
    22   12   35 1   
    23   13   14 1   
    24   14   15 ar  
    25   14   19 ar  
    26   15   16 ar  
    27   15   36 1   
    28   16   17 ar  
    29   16   37 1   
    30   17   18 ar  
    31   17   38 1   
    32   18   19 ar  
    33   18   21 1   
    34   19   20 1   
    35   20   39 1   
    36   21   27 1   
    37   22   23 1   
    38   22   27 1   
    39   22   28 1   
    40   22   40 1   
    41   23   24 1   
    42   23   41 1   
    43   23   42 1   
    44   24   25 1   
    45   24   43 1   
    46   24   44 1   
    47   25   26 1   
    48   25   45 1   
    49   25   46 1   
    50   26   27 1   
    51   26   47 1   
    52   26   48 1   
    53   27   49 1   
    54   28   50 1   
    55   28   51 1   
    56   28   52 1   
@<TRIPOS>SUBSTRUCTURE
     1 134         1 TEMP              0 ****  ****    0 ROOT
