@<TRIPOS>MOLECULE
134
   53    56     1     0     0
SMALL
bcc


@<TRIPOS>ATOM
      1 C1          0.1630    0.1020    0.0870 ca        1 134     -0.335900
      2 C2          1.4300   -0.5340    0.2530 ca        1 134      0.134900
      3 F2          2.1250   -0.9150   -0.8520 f         1 134     -0.155900
      4 C3          1.9750   -0.7740    1.5130 ca        1 134     -0.147000
      5 C4          1.2230   -0.3750    2.6300 ca        1 134      0.005800
      6 C5         -0.0770    0.2650    2.4730 ca        1 134     -0.102800
      7 C6         -0.5800    0.4980    1.2020 ca        1 134     -0.007000
      8 C7         -0.3640    0.4170   -1.2500 ce        1 134      0.610800
      9 N1         -0.4140   -0.7920   -2.1500 nz        1 134     -0.828600
     10 N2         -0.7870    1.5130   -1.7540 n2        1 134     -0.727100
     11 N3          1.4970   -0.4650    3.9820 na        1 134     -0.144400
     12 CN4        -0.5640    0.5270    3.8020 cc        1 134     -0.180200
     13 C8          0.4090    0.0660    4.7020 cd        1 134      0.068700
     14 C1'         0.3570    0.1260    6.1520 ca        1 134     -0.087800
     15 C2'        -0.4690    1.0980    6.7490 ca        1 134     -0.094000
     16 C3'        -0.5920    1.1910    8.1290 ca        1 134     -0.132000
     17 C4'         0.1050    0.3160    8.9650 ca        1 134     -0.118000
     18 C5'         0.9390   -0.6450    8.3990 ca        1 134      0.051100
     19 C6'         1.0790   -0.7420    6.9920 ca        1 134      0.135100
     20 O6'         1.9060   -1.6870    6.4320 oh        1 134     -0.528100
     21 O5'         1.6150   -1.6110    9.1200 os        1 134     -0.356900
     22 C1B         3.6760   -1.7020   10.3270 c3        1 134     -0.075700
     23 C2B         4.3430   -1.4320   11.6680 c3        1 134     -0.074400
     24 C3B         3.5470   -2.0110   12.8170 c3        1 134     -0.081400
     25 C4B         2.1310   -1.4750   12.8260 c3        1 134     -0.077400
     26 C5B         1.4390   -1.7400   11.5070 c3        1 134     -0.095400
     27 C6B         2.2410   -1.1610   10.3470 c3        1 134      0.149100
     28 CM          4.4760   -1.0780    9.2050 c3        1 134     -0.091100
     29 HC3         2.9590   -1.2540    1.6150 ha        1 134      0.176000
     30 HC6        -1.5580    0.9900    1.0790 ha        1 134      0.153000
     31 HH11       -0.8330   -0.5780   -3.0630 hn        1 134      0.471800
     32 HH12        0.5510   -1.1250   -2.2840 hn        1 134      0.471800
     33 HH21       -0.7460    2.3360   -1.1890 hn        1 134      0.483400
     34 HN3         2.2710   -0.9300    4.3960 hn        1 134      0.336700
     35 HN4        -1.5150    0.9870    4.0540 ha        1 134      0.175000
     36 HC'2       -1.0250    1.7970    6.1050 ha        1 134      0.143000
     37 HC'3       -1.2470    1.9580    8.5710 ha        1 134      0.151000
     38 HC'4       -0.0030    0.3810   10.0590 ha        1 134      0.157000
     39 HO'6        2.2820   -2.2280    7.1470 ho        1 134      0.462000
     40 H1'         3.6220   -2.8150   10.1620 hc        1 134      0.065700
     41 H2'1        4.4590   -0.3250   11.8090 hc        1 134      0.048700
     42 H2'2        5.3710   -1.8800   11.6580 hc        1 134      0.048700
     43 H3'1        4.0510   -1.7560   13.7860 hc        1 134      0.049700
     44 H3'2        3.5240   -3.1300   12.7340 hc        1 134      0.049700
     45 H4'1        1.5480   -1.9600   13.6520 hc        1 134      0.048200
     46 H4'2        2.1480   -0.3720   13.0280 hc        1 134      0.048200
     47 H5'1        1.3170   -2.8440   11.3500 hc        1 134      0.054700
     48 H5'2        0.4130   -1.2880   11.5120 hc        1 134      0.054700
     49 H6'         2.2550   -0.0390   10.3920 h1        1 134      0.058700
     50 HM1         4.5880    0.0220    9.3620 hc        1 134      0.036700
     51 HM2         5.4940   -1.5340    9.1580 hc        1 134      0.036700
     52 HM3         3.9620   -1.2450    8.2260 hc        1 134      0.036700
     53 H13        -0.9610   -1.5180   -1.6790 hn        1 134      0.471800
@<TRIPOS>BOND
     1    1    2 ar  
     2    1    7 ar  
     3    1    8 1   
     4    2    3 1   
     5    2    4 ar  
     6    4    5 ar  
     7    4   29 1   
     8    5    6 ar  
     9    5   11 1   
    10    6    7 ar  
    11    6   12 1   
    12    7   30 1   
    13    8    9 1   
    14    8   10 2   
    15    9   31 1   
    16    9   32 1   
    17    9   53 1   
    18   10   33 1   
    19   11   13 1   
    20   11   34 1   
    21   12   13 2   
    22   12   35 1   
    23   13   14 1   
    24   14   15 ar  
    25   14   19 ar  
    26   15   16 ar  
    27   15   36 1   
    28   16   17 ar  
    29   16   37 1   
    30   17   18 ar  
    31   17   38 1   
    32   18   19 ar  
    33   18   21 1   
    34   19   20 1   
    35   20   39 1   
    36   21   27 1   
    37   22   23 1   
    38   22   27 1   
    39   22   28 1   
    40   22   40 1   
    41   23   24 1   
    42   23   41 1   
    43   23   42 1   
    44   24   25 1   
    45   24   43 1   
    46   24   44 1   
    47   25   26 1   
    48   25   45 1   
    49   25   46 1   
    50   26   27 1   
    51   26   47 1   
    52   26   48 1   
    53   27   49 1   
    54   28   50 1   
    55   28   51 1   
    56   28   52 1   
@<TRIPOS>SUBSTRUCTURE
     1 134         1 TEMP              0 ****  ****    0 ROOT
