@<TRIPOS>MOLECULE
135
   33    34     1     0     0
SMALL
bcc


@<TRIPOS>ATOM
      1 C1         -0.1500   -0.0800    0.0220 ca        1 135     -0.338900
      2 C2          1.1480   -0.6070   -0.0150 ca        1 135     -0.053000
      3 C3          1.9890   -0.4930    1.0780 ca        1 135     -0.183500
      4 C4          1.5520    0.1560    2.2640 ca        1 135      0.160600
      5 C5          0.2240    0.6800    2.2850 ca        1 135     -0.183500
      6 C6         -0.6030    0.5620    1.1840 ca        1 135     -0.053000
      7 C7         -1.0370   -0.2440   -1.1370 ce        1 135      0.610800
      8 N1         -1.2960    1.0830   -1.8170 n4        1 135     -0.829600
      9 N2         -1.5950   -1.2650   -1.6610 n2        1 135     -0.723100
     10 N3          2.3320    0.2840    3.4010 n         1 135     -0.455100
     11 C8          3.6970   -0.0210    3.5330 c         1 135      0.705700
     12 O8          4.3490   -0.4900    2.5860 o         1 135     -0.568100
     13 C9          4.3120    0.1870    4.8700 ca        1 135     -0.193600
     14 C10         5.3000   -0.7360    5.2530 ca        1 135     -0.039000
     15 C11         5.9550   -0.6150    6.4740 ca        1 135     -0.162000
     16 C12         5.6430    0.4420    7.3330 ca        1 135     -0.050000
     17 C13         4.6780    1.3760    6.9720 ca        1 135     -0.214000
     18 C14         4.0100    1.2480    5.7420 ca        1 135      0.159100
     19 O14         3.0490    2.1580    5.3610 oh        1 135     -0.526100
     20 H2          1.5100   -1.1240   -0.9190 ha        1 135      0.140500
     21 H3          3.0080   -0.9190    1.0150 ha        1 135      0.179500
     22 H5         -0.1580    1.1810    3.1900 ha        1 135      0.179500
     23 H6         -1.6300    0.9570    1.2380 ha        1 135      0.140500
     24 HH11       -0.4060    1.4230   -2.1970 hn        1 135      0.466467
     25 HH12       -1.9860    1.0080   -2.5730 hn        1 135      0.466467
     26 HH21       -1.4510   -2.1550   -1.2300 hn        1 135      0.488400
     27 HN3         1.9010    0.7420    4.1810 hn        1 135      0.346500
     28 H10         5.5580   -1.5550    4.5610 ha        1 135      0.163000
     29 H11         6.7230   -1.3490    6.7600 ha        1 135      0.156000
     30 H12         6.1650    0.5400    8.2990 ha        1 135      0.153000
     31 H13         4.4370    2.2150    7.6410 ha        1 135      0.149000
     32 H14         3.0330    2.8750    6.0130 ho        1 135      0.443000
     33 H131       -1.6290    1.7410   -1.1060 hn        1 135      0.466467
@<TRIPOS>BOND
     1    1    2 ar  
     2    1    6 ar  
     3    1    7 1   
     4    2    3 ar  
     5    2   20 1   
     6    3    4 ar  
     7    3   21 1   
     8    4    5 ar  
     9    4   10 1   
    10    5    6 ar  
    11    5   22 1   
    12    6   23 1   
    13    7    8 1   
    14    7    9 2   
    15    8   24 1   
    16    8   25 1   
    17    8   33 1   
    18    9   26 1   
    19   10   11 1   
    20   10   27 1   
    21   11   12 2   
    22   11   13 1   
    23   13   14 ar  
    24   13   18 ar  
    25   14   15 ar  
    26   14   28 1   
    27   15   16 ar  
    28   15   29 1   
    29   16   17 ar  
    30   16   30 1   
    31   17   18 ar  
    32   17   31 1   
    33   18   19 1   
    34   19   32 1   
@<TRIPOS>SUBSTRUCTURE
     1 135         1 TEMP              0 ****  ****    0 ROOT
