@<TRIPOS>MOLECULE
135
   32    33     1     0     0
SMALL
bcc


@<TRIPOS>ATOM
      1 C1         -0.1440    0.1090    3.7160 ca        1 135     -0.225900
      2 C2          0.9320    0.5130    2.9210 ca        1 135     -0.078500
      3 C3          0.8360    0.5080    1.5340 ca        1 135     -0.173500
      4 C4         -0.3590    0.0940    0.9070 ca        1 135      0.080600
      5 C5         -1.4460   -0.3100    1.7210 ca        1 135     -0.173500
      6 C6         -1.3320   -0.3010    3.1050 ca        1 135     -0.078500
      7 C7         -0.0180    0.1450    5.2070 ce        1 135      0.641800
      8 N1         -0.4630   -1.0290    5.8550 nh        1 135     -0.892800
      9 N2          0.4040    1.1750    5.8790 n2        1 135     -0.835100
     10 N3         -0.5320    0.0810   -0.4860 n         1 135     -0.462100
     11 C8          0.4470    0.2330   -1.4580 c         1 135      0.692700
     12 O8          1.6560    0.3730   -1.1770 o         1 135     -0.614100
     13 C9         -0.0150    0.1950   -2.8730 ca        1 135     -0.242600
     14 C10        -1.2260    0.7940   -3.2530 ca        1 135     -0.070000
     15 C11        -1.6550    0.7560   -4.5720 ca        1 135     -0.175000
     16 C12        -0.8770    0.1150   -5.5440 ca        1 135     -0.070000
     17 C13         0.3330   -0.4660   -5.2020 ca        1 135     -0.170000
     18 C14         0.7800   -0.4150   -3.8620 ca        1 135      0.198100
     19 O14         1.9860   -1.0160   -3.6350 oh        1 135     -0.499100
     20 H2          1.8730    0.8400    3.3910 ha        1 135      0.147000
     21 H3          1.7050    0.8290    0.9350 ha        1 135      0.155000
     22 H5         -2.3950   -0.6350    1.2670 ha        1 135      0.155000
     23 H6         -2.1890   -0.6160    3.7230 ha        1 135      0.147000
     24 HH11       -0.2400   -1.0880    6.8260 hn        1 135      0.397300
     25 HH12       -0.2450   -1.8580    5.3500 hn        1 135      0.397300
     26 HH21        0.5930    1.9780    5.3190 hn        1 135      0.394400
     27 HN3        -1.4570   -0.1170   -0.8030 hn        1 135      0.323500
     28 H10        -1.8400    1.3220   -2.5060 ha        1 135      0.135000
     29 H11        -2.6050    1.2320   -4.8570 ha        1 135      0.141000
     30 H12        -1.2250    0.0810   -6.5880 ha        1 135      0.141000
     31 H13         0.9660   -0.9640   -5.9510 ha        1 135      0.158000
     32 H14         2.3020   -0.7940   -2.7420 ho        1 135      0.457000
@<TRIPOS>BOND
     1    1    2 ar  
     2    1    6 ar  
     3    1    7 1   
     4    2    3 ar  
     5    2   20 1   
     6    3    4 ar  
     7    3   21 1   
     8    4    5 ar  
     9    4   10 1   
    10    5    6 ar  
    11    5   22 1   
    12    6   23 1   
    13    7    8 1   
    14    7    9 2   
    15    8   24 1   
    16    8   25 1   
    17    9   26 1   
    18   10   11 1   
    19   10   27 1   
    20   11   12 2   
    21   11   13 1   
    22   13   14 ar  
    23   13   18 ar  
    24   14   15 ar  
    25   14   28 1   
    26   15   16 ar  
    27   15   29 1   
    28   16   17 ar  
    29   16   30 1   
    30   17   18 ar  
    31   17   31 1   
    32   18   19 1   
    33   19   32 1   
@<TRIPOS>SUBSTRUCTURE
     1 135         1 TEMP              0 ****  ****    0 ROOT
