@<TRIPOS>MOLECULE
135
   32    27     1     0     0
SMALL
bcc


@<TRIPOS>ATOM
      1 C1         -1.8680    0.5410   -3.0690 c1        1 135     -0.148000
      2 C2         -0.4900    0.3990   -3.0850 c1        1 135     -0.137250
      3 C3          0.2220    0.4090   -1.8950 c1        1 135     -0.137250
      4 C4         -0.4450    0.5610   -0.6900 c1        1 135      0.095000
      5 C5         -1.8240    0.7030   -0.6740 c1        1 135     -0.161000
      6 C6         -2.5350    0.6930   -1.8630 c1        1 135     -0.088000
      7 C7         -2.6470    0.4980   -4.3630 c2        1 135      0.120000
      8 N1         -3.0260   -0.7490   -4.9220 n3        1 135     -0.331000
      9 N2         -2.9720    1.6100   -4.9680 n1        1 135     -0.307000
     10 N3          0.2880    0.6220    0.5240 n         1 135     -0.309000
     11 C8          0.5650   -0.5670    1.2470 c2        1 135      0.366000
     12 O8          0.1740   -1.6380    0.8260 o         1 135     -0.352000
     13 C9          1.3360   -0.5010    2.5480 c2        1 135     -0.155000
     14 C10         0.7120   -0.0480    3.7000 c2        1 135     -0.045000
     15 C11         1.3910   -0.0650    4.9080 c1        1 135     -0.170000
     16 C12         2.6930   -0.5340    4.9650 c1        1 135     -0.137250
     17 C13         3.3170   -0.9870    3.8140 c1        1 135     -0.137250
     18 C14         2.6390   -0.9710    2.6050 c1        1 135      0.108000
     19 O14         3.2920   -1.3770    1.4270 oh        1 135     -0.266000
     20 H2         -0.0200    0.2920   -3.9340 ha        1 135      0.140250
     21 H3          1.1930    0.3090   -1.9060 ha        1 135      0.140250
     22 H5         -2.2940    0.8100    0.1750 ha        1 135      0.175000
     23 H6         -3.5060    0.7940   -1.8520 ha        1 135      0.140000
     24 HH11       -3.4490   -0.7780   -5.7320 hn        1 135      0.191000
     25 HH12       -2.8420   -1.5250   -4.4740 hn        1 135      0.191000
     26 HH21       -2.7290    2.4140   -4.6080 DU        1 135      0.150000
     27 HN3         0.5690    1.4270    0.8470 hn        1 135      0.244000
     28 H10        -0.2060    0.2830    3.6600 ha        1 135      0.161000
     29 H11         0.9510    0.2540    5.7190 ha        1 135      0.144000
     30 H12         3.1710   -0.5460    5.8160 ha        1 135      0.140250
     31 H13         4.2350   -1.3180    3.8540 ha        1 135      0.140250
     32 H14         4.1050   -1.0170    1.3990 ho        1 135      0.232000
@<TRIPOS>BOND
     1    1    6 1   
     2    1    7 1   
     3    2    3 1   
     4    2   20 1   
     5    3   21 1   
     6    4    5 1   
     7    4   10 1   
     8    5   22 1   
     9    6   23 1   
    10    7    8 1   
    11    7    9 1   
    12    8   24 1   
    13    8   25 1   
    14   10   11 1   
    15   10   27 1   
    16   11   12 1   
    17   11   13 1   
    18   13   14 1   
    19   13   18 1   
    20   14   15 1   
    21   14   28 1   
    22   15   29 1   
    23   16   17 1   
    24   16   30 1   
    25   17   31 1   
    26   18   19 1   
    27   19   32 1   
@<TRIPOS>SUBSTRUCTURE
     1 135         1 TEMP              0 ****  ****    0 ROOT
