@<TRIPOS>MOLECULE
135
   34    35     1     0     0
SMALL
bcc


@<TRIPOS>ATOM
      1 C1          0.1780    0.0640    0.0430 ca        1 135     -0.214900
      2 C2          1.1580   -0.8840    0.3590 ca        1 135     -0.074000
      3 C3          1.6380   -0.9840    1.6650 ca        1 135     -0.085500
      4 C4          1.1290   -0.1290    2.6600 ca        1 135      0.015600
      5 C5          0.1380    0.8180    2.3430 ca        1 135     -0.085500
      6 C6         -0.3330    0.9090    1.0330 ca        1 135     -0.074000
      7 C7         -0.2530    0.2280   -1.3680 ce        1 135      0.565800
      8 N1         -1.5860   -0.4090   -1.6490 n4        1 135     -0.820600
      9 N2          0.3150    0.8120   -2.3490 n2        1 135     -0.668100
     10 N3          1.6420   -0.2150    4.0260 n4        1 135     -0.581200
     11 C8          2.4850    1.0330    4.4510 c         1 135      0.615700
     12 O8          2.0020    2.0990    4.1230 o         1 135     -0.392100
     13 C9          3.6920    0.6880    5.1780 ca        1 135     -0.267600
     14 C10         3.7040   -0.2890    6.1970 ca        1 135     -0.073000
     15 C11         4.8520   -0.5180    6.9310 ca        1 135     -0.140000
     16 C12         6.0230    0.2180    6.6680 ca        1 135     -0.002000
     17 C13         6.0400    1.1770    5.6680 ca        1 135     -0.206000
     18 C14         4.8740    1.4190    4.9150 ca        1 135      0.232100
     19 O14         4.8230    2.3180    3.8920 oh        1 135     -0.489100
     20 H2          1.5730   -1.5510   -0.4170 ha        1 135      0.178000
     21 H3          2.4190   -1.7340    1.8890 ha        1 135      0.187500
     22 H5         -0.2540    1.5150    3.1070 ha        1 135      0.187500
     23 H6         -1.0920    1.6740    0.7920 ha        1 135      0.178000
     24 HH11       -2.2810   -0.0160   -1.0050 hn        1 135      0.479133
     25 HH12       -1.5100   -1.4210   -1.4930 hn        1 135      0.479133
     26 HH21        1.2010    1.2590   -2.2240 hn        1 135      0.502400
     27 HN3         2.2310   -1.0500    4.1240 hn        1 135      0.465300
     28 H10         2.7870   -0.8450    6.4460 ha        1 135      0.133000
     29 H11         4.8550   -1.2720    7.7370 ha        1 135      0.178000
     30 H12         6.9310    0.0290    7.2690 ha        1 135      0.182000
     31 H13         6.9530    1.7590    5.4620 ha        1 135      0.179000
     32 H14         5.6550    2.8250    3.8680 ho        1 135      0.468000
     33 H131       -1.8920   -0.2410   -2.6210 hn        1 135      0.479133
     34 H32         0.8460   -0.2950    4.6710 hn        1 135      0.465300
@<TRIPOS>BOND
     1    1    2 ar  
     2    1    6 ar  
     3    1    7 1   
     4    2    3 ar  
     5    2   20 1   
     6    3    4 ar  
     7    3   21 1   
     8    4    5 ar  
     9    4   10 1   
    10    5    6 ar  
    11    5   22 1   
    12    6   23 1   
    13    7    8 1   
    14    7    9 2   
    15    8   24 1   
    16    8   25 1   
    17    8   33 1   
    18    9   26 1   
    19   10   11 1   
    20   10   27 1   
    21   10   34 1   
    22   11   12 2   
    23   11   13 1   
    24   13   14 ar  
    25   13   18 ar  
    26   14   15 ar  
    27   14   28 1   
    28   15   16 ar  
    29   15   29 1   
    30   16   17 ar  
    31   16   30 1   
    32   17   18 ar  
    33   17   31 1   
    34   18   19 1   
    35   19   32 1   
@<TRIPOS>SUBSTRUCTURE
     1 135         1 TEMP              0 ****  ****    0 ROOT
