@<TRIPOS>MOLECULE
135
   33    34     1     0     0
SMALL
bcc


@<TRIPOS>ATOM
      1 C1         -0.1200   -0.0210   -0.0100 ca        1 135     -0.338900
      2 C2          1.1760   -0.5550   -0.0420 ca        1 135     -0.053000
      3 C3          2.0040   -0.4650    1.0640 ca        1 135     -0.183500
      4 C4          1.5560    0.1660    2.2560 ca        1 135      0.160600
      5 C5          0.2310    0.6960    2.2710 ca        1 135     -0.183500
      6 C6         -0.5840    0.6020    1.1570 ca        1 135     -0.053000
      7 C7         -0.9930   -0.1600   -1.1830 ce        1 135      0.610800
      8 N1         -1.2340    1.1790   -1.8440 nz        1 135     -0.829600
      9 N2         -1.5520   -1.1680   -1.7300 n2        1 135     -0.723100
     10 N3          2.3230    0.2700    3.4040 ns        1 135     -0.455100
     11 C8          3.6860   -0.0430    3.5470 c         1 135      0.705700
     12 O8          4.3470   -0.4960    2.5980 o         1 135     -0.568100
     13 C9          4.2850    0.1380    4.8940 ca        1 135     -0.193600
     14 C10         5.2670   -0.7950    5.2710 ca        1 135     -0.039000
     15 C11         5.9070   -0.7000    6.5020 ca        1 135     -0.162000
     16 C12         5.5880    0.3420    7.3770 ca        1 135     -0.050000
     17 C13         4.6300    1.2850    7.0230 ca        1 135     -0.214000
     18 C14         3.9760    1.1830    5.7840 ca        1 135      0.159100
     19 O14         3.0220    2.1030    5.4080 oh        1 135     -0.526100
     20 H2          1.5470   -1.0570   -0.9500 ha        1 135      0.140500
     21 H3          3.0210   -0.8950    1.0050 ha        1 135      0.179500
     22 H5         -0.1600    1.1830    3.1790 ha        1 135      0.179500
     23 H6         -1.6090    1.0020    1.2060 ha        1 135      0.140500
     24 HH11       -1.9150    1.1220   -2.6100 hn        1 135      0.466467
     25 HH12       -1.5720    1.8280   -1.1260 hn        1 135      0.466467
     26 HH21       -1.4200   -2.0670   -1.3110 hn        1 135      0.488400
     27 HN3         1.8840    0.7140    4.1870 hn        1 135      0.346500
     28 H10         5.5300   -1.6020    4.5660 ha        1 135      0.163000
     29 H11         6.6700   -1.4410    6.7820 ha        1 135      0.156000
     30 H12         6.0990    0.4190    8.3510 ha        1 135      0.153000
     31 H13         4.3840    2.1120    7.7050 ha        1 135      0.149000
     32 H14         3.0010    2.8070    6.0740 ho        1 135      0.443000
     33 H131       -0.3380    1.5190   -2.2070 hn        1 135      0.466467
@<TRIPOS>BOND
     1    1    2 ar  
     2    1    6 ar  
     3    1    7 1   
     4    2    3 ar  
     5    2   20 1   
     6    3    4 ar  
     7    3   21 1   
     8    4    5 ar  
     9    4   10 1   
    10    5    6 ar  
    11    5   22 1   
    12    6   23 1   
    13    7    8 1   
    14    7    9 2   
    15    8   24 1   
    16    8   25 1   
    17    8   33 1   
    18    9   26 1   
    19   10   11 1   
    20   10   27 1   
    21   11   12 2   
    22   11   13 1   
    23   13   14 ar  
    24   13   18 ar  
    25   14   15 ar  
    26   14   28 1   
    27   15   16 ar  
    28   15   29 1   
    29   16   17 ar  
    30   16   30 1   
    31   17   18 ar  
    32   17   31 1   
    33   18   19 1   
    34   19   32 1   
@<TRIPOS>SUBSTRUCTURE
     1 135         1 TEMP              0 ****  ****    0 ROOT
