@<TRIPOS>MOLECULE
136
   36    37     1     0     0
SMALL
bcc


@<TRIPOS>ATOM
      1 C1         -0.2580   -0.1240   -0.0080 ca        1 136     -0.323900
      2 C2          0.9600    0.5660    0.1100 ca        1 136      0.074400
      3 Cl2         1.5150    1.5560   -1.1680 cl        1 136     -0.076400
      4 C3          1.7380    0.4770    1.2550 ca        1 136     -0.162000
      5 C4          1.3150   -0.3310    2.3450 ca        1 136      0.167600
      6 C5          0.0770   -1.0270    2.2170 ca        1 136     -0.196000
      7 C6         -0.6850   -0.9170    1.0690 ca        1 136     -0.036000
      8 C7         -1.1350   -0.0030   -1.1840 ce        1 136      0.606800
      9 N1         -0.4310   -0.3710   -2.4630 nz        1 136     -0.835600
     10 N2         -2.3620    0.3400   -1.2870 n2        1 136     -0.719100
     11 N3          2.0270   -0.4520    3.5250 ns        1 136     -0.452100
     12 C8          3.3290    0.0120    3.7860 c         1 136      0.706700
     13 O8          3.9690    0.6510    2.9350 o         1 136     -0.563100
     14 C9          3.8770   -0.2400    5.1450 ca        1 136     -0.192600
     15 C10         4.6440    0.7910    5.7050 ca        1 136     -0.028000
     16 C11         5.2260    0.6480    6.9650 ca        1 136     -0.105300
     17 C21         6.0390    1.7380    7.5520 c3        1 136     -0.058800
     18 C12         5.0470   -0.5500    7.6670 ca        1 136     -0.028000
     19 C13         4.3030   -1.5980    7.1290 ca        1 136     -0.066100
     20 I13         4.1240   -3.2910    8.2200 i         1 136     -0.103900
     21 C14         3.7120   -1.4430    5.8610 ca        1 136      0.189100
     22 O14         2.9650   -2.4260    5.2590 oh        1 136     -0.522100
     23 H3          2.6880    1.0430    1.3120 ha        1 136      0.213000
     24 H5         -0.2880   -1.6630    3.0410 ha        1 136      0.164000
     25 H6         -1.6390   -1.4650    1.0000 ha        1 136      0.151000
     26 HH11        0.4060    0.2370   -2.5380 hn        1 136      0.471133
     27 HH12       -0.1370   -1.3500   -2.3990 hn        1 136      0.471133
     28 HH21       -2.8460    0.6080   -0.4550 hn        1 136      0.482400
     29 HN3         1.6200   -1.0430    4.2250 hn        1 136      0.348500
     30 H10         4.7910    1.7200    5.1270 ha        1 136      0.165000
     31 H211        7.1280    1.4920    7.4650 hc        1 136      0.057700
     32 H212        5.7960    1.8730    8.6350 hc        1 136      0.057700
     33 H213        5.8560    2.7080    7.0260 hc        1 136      0.057700
     34 H12         5.5120   -0.6570    8.6630 ha        1 136      0.163000
     35 H14         3.0140   -3.2340    5.8000 ho        1 136      0.452000
     36 H13        -1.0310   -0.2450   -3.2860 hn        1 136      0.471133
@<TRIPOS>BOND
     1    1    2 ar  
     2    1    7 ar  
     3    1    8 1   
     4    2    3 1   
     5    2    4 ar  
     6    4    5 ar  
     7    4   23 1   
     8    5    6 ar  
     9    5   11 1   
    10    6    7 ar  
    11    6   24 1   
    12    7   25 1   
    13    8    9 1   
    14    8   10 2   
    15    9   26 1   
    16    9   27 1   
    17    9   36 1   
    18   10   28 1   
    19   11   12 1   
    20   11   29 1   
    21   12   13 2   
    22   12   14 1   
    23   14   15 ar  
    24   14   21 ar  
    25   15   16 ar  
    26   15   30 1   
    27   16   17 1   
    28   16   18 ar  
    29   17   31 1   
    30   17   32 1   
    31   17   33 1   
    32   18   19 ar  
    33   18   34 1   
    34   19   20 1   
    35   19   21 ar  
    36   21   22 1   
    37   22   35 1   
@<TRIPOS>SUBSTRUCTURE
     1 136         1 TEMP              0 ****  ****    0 ROOT
