@<TRIPOS>MOLECULE
136
   36    37     1     0     0
SMALL
bcc


@<TRIPOS>ATOM
      1 C1         -0.2880   -0.1750    0.0190 ca        1 136     -0.323900
      2 C2          0.8760    0.6020    0.1430 ca        1 136      0.074400
      3 CL2         1.3310    1.6750   -1.1070 cl        1 136     -0.076400
      4 C3          1.6780    0.5350    1.2720 ca        1 136     -0.162000
      5 C4          1.3360   -0.3400    2.3400 ca        1 136      0.167600
      6 C5          0.1540   -1.1250    2.2050 ca        1 136     -0.196000
      7 C6         -0.6340   -1.0350    1.0720 ca        1 136     -0.036000
      8 C7         -1.1910   -0.0820   -1.1400 ce        1 136      0.606800
      9 N1         -0.4830   -0.3520   -2.4410 n4        1 136     -0.835600
     10 N2         -2.4430    0.1690   -1.2130 n2        1 136     -0.719100
     11 N3          2.0760   -0.4470    3.5030 n         1 136     -0.452100
     12 C8          3.3430    0.1080    3.7620 c         1 136      0.706700
     13 O8          3.9170    0.8240    2.9250 o         1 136     -0.563100
     14 C9          3.9320   -0.1480    5.1030 ca        1 136     -0.192600
     15 C10         4.6270    0.9190    5.6890 ca        1 136     -0.028000
     16 C11         5.2400    0.7780    6.9340 ca        1 136     -0.105300
     17 C21         5.9770    1.9070    7.5480 c3        1 136     -0.058800
     18 C12         5.1670   -0.4540    7.5940 ca        1 136     -0.028000
     19 C13         4.4960   -1.5370    7.0300 ca        1 136     -0.066100
     20 I13         4.4670   -3.2760    8.0620 i         1 136     -0.103900
     21 C14         3.8730   -1.3850    5.7770 ca        1 136      0.189100
     22 O14         3.1930   -2.4010    5.1510 oh        1 136     -0.522100
     23 H3          2.5830    1.1700    1.3350 ha        1 136      0.213000
     24 H5         -0.1480   -1.8150    3.0110 ha        1 136      0.164000
     25 H6         -1.5450   -1.6520    0.9990 ha        1 136      0.151000
     26 HH11       -0.1150   -1.3060   -2.4160 hn        1 136      0.471133
     27 HH12        0.3030    0.3220   -2.5070 hn        1 136      0.471133
     28 HH21       -2.9320    0.3700   -0.3650 hn        1 136      0.482400
     29 HN3         1.7280   -1.0910    4.1880 hn        1 136      0.348500
     30 H10         4.6920    1.8770    5.1430 ha        1 136      0.165000
     31 H211        7.0800    1.7480    7.4370 hc        1 136      0.057700
     32 H212        5.7110    2.8770    7.0600 hc        1 136      0.057700
     33 H213        5.7430    1.9840    8.6390 hc        1 136      0.057700
     34 H12         5.6560   -0.5600    8.5790 ha        1 136      0.163000
     35 H14         3.3140   -3.2210    5.6610 ho        1 136      0.452000
     36 H13        -1.1050   -0.2440   -3.2500 hn        1 136      0.471133
@<TRIPOS>BOND
     1    1    2 ar  
     2    1    7 ar  
     3    1    8 1   
     4    2    3 1   
     5    2    4 ar  
     6    4    5 ar  
     7    4   23 1   
     8    5    6 ar  
     9    5   11 1   
    10    6    7 ar  
    11    6   24 1   
    12    7   25 1   
    13    8    9 1   
    14    8   10 2   
    15    9   26 1   
    16    9   27 1   
    17    9   36 1   
    18   10   28 1   
    19   11   12 1   
    20   11   29 1   
    21   12   13 2   
    22   12   14 1   
    23   14   15 ar  
    24   14   21 ar  
    25   15   16 ar  
    26   15   30 1   
    27   16   17 1   
    28   16   18 ar  
    29   17   31 1   
    30   17   32 1   
    31   17   33 1   
    32   18   19 ar  
    33   18   34 1   
    34   19   20 1   
    35   19   21 ar  
    36   21   22 1   
    37   22   35 1   
@<TRIPOS>SUBSTRUCTURE
     1 136         1 TEMP              0 ****  ****    0 ROOT
