@<TRIPOS>MOLECULE
136
   35    30     1     0     0
SMALL
bcc


@<TRIPOS>ATOM
      1 C1         -2.0460    0.8550   -3.5110 c1        1 136     -0.136000
      2 C2         -2.4750    0.0450   -2.4700 c1        1 136     -0.021000
      3 CL2        -3.9840   -0.8160   -2.6020 cl        1 136     -0.009000
      4 C3         -1.7210   -0.0500   -1.3100 c1        1 136     -0.157000
      5 C4         -0.5390    0.6660   -1.1900 c1        1 136      0.100000
      6 C5         -0.1110    1.4760   -2.2300 c1        1 136     -0.186000
      7 C6         -0.8640    1.5700   -3.3910 c1        1 136     -0.069000
      8 C7         -2.8570    0.9420   -4.7860 c2        1 136      0.125000
      9 N1         -2.8730   -0.1500   -5.6920 n3        1 136     -0.326000
     10 N2         -3.5420    2.0230   -5.0520 n1        1 136     -0.300000
     11 N3          0.1910    0.6300    0.0290 n         1 136     -0.307000
     12 C8          0.5160   -0.6180    0.6260 c2        1 136      0.367000
     13 O8          0.1690   -1.6540    0.0960 o         1 136     -0.344000
     14 C9          1.3240   -0.6570    1.9080 c2        1 136     -0.155000
     15 C10         0.6800   -0.7800    3.1300 c2        1 136     -0.030000
     16 C11         1.4180   -0.7960    4.3030 c1        1 136     -0.109000
     17 C21         0.7210   -0.9870    5.6320 c2        1 136     -0.178000
     18 C12         2.7990   -0.6890    4.2550 c2        1 136     -0.042000
     19 C13         3.4430   -0.5660    3.0340 c1        1 136     -0.354000
     20 I13         5.5400   -0.3760    2.9630 i         1 136      0.158000
     21 C14         2.7050   -0.5500    1.8600 c2        1 136      0.140000
     22 O14         3.3620   -0.4890    0.6190 oh        1 136     -0.260000
     23 H3         -2.0230   -0.6200   -0.5780 ha        1 136      0.189000
     24 H5          0.7210    1.9790   -2.1460 ha        1 136      0.139000
     25 H6         -0.5630    2.1400   -4.1230 ha        1 136      0.149000
     26 HH11       -3.3510   -0.0920   -6.4690 hn        1 136      0.196000
     27 HH12       -2.3950   -0.9060   -5.5050 hn        1 136      0.196000
     28 HH21       -3.5320    2.7260   -4.4690 DU        1 136      0.150000
     29 HN3         0.4570    1.4080    0.4240 hn        1 136      0.246000
     30 H10        -0.2900   -0.8810    3.1620 ha        1 136      0.164000
     31 H211        0.2820   -0.1510    5.8930 ha        1 136      0.090000
     32 H212        0.0500   -1.6970    5.5490 ha        1 136      0.090000
     33 H213        1.3790   -1.2380    6.3140 ha        1 136      0.090000
     34 H12         3.3190   -0.7000    5.0820 ha        1 136      0.152000
     35 H14         4.0920   -0.9980    0.6440 ho        1 136      0.242000
@<TRIPOS>BOND
     1    1    7 1   
     2    1    8 1   
     3    2    3 1   
     4    2    4 1   
     5    4   23 1   
     6    5    6 1   
     7    5   11 1   
     8    6   24 1   
     9    7   25 1   
    10    8    9 1   
    11    8   10 1   
    12    9   26 1   
    13    9   27 1   
    14   11   12 1   
    15   11   29 1   
    16   12   13 1   
    17   12   14 1   
    18   14   15 1   
    19   14   21 1   
    20   15   16 1   
    21   15   30 1   
    22   16   18 1   
    23   17   31 1   
    24   17   32 1   
    25   17   33 1   
    26   18   19 1   
    27   18   34 1   
    28   19   21 1   
    29   21   22 1   
    30   22   35 1   
@<TRIPOS>SUBSTRUCTURE
     1 136         1 TEMP              0 ****  ****    0 ROOT
