@<TRIPOS>MOLECULE
136
   35    36     1     0     0
SMALL
bcc


@<TRIPOS>ATOM
      1 C1          0.4660    0.2320   -5.5830 ca        1 136     -0.152900
      2 C2         -0.5450   -0.1710   -4.7050 ca        1 136      0.052400
      3 CL2        -2.0730   -0.6430   -5.2930 cl        1 136     -0.089400
      4 C3         -0.3320   -0.2140   -3.3250 ca        1 136     -0.152000
      5 C4          0.9230    0.1550   -2.7990 ca        1 136      0.083600
      6 C5          1.9480    0.5540   -3.6930 ca        1 136     -0.186000
      7 C6          1.7140    0.5850   -5.0610 ca        1 136     -0.052000
      8 C7          0.2560    0.2780   -7.0650 ce        1 136      0.653800
      9 N1         -0.6920    1.2340   -7.4880 nh        1 136     -0.945800
     10 N2          1.0060   -0.4780   -7.8080 n2        1 136     -0.822100
     11 N3          1.2140    0.1210   -1.4250 n         1 136     -0.461100
     12 C8          0.3100    0.0090   -0.3790 c         1 136      0.690700
     13 O8         -0.9240   -0.0480   -0.5600 o         1 136     -0.607100
     14 C9          0.8930   -0.0200    0.9920 ca        1 136     -0.240600
     15 C10         2.0510   -0.7610    1.2500 ca        1 136     -0.055000
     16 C11         2.6090   -0.7950    2.5270 ca        1 136     -0.123300
     17 C21         3.8250   -1.5910    2.8060 c3        1 136     -0.050800
     18 C12         1.9960   -0.0700    3.5580 ca        1 136     -0.043000
     19 C13         0.8330    0.6590    3.3390 ca        1 136     -0.019100
     20 I13         0.0340    1.6520    4.9100 i         1 136     -0.107900
     21 C14         0.2600    0.6720    2.0470 ca        1 136      0.225100
     22 O14        -0.8840    1.4000    1.8930 oh        1 136     -0.488100
     23 H3         -1.1510   -0.5360   -2.6590 ha        1 136      0.188000
     24 H5          2.9410    0.8410   -3.3150 ha        1 136      0.138000
     25 H6          2.5220    0.8850   -5.7470 ha        1 136      0.157000
     26 HH11       -1.1170    1.0720   -8.3730 hn        1 136      0.398800
     27 HH12       -1.3270    1.5440   -6.7890 hn        1 136      0.398800
     28 HH21        0.8480   -0.4310   -8.7930 hn        1 136      0.385400
     29 HN3         2.1720    0.2570   -1.1850 hn        1 136      0.326500
     30 H10         2.5250   -1.3450    0.4440 ha        1 136      0.141000
     31 H211        3.5560   -2.5140    3.3810 hc        1 136      0.048367
     32 H212        4.3320   -1.9040    1.8600 hc        1 136      0.048367
     33 H213        4.5520   -0.9990    3.4170 hc        1 136      0.048367
     34 H12         2.4510   -0.0920    4.5630 ha        1 136      0.152000
     35 H14        -1.3040    1.1840    1.0410 ho        1 136      0.461000
@<TRIPOS>BOND
     1    1    2 ar  
     2    1    7 ar  
     3    1    8 1   
     4    2    3 1   
     5    2    4 ar  
     6    4    5 ar  
     7    4   23 1   
     8    5    6 ar  
     9    5   11 1   
    10    6    7 ar  
    11    6   24 1   
    12    7   25 1   
    13    8    9 1   
    14    8   10 2   
    15    9   26 1   
    16    9   27 1   
    17   10   28 1   
    18   11   12 1   
    19   11   29 1   
    20   12   13 2   
    21   12   14 1   
    22   14   15 ar  
    23   14   21 ar  
    24   15   16 ar  
    25   15   30 1   
    26   16   17 1   
    27   16   18 ar  
    28   17   31 1   
    29   17   32 1   
    30   17   33 1   
    31   18   19 ar  
    32   18   34 1   
    33   19   20 1   
    34   19   21 ar  
    35   21   22 1   
    36   22   35 1   
@<TRIPOS>SUBSTRUCTURE
     1 136         1 TEMP              0 ****  ****    0 ROOT
