@<TRIPOS>MOLECULE
136
   37    38     1     0     0
SMALL
bcc


@<TRIPOS>ATOM
      1 C1          0.1700   -0.1420    0.0370 ca        1 136     -0.211900
      2 C2          0.9880    0.9020    0.4990 ca        1 136      0.043400
      3 CL2         1.5100    2.1210   -0.5490 cl        1 136     -0.005400
      4 C3          1.3950    0.9410    1.8380 ca        1 136     -0.094000
      5 C4          0.9680   -0.0680    2.7200 ca        1 136      0.024600
      6 C5          0.1340   -1.1060    2.2630 ca        1 136     -0.079000
      7 C6         -0.2560   -1.1360    0.9250 ca        1 136     -0.059000
      8 C7         -0.1790   -0.2700   -1.4010 ce        1 136      0.566800
      9 N1         -1.1380    0.7840   -1.8750 n4        1 136     -0.820600
     10 N2          0.2070   -1.1230   -2.2680 n2        1 136     -0.662100
     11 N3          1.4020   -0.0450    4.1140 n4        1 136     -0.584200
     12 C8          2.3980   -1.2030    4.4640 c         1 136      0.619700
     13 O8          2.0390   -2.3010    4.0900 o         1 136     -0.386100
     14 C9          3.5690   -0.7430    5.1910 ca        1 136     -0.262600
     15 C10         3.4560    0.0980    6.3160 ca        1 136     -0.073000
     16 C11         4.5810    0.4370    7.0520 ca        1 136     -0.077300
     17 C21         4.4860    1.2970    8.2540 c3        1 136     -0.072800
     18 C12         5.8420   -0.0650    6.6590 ca        1 136      0.014000
     19 C13         5.9850   -0.8850    5.5490 ca        1 136     -0.070100
     20 I13         7.8300   -1.5550    5.0690 i         1 136     -0.039900
     21 C14         4.8380   -1.2320    4.8020 ca        1 136      0.251100
     22 O14         4.8480   -1.9960    3.6740 oh        1 136     -0.492100
     23 H3          2.0540    1.7640    2.1750 ha        1 136      0.191000
     24 H5         -0.1960   -1.9170    2.9400 ha        1 136      0.198000
     25 H6         -0.8970   -1.9650    0.5740 ha        1 136      0.187000
     26 HH11       -0.6970    1.7060   -1.7590 hn        1 136      0.480800
     27 HH12       -1.3830    0.6520   -2.8690 hn        1 136      0.480800
     28 HH21        0.8520   -1.8430   -2.0130 hn        1 136      0.501400
     29 HN3         1.8610    0.8500    4.3240 hn        1 136      0.466300
     30 H10         2.4680    0.4560    6.6450 ha        1 136      0.137000
     31 H211        5.1960    2.1590    8.1740 hc        1 136      0.072033
     32 H212        4.7560    0.7090    9.1690 hc        1 136      0.072033
     33 H213        3.4530    1.7010    8.3900 hc        1 136      0.072033
     34 H12         6.7260    0.2120    7.2660 ha        1 136      0.188000
     35 H14         5.7380   -2.3760    3.5420 ho        1 136      0.475000
     36 H13        -1.9920    0.7360   -1.3090 hn        1 136      0.480800
     37 H32         0.5750   -0.1410    4.7170 hn        1 136      0.466300
@<TRIPOS>BOND
     1    1    2 ar  
     2    1    7 ar  
     3    1    8 1   
     4    2    3 1   
     5    2    4 ar  
     6    4    5 ar  
     7    4   23 1   
     8    5    6 ar  
     9    5   11 1   
    10    6    7 ar  
    11    6   24 1   
    12    7   25 1   
    13    8    9 1   
    14    8   10 2   
    15    9   26 1   
    16    9   27 1   
    17    9   36 1   
    18   10   28 1   
    19   11   12 1   
    20   11   29 1   
    21   11   37 1   
    22   12   13 2   
    23   12   14 1   
    24   14   15 ar  
    25   14   21 ar  
    26   15   16 ar  
    27   15   30 1   
    28   16   17 1   
    29   16   18 ar  
    30   17   31 1   
    31   17   32 1   
    32   17   33 1   
    33   18   19 ar  
    34   18   34 1   
    35   19   20 1   
    36   19   21 ar  
    37   21   22 1   
    38   22   35 1   
@<TRIPOS>SUBSTRUCTURE
     1 136         1 TEMP              0 ****  ****    0 ROOT
