@<TRIPOS>MOLECULE
137
   39    39     1     0     0
SMALL
bcc


@<TRIPOS>ATOM
      1 P          -0.5940   -0.2070   -0.3580 p5        1 137      1.901000
      2 O1P         0.3870   -1.2430   -0.7510 o         1 137     -0.848000
      3 O2P        -1.0000    0.1080    1.0260 o         1 137     -0.848000
      4 O3P        -1.9100   -0.5740   -1.2580 oh        1 137     -0.818000
      5 O5'        -0.1760    1.2090   -1.0840 os        1 137     -0.766000
      6 C5'         0.2990    1.1550   -2.4020 c3        1 137      0.019000
      7 C4'        -0.5390    2.0880   -3.2880 c3        1 137     -0.041000
      8 O4'        -0.6850    3.3650   -2.6710 oh        1 137     -0.377000
      9 C3'         0.1460    2.2880   -4.6700 c3        1 137      0.180000
     10 O3'         0.2540    1.1860   -5.3870 o         1 137     -0.717000
     11 C2'        -0.7350    3.3450   -5.4790 c3        1 137     -0.066000
     12 O2'        -1.5980    2.6750   -6.3700 oh        1 137     -0.399000
     13 C1'         0.2470    4.2270   -6.2710 c3        1 137     -0.078000
     14 NH         -0.3460    5.1650   -7.2060 n3        1 137     -0.230000
     15 C1         -1.3090    5.8320   -9.3380 c2        1 137     -0.362000
     16 C2         -0.6600    4.8880   -8.4810 c2        1 137      0.200000
     17 C3         -0.2960    3.5440   -9.0560 c3        1 137     -0.160000
     18 C4         -0.6420    3.3520  -10.4790 c2        1 137     -0.145000
     19 C5         -1.2500    4.3020  -11.2130 c2        1 137     -0.160000
     20 C6         -1.6070    5.5820  -10.6610 c1        1 137     -0.164000
     21 O71        -1.2580    8.2690   -9.0720 o         1 137     -0.335000
     22 O72        -2.6180    7.1810   -7.7810 oh        1 137     -0.339000
     23 H5'1       -1.5640    1.6480   -3.4320 h1        1 137      0.063000
     24 H5'2        0.2600    0.1060   -2.7980 h1        1 137      0.072500
     25 H4'         1.3660    1.5140   -2.4070 h1        1 137      0.072500
     26 HO'4       -0.7980    3.1980   -1.7260 ho        1 137      0.208000
     27 H3'        -1.3740    3.9710   -4.8060 h1        1 137      0.093000
     28 HO'3        1.1370    2.8090   -4.4610 h1        1 137     -0.034000
     29 H2'        -1.6780   -1.0200   -2.0640 ho        1 137      0.223000
     30 HO'2       -3.0180    6.3070   -7.6830 ho        1 137      0.229000
     31 H1'1       -1.3340    1.7290   -6.3590 ho        1 137      0.241000
     32 H1'2        0.9530    3.5470   -6.8250 h1        1 137      0.104500
     33 HNH         0.8380    4.8380   -5.5310 h1        1 137      0.104500
     34 H3          0.8100    3.3660   -8.9250 hc        1 137      0.162000
     35 H4         -0.8230    2.7540   -8.4290 hc        1 137      0.162000
     36 H5         -0.3680    2.3660  -10.8870 ha        1 137      0.114000
     37 H6         -1.5010    4.1330  -12.2710 ha        1 137      0.117000
     38 HH2        -0.7020    6.0120   -6.8090 hn        1 137      0.235000
     39 C7         -1.6800    7.1460   -8.7920 c2        1 137      0.383000
@<TRIPOS>BOND
     1    1    2 1   
     2    1    3 1   
     3    1    4 1   
     4    1    5 1   
     5    4   29 1   
     6    5    6 1   
     7    6    7 1   
     8    6   24 1   
     9    6   25 1   
    10    7    8 1   
    11    7    9 1   
    12    7   23 1   
    13    8   26 1   
    14    9   10 1   
    15    9   11 1   
    16    9   28 1   
    17   11   12 1   
    18   11   13 1   
    19   11   27 1   
    20   12   31 1   
    21   13   14 1   
    22   13   32 1   
    23   13   33 1   
    24   14   16 1   
    25   14   38 1   
    26   15   16 1   
    27   15   20 1   
    28   15   39 1   
    29   16   17 1   
    30   17   18 1   
    31   17   34 1   
    32   17   35 1   
    33   18   19 1   
    34   18   36 1   
    35   19   20 1   
    36   19   37 1   
    37   21   39 1   
    38   22   30 1   
    39   22   39 1   
@<TRIPOS>SUBSTRUCTURE
     1 137         1 TEMP              0 ****  ****    0 ROOT
