@<TRIPOS>MOLECULE
137
   38    38     1     0     0
SMALL
bcc


@<TRIPOS>ATOM
      1 P          -5.9300    0.5430   -0.3600 p5        1 137      1.313900
      2 O1P        -6.1270    0.2950    1.1120 o         1 137     -0.932167
      3 O2P        -5.5050    1.9420   -0.7200 o         1 137     -0.932167
      4 O3P        -6.8940   -0.1310   -1.2960 o         1 137     -0.932167
      5 O5'        -4.4480   -0.3460   -0.6640 os        1 137     -0.566200
      6 C5'        -3.4530    0.1390    0.1510 c3        1 137      0.156400
      7 C4'        -2.1460   -0.6520   -0.0900 c3        1 137      0.099100
      8 O4'        -2.0500   -1.1340   -1.4190 oh        1 137     -0.652800
      9 C3'        -0.9020    0.2210    0.1670 c3        1 137      0.101100
     10 O3'        -0.9290    0.8300    1.4550 oh        1 137     -0.648800
     11 C2'         0.4010   -0.6050    0.1180 c3        1 137      0.138100
     12 O2'         0.5670   -1.3940    1.2800 oh        1 137     -0.598800
     13 C1'         1.5890    0.3630   -0.0670 c3        1 137      0.166800
     14 NH          2.8810   -0.2700   -0.1360 nh        1 137     -0.740600
     15 C1          5.3210   -0.0220    0.0120 ca        1 137     -0.190600
     16 C2          4.0180    0.5250   -0.2010 ca        1 137      0.213600
     17 C3          3.9310    1.8960   -0.5700 ca        1 137     -0.246000
     18 C4          5.0720    2.6680   -0.7540 ca        1 137     -0.113000
     19 C5          6.3350    2.1180   -0.5750 ca        1 137     -0.240000
     20 C6          6.4400    0.7790   -0.1940 ca        1 137     -0.080000
     21 O71         6.7040   -1.9590    0.2100 o         1 137     -0.846300
     22 O72         4.6970   -2.0500    1.1580 o         1 137     -0.846300
     23 H5'1       -3.7590    0.0360    1.2300 h1        1 137      0.018700
     24 H5'2       -3.2850    1.2320   -0.0740 h1        1 137      0.018700
     25 H4'        -2.1010   -1.5460    0.5930 h1        1 137      0.032700
     26 HO'4       -2.9290   -1.0220   -1.8230 ho        1 137      0.452000
     27 H3'        -0.8620    1.0340   -0.6110 h1        1 137      0.044700
     28 HO'3       -1.8500    1.0380    1.6560 ho        1 137      0.431000
     29 H2'         0.3390   -1.3440   -0.7280 h1        1 137      0.097700
     30 HO'2        0.4230   -0.8140    2.0390 ho        1 137      0.405000
     31 H1'1        1.4160    0.9190   -1.0340 h1        1 137      0.030700
     32 H1'2        1.5470    1.1170    0.7740 h1        1 137      0.030700
     33 HNH         2.9830   -1.1290    0.3790 hn        1 137      0.471800
     34 H3          2.9500    2.3700   -0.7170 ha        1 137      0.119000
     35 H4          4.9650    3.7230   -1.0420 ha        1 137      0.088000
     36 H5          7.2360    2.7240   -0.7280 ha        1 137      0.088000
     37 H6          7.4310    0.3180   -0.0490 ha        1 137      0.134000
     38 C7          5.5780   -1.4430    0.4830 c         1 137      0.913200
@<TRIPOS>BOND
     1    1    2 1   
     2    1    3 1   
     3    1    4 1   
     4    1    5 1   
     5    5    6 1   
     6    6    7 1   
     7    6   23 1   
     8    6   24 1   
     9    7    8 1   
    10    7    9 1   
    11    7   25 1   
    12    8   26 1   
    13    9   10 1   
    14    9   11 1   
    15    9   27 1   
    16   10   28 1   
    17   11   12 1   
    18   11   13 1   
    19   11   29 1   
    20   12   30 1   
    21   13   14 1   
    22   13   31 1   
    23   13   32 1   
    24   14   16 1   
    25   14   33 1   
    26   15   16 ar  
    27   15   20 ar  
    28   15   38 1   
    29   16   17 ar  
    30   17   18 ar  
    31   17   34 1   
    32   18   19 ar  
    33   18   35 1   
    34   19   20 ar  
    35   19   36 1   
    36   20   37 1   
    37   21   38 1   
    38   22   38 1   
@<TRIPOS>SUBSTRUCTURE
     1 137         1 TEMP              0 ****  ****    0 ROOT
