@<TRIPOS>MOLECULE
137
   38    34     1     0     0
SMALL
bcc


@<TRIPOS>ATOM
      1 P          -0.1720   -6.4180    2.1600 p4        1 137      1.685200
      2 O1P         1.2730   -6.8530    2.0900 o         1 137     -0.930000
      3 O2P        -0.4860   -5.9410    3.5560 os        1 137     -1.254000
      4 O3P        -1.0720   -7.5930    1.8110 o         1 137     -0.978800
      5 O5'        -0.4250   -5.2150    1.1130 os        1 137     -0.571200
      6 C5'         0.0480   -3.8890    1.4560 c3        1 137      0.199400
      7 C4'        -0.4510   -2.8970    0.4350 c3        1 137      0.084100
      8 O4'        -1.8640   -2.8230    0.5000 oh        1 137     -0.661800
      9 C3'         0.1400   -1.5320    0.7210 c3        1 137      0.144100
     10 O3'         1.5510   -1.5840    0.5730 oh        1 137     -0.609800
     11 C2'        -0.4310   -0.5250   -0.2490 c3        1 137      0.102100
     12 O2'        -0.0110   -0.8450   -1.5640 oh        1 137     -0.607800
     13 C1'         0.0590    0.8700    0.1150 c3        1 137      0.161800
     14 NH         -0.5280    1.8450   -0.7950 n3        1 137     -0.720800
     15 C1          0.2740    3.9000   -1.9160 cg        1 137     -0.141200
     16 C2         -0.1020    3.2420   -0.7430 c1        1 137      0.184800
     17 C3         -0.1330    3.9290    0.4550 c1        1 137     -0.181500
     18 C4          0.2090    5.2800    0.4930 c1        1 137     -0.117500
     19 C5          0.5820    5.9340   -0.6720 c1        1 137     -0.117500
     20 C6          0.6150    5.2450   -1.8760 c1        1 137     -0.021500
     21 C7          0.4890    3.1130   -3.1750 c         1 137      0.863800
     22 O71         1.6050    2.5840   -3.4000 o         1 137     -0.848800
     23 O72        -0.4640    2.9300   -3.9730 o         1 137     -0.848800
     24 H5'1        1.0290   -3.8840    1.4660 h1        1 137      0.006700
     25 H5'2       -0.2890   -3.6430    2.3410 h1        1 137      0.006700
     26 H4'        -0.1830   -3.1850   -0.4550 h1        1 137      0.038700
     27 HO'4       -2.2170   -3.4250   -0.0470 ho        1 137      0.453000
     28 H3'        -0.0810   -1.2670    1.6330 h1        1 137      0.062700
     29 HO'3        1.9290   -1.6460    1.3690 ho        1 137      0.412000
     30 H2'        -1.3990   -0.5480   -0.2050 h1        1 137      0.067700
     31 HO'2       -0.6110   -0.5670   -2.1380 ho        1 137      0.402000
     32 H1'1       -0.2070    1.0790    1.0330 h1        1 137      0.037700
     33 H1'2        1.0350    0.9030    0.0420 h1        1 137      0.037700
     34 HNH        -1.1530    1.5780   -1.4110 hn        1 137      0.455800
     35 H3         -0.3940    3.4710    1.2700 ha        1 137      0.062500
     36 H4          0.2230    5.7580    1.3500 ha        1 137      0.031000
     37 H5          0.8230    6.8820   -0.6440 ha        1 137      0.031000
     38 H6          0.7900    5.7330   -2.7170 ha        1 137      0.078500
@<TRIPOS>BOND
     1    1    2 1   
     2    1    4 2   
     3    1    5 1   
     4    5    6 1   
     5    6    7 1   
     6    6   24 1   
     7    6   25 1   
     8    7    8 1   
     9    7    9 1   
    10    7   26 1   
    11    8   27 1   
    12    9   10 1   
    13    9   11 1   
    14    9   28 1   
    15   10   29 1   
    16   11   12 1   
    17   11   13 1   
    18   11   30 1   
    19   12   31 1   
    20   13   14 1   
    21   13   32 1   
    22   13   33 1   
    23   14   16 1   
    24   14   34 1   
    25   15   20 3   
    26   15   21 1   
    27   16   17 3   
    28   17   35 1   
    29   18   19 3   
    30   18   36 1   
    31   19   37 1   
    32   20   38 1   
    33   21   22 1   
    34   21   23 1   
@<TRIPOS>SUBSTRUCTURE
     1 137         1 TEMP              0 ****  ****    0 ROOT
