@<TRIPOS>MOLECULE
137
   38    36     1     0     0
SMALL
bcc


@<TRIPOS>ATOM
      1 P           0.0630    1.2830    0.2140 p5        1 137      1.359900
      2 O1P         1.5540    1.3970    0.4150 o         1 137     -0.943833
      3 O2P        -0.7810    1.8100    1.3370 o         1 137     -0.943833
      4 O3P        -0.3990    0.0090   -0.4470 o         1 137     -0.943833
      5 O5'        -0.2250    2.4690   -1.0120 os        1 137     -0.566200
      6 C5'         0.2690    3.7200   -0.7360 c3        1 137      0.247600
      7 C4'        -0.8360    4.6980   -0.4160 c2        1 137     -0.087300
      8 O4'        -1.1660   -2.2100   -1.4200 oh        1 137     -0.896000
      9 C3'        -0.9220    5.9340   -0.8190 c1        1 137     -0.234800
     10 O3'         3.9950    0.9870    1.0140 oh        1 137     -0.896000
     11 C2'        -1.0650    7.1740   -1.2200 c2        1 137      0.023800
     12 O2'        -1.7600    7.5140   -2.3770 oh        1 137     -0.526100
     13 C1'        -0.6070    8.3740   -0.4360 c3        1 137      0.239000
     14 NH         -0.0670    9.4700   -1.2200 n7        1 137     -0.818200
     15 C1          0.3150   11.9470   -0.8680 ce        1 137     -0.123500
     16 C2          0.5140   10.5080   -0.3860 c3        1 137      0.249900
     17 C3          2.0410   10.3210   -0.2370 c2        1 137     -0.136200
     18 C4          2.8580   11.3250    0.1410 ce        1 137     -0.178000
     19 C5          2.2340   12.6140    0.4960 ce        1 137     -0.230100
     20 C6          1.0730   12.7580   -0.1280 c1        1 137     -0.066800
     21 O71        -0.1310   13.1320   -2.9000 o         1 137     -0.824800
     22 O72        -1.7510   11.8680   -2.0320 o         1 137     -0.824800
     23 H5'1       -1.6250    4.2660    0.2340 ha        1 137      0.159000
     24 H5'2        0.9640    3.6900    0.1560 h1        1 137      0.011700
     25 H4'         0.8450    4.1020   -1.6300 h1        1 137      0.011700
     26 HO'4       -0.2900   -1.8010   -1.4310 ho        1 137      0.438750
     27 H3'        -1.6750   -1.5290   -0.9590 ho        1 137      0.438750
     28 HO'3        3.4640    0.6100    0.3000 ho        1 137      0.438750
     29 H2'         3.3490    1.5730    1.4290 ho        1 137      0.438750
     30 HO'2       -1.8940    6.6970   -2.8760 ho        1 137      0.402000
     31 H1'1       -0.7510    9.8430   -1.8580 hn        1 137      0.423800
     32 H1'2        0.1990    8.0210    0.2720 h1        1 137      0.024700
     33 HNH        -1.4890    8.7060    0.1930 h1        1 137      0.024700
     34 H3          0.1170   10.4360    0.6810 h1        1 137      0.034700
     35 H4          2.4080    9.3030   -0.4250 ha        1 137      0.140000
     36 H5          3.9380   11.2020    0.2700 ha        1 137      0.103000
     37 H6          2.6630   13.2420    1.2770 ha        1 137      0.110000
     38 C7         -0.5780   12.3410   -2.0240 c         1 137      0.918800
@<TRIPOS>BOND
     1    1    2 1   
     2    1    3 1   
     3    1    4 1   
     4    1    5 1   
     5    5    6 1   
     6    6    7 1   
     7    6   24 1   
     8    6   25 1   
     9    7    9 2   
    10    7   23 1   
    11    8   26 1   
    12    8   27 1   
    13    9   11 2   
    14   10   28 1   
    15   10   29 1   
    16   11   12 1   
    17   11   13 1   
    18   12   30 1   
    19   13   14 1   
    20   13   32 1   
    21   13   33 1   
    22   14   16 1   
    23   14   31 1   
    24   15   16 1   
    25   15   20 2   
    26   15   38 1   
    27   16   17 1   
    28   16   34 1   
    29   17   18 2   
    30   17   35 1   
    31   18   19 1   
    32   18   36 1   
    33   19   20 2   
    34   19   37 1   
    35   21   38 1   
    36   22   38 1   
@<TRIPOS>SUBSTRUCTURE
     1 137         1 TEMP              0 ****  ****    0 ROOT
