@<TRIPOS>MOLECULE
13A
   33    35     1     0     0
SMALL
bcc


@<TRIPOS>ATOM
      1 O21         1.3380    0.6050   -0.2520 o         1 13A     -0.631800
      2 S16         2.3480   -0.2670    0.1680 s6        1 13A      1.606500
      3 O20         3.6520    0.1630   -0.1200 o         1 13A     -0.631800
      4 N17         2.2080   -0.5750    1.7730 n         1 13A     -0.709300
      5 C18         1.6820   -1.7100    2.4310 c         1 13A      0.676000
      6 O19         1.5930   -1.7130    3.6630 o         1 13A     -0.560500
      7 C13         1.3040   -2.8120    1.5460 cc        1 13A      0.175800
      8 N12         0.6910   -4.0150    1.9090 nc        1 13A     -0.569000
      9 C11         0.5640   -4.7150    0.7710 cd        1 13A      0.406400
     10 N15         2.1170   -1.7460   -0.5610 nh        1 13A     -0.741500
     11 C14         1.5440   -2.7910    0.1330 cd        1 13A      0.096000
     12 N10         1.0680   -4.0170   -0.3530 na        1 13A     -0.238900
     13 C5          1.0810   -4.4210   -1.7400 c3        1 13A      0.213800
     14 O1          0.5400   -5.7380   -1.8790 os        1 13A     -0.406600
     15 C4          2.5160   -4.4130   -2.3750 c3        1 13A      0.113100
     16 O7          2.6550   -3.3200   -3.2400 oh        1 13A     -0.585800
     17 C3          2.6550   -5.8020   -3.0310 c3        1 13A      0.092100
     18 O6          2.4870   -5.6280   -4.4250 oh        1 13A     -0.597800
     19 C2          1.5120   -6.6410   -2.4360 c3        1 13A      0.057100
     20 C8          1.9910   -7.5960   -1.3430 c3        1 13A      0.113400
     21 O9          0.9540   -8.4630   -0.9430 oh        1 13A     -0.582800
     22 H17         2.5230    0.1220    2.4190 hn        1 13A      0.357500
     23 H11         0.1180   -5.7110    0.6630 h5        1 13A      0.077100
     24 H15         2.3910   -1.9210   -1.5050 hn        1 13A      0.485800
     25 H5          0.3870   -3.7340   -2.3170 h2        1 13A      0.103700
     26 H4          3.3220   -4.2720   -1.6010 h1        1 13A      0.105700
     27 HO7         2.2110   -3.5210   -4.0770 ho        1 13A      0.441000
     28 H3          3.6570   -6.2540   -2.8060 h1        1 13A      0.074700
     29 HO6         2.7700   -6.4450   -4.8530 ho        1 13A      0.427000
     30 H2          0.9490   -7.2040   -3.2310 h1        1 13A      0.104700
     31 H81         2.3770   -7.0130   -0.4640 h1        1 13A      0.058200
     32 H82         2.7960   -8.2700   -1.7400 h1        1 13A      0.058200
     33 HO9         0.2240   -7.9120   -0.6310 ho        1 13A      0.411000
@<TRIPOS>BOND
     1    1    2 2   
     2    2    3 2   
     3    2    4 1   
     4    2   10 1   
     5    4    5 1   
     6    4   22 1   
     7    5    6 2   
     8    5    7 1   
     9    7    8 1   
    10    7   11 2   
    11    8    9 2   
    12    9   12 1   
    13    9   23 1   
    14   10   11 1   
    15   10   24 1   
    16   11   12 1   
    17   12   13 1   
    18   13   14 1   
    19   13   15 1   
    20   13   25 1   
    21   14   19 1   
    22   15   16 1   
    23   15   17 1   
    24   15   26 1   
    25   16   27 1   
    26   17   18 1   
    27   17   19 1   
    28   17   28 1   
    29   18   29 1   
    30   19   20 1   
    31   19   30 1   
    32   20   21 1   
    33   20   31 1   
    34   20   32 1   
    35   21   33 1   
@<TRIPOS>SUBSTRUCTURE
     1 13A         1 TEMP              0 ****  ****    0 ROOT
