@<TRIPOS>MOLECULE
13A
   33    35     1     0     0
SMALL
bcc


@<TRIPOS>ATOM
      1 O21         1.3090    0.5950   -0.2020 o         1 13A     -0.631800
      2 S16         2.3270   -0.2750    0.2040 s6        1 13A      1.606500
      3 O20         3.6270    0.1680   -0.0860 o         1 13A     -0.631800
      4 N17         2.1970   -0.5990    1.8060 ns        1 13A     -0.709300
      5 C18         1.6820   -1.7440    2.4550 c         1 13A      0.676000
      6 O19         1.5990   -1.7600    3.6880 o         1 13A     -0.560500
      7 C13         1.3070   -2.8390    1.5620 cc        1 13A      0.175800
      8 N12         0.7030   -4.0500    1.9150 nc        1 13A     -0.569000
      9 C11         0.5750   -4.7400    0.7710 cd        1 13A      0.406400
     10 N15         2.1030   -1.7480   -0.5380 nu        1 13A     -0.741500
     11 C14         1.5400   -2.8040    0.1480 cd        1 13A      0.096000
     12 N10         1.0700   -4.0280   -0.3490 na        1 13A     -0.238900
     13 C5          1.0790   -4.4170   -1.7400 c3        1 13A      0.213800
     14 O1          0.5460   -5.7360   -1.8890 os        1 13A     -0.406600
     15 C4          2.5110   -4.3940   -2.3800 c3        1 13A      0.114100
     16 O7          2.6400   -3.2920   -3.2360 oh        1 13A     -0.585800
     17 C3          2.6560   -5.7760   -3.0500 c3        1 13A      0.092100
     18 O6          2.4810   -5.5890   -4.4420 oh        1 13A     -0.597800
     19 C2          1.5200   -6.6270   -2.4590 c3        1 13A      0.057100
     20 C8          2.0110   -7.5900   -1.3770 c3        1 13A      0.113400
     21 O9          0.9810   -8.4690   -0.9810 oh        1 13A     -0.582800
     22 H17         2.5110    0.0920    2.4580 hn        1 13A      0.357500
     23 H11         0.1350   -5.7370    0.6550 h5        1 13A      0.077100
     24 H15         2.3740   -1.9110   -1.4850 hn        1 13A      0.485800
     25 H5          0.3790   -3.7300   -2.3060 h2        1 13A      0.103700
     26 H4          3.3190   -4.2550   -1.6080 h1        1 13A      0.105700
     27 HO7         2.1930   -3.4870   -4.0730 ho        1 13A      0.441000
     28 H3          3.6620   -6.2230   -2.8340 h1        1 13A      0.074700
     29 HO6         2.7670   -6.4010   -4.8790 ho        1 13A      0.427000
     30 H2          0.9580   -7.1870   -3.2570 h1        1 13A      0.103700
     31 H81         2.3960   -7.0140   -0.4930 h1        1 13A      0.058200
     32 H82         2.8180   -8.2550   -1.7840 h1        1 13A      0.058200
     33 HO9         0.2490   -7.9250   -0.6610 ho        1 13A      0.411000
@<TRIPOS>BOND
     1    1    2 2   
     2    2    3 2   
     3    2    4 1   
     4    2   10 1   
     5    4    5 1   
     6    4   22 1   
     7    5    6 2   
     8    5    7 1   
     9    7    8 1   
    10    7   11 2   
    11    8    9 2   
    12    9   12 1   
    13    9   23 1   
    14   10   11 1   
    15   10   24 1   
    16   11   12 1   
    17   12   13 1   
    18   13   14 1   
    19   13   15 1   
    20   13   25 1   
    21   14   19 1   
    22   15   16 1   
    23   15   17 1   
    24   15   26 1   
    25   16   27 1   
    26   17   18 1   
    27   17   19 1   
    28   17   28 1   
    29   18   29 1   
    30   19   20 1   
    31   19   30 1   
    32   20   21 1   
    33   20   31 1   
    34   20   32 1   
    35   21   33 1   
@<TRIPOS>SUBSTRUCTURE
     1 13A         1 TEMP              0 ****  ****    0 ROOT
