@<TRIPOS>MOLECULE
13A
   33    31     1     0     0
SMALL
bcc


@<TRIPOS>ATOM
      1 O21        -4.3940   -1.5140    2.1030 o         1 13A     -0.916500
      2 S16        -2.9850   -1.7290    2.0250 ss        1 13A      2.832000
      3 O20        -2.7330   -3.0240    1.4560 o         1 13A     -0.916500
      4 N17        -2.3970   -1.6890    3.4440 n2        1 13A     -0.889000
      5 C18        -1.1090   -1.7320    3.5670 c2        1 13A      0.423000
      6 O19        -0.6090   -2.1350    4.5870 o         1 13A     -0.284000
      7 C13        -0.2300   -0.9240    2.4960 c2        1 13A     -0.254000
      8 N12         1.0470   -0.5670    2.4290 n2        1 13A     -0.037000
      9 C11         1.2200    0.2390    1.2740 c1        1 13A     -0.100000
     10 N15        -2.3820   -0.6770    1.1270 n2        1 13A     -0.789000
     11 C14        -0.9270   -0.3280    1.3370 c2        1 13A      0.120000
     12 N10        -0.0330    0.3590    0.6290 n2        1 13A     -0.194000
     13 C5         -0.3320    1.2270   -0.5020 c2        1 13A      0.116000
     14 O1         -0.6640    0.5170   -1.5410 os        1 13A     -0.272000
     15 C4          0.9200    1.9980   -0.9300 c3        1 13A      0.015000
     16 O7          0.6220    3.2950   -1.1250 oh        1 13A     -0.299000
     17 C3          1.3790    1.3410   -2.2740 c3        1 13A     -0.019000
     18 O6          1.0750    2.2360   -3.4130 oh        1 13A     -0.327000
     19 C2          0.6970    0.2620   -2.3640 c3        1 13A     -0.013000
     20 C8          1.4740   -0.8980   -1.7520 c3        1 13A     -0.041000
     21 O9          2.2210   -1.5810   -2.7870 oh        1 13A     -0.337000
     22 H17        -2.9260   -1.8630    4.1590 hn        1 13A      0.272000
     23 H11         2.0340    0.6380    0.9890 DU        1 13A      0.218000
     24 H15        -2.9230   -0.1080    0.6690 hn        1 13A      0.280000
     25 H5         -1.0600    1.8550   -0.2700 h4        1 13A      0.149000
     26 H4          1.6230    1.9080   -0.2500 h1        1 13A      0.143000
     27 HO7         1.2360    3.8010   -0.7330 ho        1 13A      0.233000
     28 H3          2.3350    1.1390   -2.2450 h1        1 13A      0.127000
     29 HO6         1.7860    2.2740   -3.9610 ho        1 13A      0.230000
     30 H2          0.4930    0.0720   -3.2960 h1        1 13A      0.142000
     31 H81         2.1030   -0.5480   -1.0660 h1        1 13A      0.084500
     32 H82         0.8490   -1.5240   -1.3330 h1        1 13A      0.084500
     33 HO9         2.5910   -2.3200   -2.4490 ho        1 13A      0.221000
@<TRIPOS>BOND
     1    1    2 1   
     2    2    3 1   
     3    4    5 1   
     4    4   22 1   
     5    5    6 1   
     6    5    7 1   
     7    7    8 1   
     8    7   11 1   
     9    8    9 1   
    10    9   12 1   
    11   10   11 1   
    12   10   24 1   
    13   11   12 1   
    14   13   14 1   
    15   13   15 1   
    16   13   25 1   
    17   14   19 1   
    18   15   16 1   
    19   15   17 1   
    20   15   26 1   
    21   16   27 1   
    22   17   18 1   
    23   17   19 1   
    24   17   28 1   
    25   18   29 1   
    26   19   20 1   
    27   19   30 1   
    28   20   21 1   
    29   20   31 1   
    30   20   32 1   
    31   21   33 1   
@<TRIPOS>SUBSTRUCTURE
     1 13A         1 TEMP              0 ****  ****    0 ROOT
