@<TRIPOS>MOLECULE
13A
   33    35     1     0     0
SMALL
bcc


@<TRIPOS>ATOM
      1 O21        -3.5280    1.5120   -0.7860 o         1 13A     -0.631800
      2 S16        -2.9740    0.9980    0.3920 s6        1 13A      1.606500
      3 O20        -3.2290    1.7630    1.5410 o         1 13A     -0.631800
      4 N17        -3.4730   -0.5450    0.6330 n         1 13A     -0.709300
      5 C18        -2.7860   -1.7600    0.4050 c         1 13A      0.676000
      6 O19        -3.3730   -2.8330    0.5780 o         1 13A     -0.560500
      7 C13        -1.3910   -1.6090   -0.0070 cc        1 13A      0.175800
      8 N12        -0.5030   -2.6250   -0.3720 nc        1 13A     -0.569000
      9 C11         0.6590   -2.0100   -0.6460 cd        1 13A      0.406400
     10 N15        -1.3250    0.8790    0.2020 nh        1 13A     -0.741500
     11 C14        -0.7340   -0.3370   -0.0750 cd        1 13A      0.096000
     12 N10         0.5800   -0.6060   -0.4820 na        1 13A     -0.238900
     13 C5          1.5990    0.3930   -0.7100 c3        1 13A      0.213800
     14 O1          2.8270   -0.2320   -1.0950 os        1 13A     -0.406600
     15 C4          1.8800    1.2890    0.5460 c3        1 13A      0.113100
     16 O7          1.3350    2.5660    0.3610 oh        1 13A     -0.585800
     17 C3          3.4130    1.2390    0.7210 c3        1 13A      0.092100
     18 O6          3.9300    2.4660    0.2420 oh        1 13A     -0.597800
     19 C2          3.8760    0.0640   -0.1570 c3        1 13A      0.057100
     20 C8          4.1840   -1.1910    0.6590 c3        1 13A      0.113400
     21 O9          4.7650   -2.1880   -0.1510 oh        1 13A     -0.582800
     22 H17        -4.3970   -0.6970    0.9850 hn        1 13A      0.357500
     23 H11         1.5890   -2.4880   -0.9750 h5        1 13A      0.077100
     24 H15        -0.7220    1.6690    0.2920 hn        1 13A      0.485800
     25 H5          1.2810    1.0310   -1.5910 h2        1 13A      0.103700
     26 H4          1.3760    0.8920    1.4720 h1        1 13A      0.105700
     27 HO7         1.9170    3.0770   -0.2210 ho        1 13A      0.441000
     28 H3          3.6900    1.0850    1.7960 h1        1 13A      0.074700
     29 HO6         4.8490    2.5230    0.5300 ho        1 13A      0.427000
     30 H2          4.7580    0.3430   -0.7970 h1        1 13A      0.104700
     31 H81         3.2470   -1.5770    1.1440 h1        1 13A      0.058200
     32 H82         4.9570   -0.9680    1.4420 h1        1 13A      0.058200
     33 HO9         4.1400   -2.3780   -0.8630 ho        1 13A      0.411000
@<TRIPOS>BOND
     1    1    2 2   
     2    2    3 2   
     3    2    4 1   
     4    2   10 1   
     5    4    5 1   
     6    4   22 1   
     7    5    6 2   
     8    5    7 1   
     9    7    8 1   
    10    7   11 2   
    11    8    9 2   
    12    9   12 1   
    13    9   23 1   
    14   10   11 1   
    15   10   24 1   
    16   11   12 1   
    17   12   13 1   
    18   13   14 1   
    19   13   15 1   
    20   13   25 1   
    21   14   19 1   
    22   15   16 1   
    23   15   17 1   
    24   15   26 1   
    25   16   27 1   
    26   17   18 1   
    27   17   19 1   
    28   17   28 1   
    29   18   29 1   
    30   19   20 1   
    31   19   30 1   
    32   20   21 1   
    33   20   31 1   
    34   20   32 1   
    35   21   33 1   
@<TRIPOS>SUBSTRUCTURE
     1 13A         1 TEMP              0 ****  ****    0 ROOT
