@<TRIPOS>MOLECULE
13A
   33    35     1     0     0
SMALL
bcc


@<TRIPOS>ATOM
      1 O21         1.3100    0.5980   -0.2010 o         1 13A     -0.631300
      2 S16         2.3460   -0.2670    0.1650 s6        1 13A      1.606500
      3 O20         3.6320    0.1810   -0.1750 o         1 13A     -0.631300
      4 N17         2.2780   -0.5980    1.7680 n         1 13A     -0.709300
      5 C18         1.8070   -1.7540    2.4330 c         1 13A      0.676000
      6 O19         1.7710   -1.7730    3.6680 o         1 13A     -0.558500
      7 C13         1.4160   -2.8530    1.5520 cc        1 13A      0.179800
      8 N12         0.8510   -4.0770    1.9240 nc        1 13A     -0.569000
      9 C11         0.6870   -4.7640    0.7820 cd        1 13A      0.408400
     10 N15         2.1020   -1.7390   -0.5770 nh        1 13A     -0.740500
     11 C14         1.5860   -2.8060    0.1300 cd        1 13A      0.090000
     12 N10         1.1170   -4.0360   -0.3530 na        1 13A     -0.239900
     13 C5          1.0870   -4.4070   -1.7490 c3        1 13A      0.216800
     14 O1          0.5120   -5.7030   -1.9180 os        1 13A     -0.407600
     15 C4          2.5040   -4.4150   -2.4160 c3        1 13A      0.068100
     16 O7          2.5640   -3.4490   -3.4330 oh        1 13A     -0.588800
     17 C3          2.6940   -5.8580   -2.9310 c3        1 13A      0.092100
     18 O6          2.6620   -5.8800   -4.3460 oh        1 13A     -0.586800
     19 C2          1.4750   -6.6440   -2.4260 c3        1 13A      0.088100
     20 C8          1.8390   -7.6290   -1.3160 c3        1 13A      0.114400
     21 O9          0.7280   -8.4210   -0.9590 oh        1 13A     -0.581800
     22 H17         2.6020    0.0980    2.4100 hn        1 13A      0.357500
     23 H11         0.2630   -5.7700    0.6800 h5        1 13A      0.078100
     24 H15         2.3260   -1.8960   -1.5360 hn        1 13A      0.479800
     25 H5          0.3940   -3.6900   -2.2900 h2        1 13A      0.104700
     26 H4          3.3240   -4.1300   -1.7010 h1        1 13A      0.108700
     27 HO7         2.0040   -3.7470   -4.1680 ho        1 13A      0.431000
     28 H3          3.6530   -6.2980   -2.5500 h1        1 13A      0.073700
     29 HO6         3.5060   -5.5210   -4.6520 ho        1 13A      0.423000
     30 H2          0.9450   -7.1720   -3.2680 h1        1 13A      0.119700
     31 H81         2.2260   -7.0750   -0.4190 h1        1 13A      0.059200
     32 H82         2.6100   -8.3580   -1.6820 h1        1 13A      0.059200
     33 HO9         0.0140   -7.8190   -0.7110 ho        1 13A      0.410000
@<TRIPOS>BOND
     1    1    2 2   
     2    2    3 2   
     3    2    4 1   
     4    2   10 1   
     5    4    5 1   
     6    4   22 1   
     7    5    6 2   
     8    5    7 1   
     9    7    8 1   
    10    7   11 2   
    11    8    9 2   
    12    9   12 1   
    13    9   23 1   
    14   10   11 1   
    15   10   24 1   
    16   11   12 1   
    17   12   13 1   
    18   13   14 1   
    19   13   15 1   
    20   13   25 1   
    21   14   19 1   
    22   15   16 1   
    23   15   17 1   
    24   15   26 1   
    25   16   27 1   
    26   17   18 1   
    27   17   19 1   
    28   17   28 1   
    29   18   29 1   
    30   19   20 1   
    31   19   30 1   
    32   20   21 1   
    33   20   31 1   
    34   20   32 1   
    35   21   33 1   
@<TRIPOS>SUBSTRUCTURE
     1 13A         1 TEMP              0 ****  ****    0 ROOT
