@<TRIPOS>MOLECULE
13C
   43    40     1     0     0
SMALL
bcc


@<TRIPOS>ATOM
      1 C1          0.1120    0.9550   -0.8540 c1        1 13C      0.371000
      2 C2          1.6710    0.9550   -0.8540 c1        1 13C     -0.179000
      3 C3          2.3640    1.1010   -2.0550 c2        1 13C      0.143000
      4 C4          3.7470    1.2460   -2.0470 c1        1 13C     -0.248000
      5 C5          4.4370    1.2470   -0.8480 c1        1 13C      0.147000
      6 C6          3.7450    1.1010    0.3550 c1        1 13C     -0.175000
      7 C7          2.3610    0.9550    0.3490 c1        1 13C      0.062000
      8 C8          1.6040    0.6470    1.6790 c3        1 13C     -0.194000
      9 C9          0.1480    1.1030    1.5580 c2        1 13C      0.248000
     10 C10        -0.6970    0.4690    2.7150 c3        1 13C     -0.222000
     11 C11        -0.8410   -1.0390    2.4750 c3        1 13C     -0.149000
     12 C12        -2.3390   -1.3820    2.2500 c3        1 13C     -0.153000
     13 C13        -2.7310   -1.0450    0.8030 c3        1 13C     -0.150000
     14 C14        -2.8520   -2.3300    0.0000 c2        1 13C     -0.154000
     15 C15        -2.8210   -2.2800   -1.5670 c1        1 13C     -0.178000
     16 C16        -2.7600   -0.9120   -2.3000 c2        1 13C     -0.149000
     17 C17        -2.0300    0.1100   -1.4210 c3        1 13C     -0.024000
     18 O2         -0.4900    1.9380   -0.4910 o         1 13C     -0.378000
     19 O3          1.6660    1.1350   -3.2670 oh        1 13C     -0.243000
     20 O4          5.8430    1.4160   -0.8400 oh        1 13C     -0.241000
     21 CL1         4.6080    1.1530    1.8670 cl        1 13C      0.005000
     22 N1         -0.6180   -0.1820   -1.4100 n3        1 13C     -0.363000
     23 O5         -0.1050    2.2120    1.1660 o         1 13C     -0.283000
     24 H1         -0.2500   -0.6770   -2.0820 hn        1 13C      0.231000
     25 H4          4.2320    1.3480   -2.8880 ha        1 13C      0.162000
     26 H3          2.0510    1.7180   -3.8140 ho        1 13C      0.230000
     27 HA          6.2370    0.6260   -0.9350 ho        1 13C      0.237000
     28 H81C        1.6310   -0.3130    1.8540 hc        1 13C      0.124500
     29 H82C        2.0340    1.1230    2.4150 hc        1 13C      0.124500
     30 H101       -0.2480    0.6210    3.5680 hc        1 13C      0.126500
     31 H102       -1.5820    0.8810    2.7360 hc        1 13C      0.126500
     32 H111       -0.5080   -1.5260    3.2520 hc        1 13C      0.080500
     33 H112       -0.3260   -1.2930    1.6850 hc        1 13C      0.080500
     34 H121       -2.4820   -2.3330    2.4120 hc        1 13C      0.082500
     35 H122       -2.8880   -0.8600    2.8650 hc        1 13C      0.082500
     36 H131       -3.5880   -0.5770    0.7990 hc        1 13C      0.103500
     37 H132       -2.0470   -0.4750    0.4050 hc        1 13C      0.103500
     38 H14        -2.8900   -3.1900    0.4600 ha        1 13C      0.119000
     39 H15        -2.8990   -3.1060   -2.0830 ha        1 13C      0.116000
     40 H161       -3.6660   -0.5980   -2.4780 ha        1 13C      0.088500
     41 H162       -2.2800   -1.0160   -3.1430 ha        1 13C      0.088500
     42 H171       -2.3790    0.0640   -0.5110 h1        1 13C      0.099500
     43 H172       -2.1730    1.0070   -1.7790 h1        1 13C      0.099500
@<TRIPOS>BOND
     1    1   18 1   
     2    1   22 1   
     3    2    3 1   
     4    2    7 1   
     5    3    4 1   
     6    3   19 1   
     7    4   25 1   
     8    5    6 1   
     9    5   20 1   
    10    6   21 1   
    11    7    8 1   
    12    8    9 1   
    13    8   28 1   
    14    8   29 1   
    15    9   10 1   
    16    9   23 1   
    17   10   11 1   
    18   10   30 1   
    19   10   31 1   
    20   11   12 1   
    21   11   32 1   
    22   11   33 1   
    23   12   13 1   
    24   12   34 1   
    25   12   35 1   
    26   13   14 1   
    27   13   36 1   
    28   13   37 1   
    29   14   15 1   
    30   14   38 1   
    31   15   39 1   
    32   16   17 1   
    33   16   40 1   
    34   16   41 1   
    35   17   22 1   
    36   17   42 1   
    37   17   43 1   
    38   19   26 1   
    39   20   27 1   
    40   22   24 1   
@<TRIPOS>SUBSTRUCTURE
     1 13C         1 TEMP              0 ****  ****    0 ROOT
