@<TRIPOS>MOLECULE
13C
   44    45     1     0     0
SMALL
bcc


@<TRIPOS>ATOM
      1 C1          0.1470   -1.0570   -0.2030 c         1 13C      0.601700
      2 C2          1.4800   -0.4680   -0.0940 ca        1 13C     -0.280600
      3 C3          2.2280   -0.2020   -1.2640 ca        1 13C      0.212100
      4 C4          3.5550    0.2120   -1.2000 ca        1 13C     -0.242000
      5 C5          4.1490    0.3880    0.0620 ca        1 13C      0.253100
      6 C6          3.3990    0.1740    1.2460 ca        1 13C     -0.103600
      7 C7          2.0720   -0.2610    1.1740 ca        1 13C      0.095700
      8 C8          1.2690   -0.4500    2.4150 c3        1 13C     -0.176100
      9 C9          1.4460   -1.7850    3.1030 c         1 13C      0.575100
     10 C10         0.4560   -2.0450    4.2080 c3        1 13C     -0.178400
     11 C11        -0.8380   -2.6260    3.6640 c3        1 13C     -0.081400
     12 C12        -1.9480   -1.5980    3.5380 c3        1 13C     -0.075400
     13 C13        -2.9060   -1.9820    2.4250 c3        1 13C     -0.069200
     14 C14        -3.8970   -0.9220    2.1180 c2        1 13C     -0.110200
     15 C15        -3.7070    0.1230    1.3050 c2        1 13C     -0.213200
     16 C16        -2.4240    0.4770    0.6510 c3        1 13C     -0.056200
     17 C17        -2.2260   -0.3250   -0.6340 c3        1 13C      0.104800
     18 O2         -0.2980   -2.0720    0.3100 o         1 13C     -0.415100
     19 O3          1.5790   -0.3690   -2.4650 oh        1 13C     -0.548100
     20 O4          5.4470    0.7830    0.0410 oh        1 13C     -0.453100
     21 CL1         4.1440    0.4450    2.7470 cl        1 13C     -0.029400
     22 N1         -0.8130   -0.3010   -1.1170 n4        1 13C     -0.674800
     23 O5          2.3230   -2.5870    2.7880 o         1 13C     -0.490100
     24 H1         -0.7570   -0.7320   -2.0490 hn        1 13C      0.462300
     25 H4          4.1510    0.3950   -2.1080 ha        1 13C      0.187000
     26 H3          2.2290   -0.3150   -3.1860 ho        1 13C      0.472000
     27 HA          5.7900    0.8420    0.9520 ho        1 13C      0.461000
     28 H81C        0.1740   -0.3330    2.1870 hc        1 13C      0.088700
     29 H82C        1.5350    0.3510    3.1630 hc        1 13C      0.088700
     30 H101        0.2600   -1.0970    4.7730 hc        1 13C      0.080200
     31 H102        0.9190   -2.7770    4.9250 hc        1 13C      0.080200
     32 H111       -0.6390   -3.1030    2.6660 hc        1 13C      0.063200
     33 H112       -1.1820   -3.4470    4.3490 hc        1 13C      0.063200
     34 H121       -2.5070   -1.5220    4.5080 hc        1 13C      0.045700
     35 H122       -1.5230   -0.5810    3.3340 hc        1 13C      0.045700
     36 H131       -2.3140   -2.2270    1.4990 hc        1 13C      0.056200
     37 H132       -3.4480   -2.9230    2.7190 hc        1 13C      0.056200
     38 H14        -4.8820   -1.0520    2.6050 ha        1 13C      0.147000
     39 H15        -4.5320    0.8320    1.1160 ha        1 13C      0.146000
     40 H161       -2.4110    1.5760    0.4150 hc        1 13C      0.061700
     41 H162       -1.5780    0.2750    1.3650 hc        1 13C      0.061700
     42 H171       -2.5100   -1.4050   -0.4630 hx        1 13C      0.113200
     43 H172       -2.8760    0.0940   -1.4540 hx        1 13C      0.113200
     44 H12        -0.4840    0.6670   -1.1990 hn        1 13C      0.462300
@<TRIPOS>BOND
     1    1    2 1   
     2    1   18 2   
     3    1   22 1   
     4    2    3 ar  
     5    2    7 ar  
     6    3    4 ar  
     7    3   19 1   
     8    4    5 ar  
     9    4   25 1   
    10    5    6 ar  
    11    5   20 1   
    12    6    7 ar  
    13    6   21 1   
    14    7    8 1   
    15    8    9 1   
    16    8   28 1   
    17    8   29 1   
    18    9   10 1   
    19    9   23 2   
    20   10   11 1   
    21   10   30 1   
    22   10   31 1   
    23   11   12 1   
    24   11   32 1   
    25   11   33 1   
    26   12   13 1   
    27   12   34 1   
    28   12   35 1   
    29   13   14 1   
    30   13   36 1   
    31   13   37 1   
    32   14   15 2   
    33   14   38 1   
    34   15   16 1   
    35   15   39 1   
    36   16   17 1   
    37   16   40 1   
    38   16   41 1   
    39   17   22 1   
    40   17   42 1   
    41   17   43 1   
    42   19   26 1   
    43   20   27 1   
    44   22   24 1   
    45   22   44 1   
@<TRIPOS>SUBSTRUCTURE
     1 13C         1 TEMP              0 ****  ****    0 ROOT
