@<TRIPOS>MOLECULE
13C
   44    45     1     0     0
SMALL
bcc


@<TRIPOS>ATOM
      1 C1          0.1550   -1.0700   -0.1990 c         1 13C      0.601700
      2 C2          1.4880   -0.4790   -0.0880 ca        1 13C     -0.280600
      3 C3          2.2420   -0.2240   -1.2560 ca        1 13C      0.212100
      4 C4          3.5690    0.1900   -1.1880 ca        1 13C     -0.242000
      5 C5          4.1560    0.3750    0.0760 ca        1 13C      0.253100
      6 C6          3.3990    0.1720    1.2580 ca        1 13C     -0.103600
      7 C7          2.0720   -0.2630    1.1820 ca        1 13C      0.095700
      8 C8          1.2630   -0.4410    2.4200 c3        1 13C     -0.176100
      9 C9          1.4350   -1.7710    3.1200 c         1 13C      0.575100
     10 C10         0.4390   -2.0210    4.2210 c3        1 13C     -0.178400
     11 C11        -0.8530   -2.6060    3.6750 c3        1 13C     -0.081400
     12 C12        -1.9610   -1.5780    3.5350 c3        1 13C     -0.075400
     13 C13        -2.9140   -1.9710    2.4190 c3        1 13C     -0.069200
     14 C14        -3.9020   -0.9130    2.0980 c2        1 13C     -0.110200
     15 C15        -3.7070    0.1260    1.2780 c2        1 13C     -0.213200
     16 C16        -2.4200    0.4740    0.6280 c3        1 13C     -0.056200
     17 C17        -2.2150   -0.3390   -0.6500 c3        1 13C      0.104800
     18 O2         -0.2940   -2.0800    0.3190 o         1 13C     -0.415100
     19 O3          1.5990   -0.4010   -2.4590 oh        1 13C     -0.548100
     20 O4          5.4550    0.7700    0.0590 oh        1 13C     -0.453100
     21 Cl1         4.1360    0.4550    2.7600 cl        1 13C     -0.029400
     22 N1         -0.8000   -0.3200   -1.1250 ny        1 13C     -0.674800
     23 O5          2.3140   -2.5760    2.8160 o         1 13C     -0.490100
     24 H1         -0.7390   -0.7590   -2.0530 hn        1 13C      0.462300
     25 H4          4.1700    0.3650   -2.0940 ha        1 13C      0.187000
     26 H3          2.2530   -0.3520   -3.1770 ho        1 13C      0.472000
     27 HA          5.7920    0.8360    0.9720 ho        1 13C      0.461000
     28 H81C        0.1700   -0.3250    2.1850 hc        1 13C      0.088700
     29 H82C        1.5250    0.3650    3.1630 hc        1 13C      0.088700
     30 H101        0.2400   -1.0690    4.7770 hc        1 13C      0.080200
     31 H102        0.8970   -2.7480    4.9460 hc        1 13C      0.080200
     32 H111       -0.6480   -3.0910    2.6820 hc        1 13C      0.063200
     33 H112       -1.2010   -3.4210    4.3640 hc        1 13C      0.063200
     34 H121       -2.5250   -1.4940    4.5010 hc        1 13C      0.045700
     35 H122       -1.5340   -0.5630    3.3250 hc        1 13C      0.045700
     36 H131       -2.3170   -2.2230    1.4990 hc        1 13C      0.056200
     37 H132       -3.4570   -2.9080    2.7190 hc        1 13C      0.056200
     38 H14        -4.8890   -1.0380    2.5810 ha        1 13C      0.147000
     39 H15        -4.5300    0.8330    1.0780 ha        1 13C      0.146000
     40 H161       -2.4050    1.5700    0.3830 hc        1 13C      0.061700
     41 H162       -1.5780    0.2770    1.3480 hc        1 13C      0.061700
     42 H171       -2.5010   -1.4180   -0.4710 hx        1 13C      0.113200
     43 H172       -2.8600    0.0740   -1.4770 hx        1 13C      0.113200
     44 H12        -0.4700    0.6470   -1.2130 hn        1 13C      0.462300
@<TRIPOS>BOND
     1    1    2 1   
     2    1   18 2   
     3    1   22 1   
     4    2    3 ar  
     5    2    7 ar  
     6    3    4 ar  
     7    3   19 1   
     8    4    5 ar  
     9    4   25 1   
    10    5    6 ar  
    11    5   20 1   
    12    6    7 ar  
    13    6   21 1   
    14    7    8 1   
    15    8    9 1   
    16    8   28 1   
    17    8   29 1   
    18    9   10 1   
    19    9   23 2   
    20   10   11 1   
    21   10   30 1   
    22   10   31 1   
    23   11   12 1   
    24   11   32 1   
    25   11   33 1   
    26   12   13 1   
    27   12   34 1   
    28   12   35 1   
    29   13   14 1   
    30   13   36 1   
    31   13   37 1   
    32   14   15 2   
    33   14   38 1   
    34   15   16 1   
    35   15   39 1   
    36   16   17 1   
    37   16   40 1   
    38   16   41 1   
    39   17   22 1   
    40   17   42 1   
    41   17   43 1   
    42   19   26 1   
    43   20   27 1   
    44   22   24 1   
    45   22   44 1   
@<TRIPOS>SUBSTRUCTURE
     1 13C         1 TEMP              0 ****  ****    0 ROOT
