@<TRIPOS>MOLECULE
13C
   43    44     1     0     0
SMALL
bcc


@<TRIPOS>ATOM
      1 C1          0.3800   -1.5060   -0.4590 c         1 13C      0.688700
      2 C2         -1.0300   -1.0790   -0.2010 ca        1 13C     -0.194600
      3 C3         -2.0750   -1.9900   -0.4500 ca        1 13C      0.184100
      4 C4         -3.4140   -1.6180   -0.3110 ca        1 13C     -0.247000
      5 C5         -3.7080   -0.3140    0.1120 ca        1 13C      0.193100
      6 C6         -2.6730    0.5950    0.4070 ca        1 13C     -0.095600
      7 C7         -1.3310    0.2190    0.2370 ca        1 13C      0.059700
      8 C8         -0.2280    1.1620    0.5710 c3        1 13C     -0.156100
      9 C9          0.0960    2.1820   -0.4940 c         1 13C      0.584100
     10 C10         1.4230    2.8660   -0.2840 c3        1 13C     -0.177400
     11 C11         2.5720    1.9810   -0.7250 c3        1 13C     -0.086400
     12 C12         3.8160    2.2100    0.1080 c3        1 13C     -0.071400
     13 C13         4.8170    1.0800   -0.0690 c3        1 13C     -0.046200
     14 C14         4.4080   -0.1400    0.6730 c2        1 13C     -0.182200
     15 C15         3.7670   -1.1640    0.1030 c2        1 13C     -0.164200
     16 C16         3.3660   -2.3920    0.8280 c3        1 13C     -0.064200
     17 C17         2.1680   -3.0880    0.1720 c3        1 13C      0.099000
     18 O2          1.0600   -1.0200   -1.3830 o         1 13C     -0.598100
     19 O3         -1.7150   -3.2660   -0.8140 oh        1 13C     -0.496100
     20 O4         -5.0420   -0.0220    0.2290 oh        1 13C     -0.486100
     21 CL1        -3.0760    2.1540    0.9680 cl        1 13C     -0.082400
     22 N1          0.8950   -2.4600    0.3970 n         1 13C     -0.558900
     23 O5         -0.6520    2.4650   -1.4290 o         1 13C     -0.511100
     24 H1          0.2780   -2.8930    1.0410 hn        1 13C      0.313500
     25 H4         -4.2330   -2.3170   -0.5270 ha        1 13C      0.162000
     26 H3         -2.5160   -3.7390   -1.0870 ho        1 13C      0.432000
     27 HA         -5.1350    0.9170    0.4610 ho        1 13C      0.438000
     28 H81C       -0.4880    1.7310    1.5080 hc        1 13C      0.087200
     29 H82C        0.7120    0.5810    0.7890 hc        1 13C      0.087200
     30 H101        1.4380    3.8280   -0.8610 hc        1 13C      0.061200
     31 H102        1.5190    3.1230    0.8050 hc        1 13C      0.061200
     32 H111        2.2780    0.8960   -0.6580 hc        1 13C      0.064200
     33 H112        2.8000    2.1800   -1.8050 hc        1 13C      0.064200
     34 H121        4.2950    3.1780   -0.1920 hc        1 13C      0.037700
     35 H122        3.5460    2.2940    1.1940 hc        1 13C      0.037700
     36 H131        4.9300    0.8550   -1.1640 hc        1 13C      0.046200
     37 H132        5.8190    1.4180    0.3080 hc        1 13C      0.046200
     38 H14         4.6630   -0.1460    1.7450 ha        1 13C      0.114000
     39 H15         3.4900   -1.1370   -0.9680 ha        1 13C      0.146000
     40 H161        4.2240   -3.1200    0.8050 hc        1 13C      0.051200
     41 H162        3.1490   -2.1680    1.9050 hc        1 13C      0.051200
     42 H171        2.3570   -3.1470   -0.9410 h1        1 13C      0.052200
     43 H172        2.1110   -4.1400    0.5760 h1        1 13C      0.052200
@<TRIPOS>BOND
     1    1    2 1   
     2    1   18 2   
     3    1   22 1   
     4    2    3 ar  
     5    2    7 ar  
     6    3    4 ar  
     7    3   19 1   
     8    4    5 ar  
     9    4   25 1   
    10    5    6 ar  
    11    5   20 1   
    12    6    7 ar  
    13    6   21 1   
    14    7    8 1   
    15    8    9 1   
    16    8   28 1   
    17    8   29 1   
    18    9   10 1   
    19    9   23 2   
    20   10   11 1   
    21   10   30 1   
    22   10   31 1   
    23   11   12 1   
    24   11   32 1   
    25   11   33 1   
    26   12   13 1   
    27   12   34 1   
    28   12   35 1   
    29   13   14 1   
    30   13   36 1   
    31   13   37 1   
    32   14   15 2   
    33   14   38 1   
    34   15   16 1   
    35   15   39 1   
    36   16   17 1   
    37   16   40 1   
    38   16   41 1   
    39   17   22 1   
    40   17   42 1   
    41   17   43 1   
    42   19   26 1   
    43   20   27 1   
    44   22   24 1   
@<TRIPOS>SUBSTRUCTURE
     1 13C         1 TEMP              0 ****  ****    0 ROOT
