@<TRIPOS>MOLECULE
13D
   15    14     1     0     0
SMALL
bcc


@<TRIPOS>ATOM
      1 CA         -1.2290   -0.0000   -0.4010 c3        1 13D      0.168800
      2 CB          0.2840   -0.0000   -0.4010 c3        1 13D     -0.081400
      3 CC          0.7880   -0.0000    1.0250 c3        1 13D      0.168800
      4 ND          2.2140   -0.0000    1.0250 n3        1 13D     -0.930800
      5 NAA        -1.7040   -0.0000   -1.7460 n3        1 13D     -0.930800
      6 HAC1       -1.5550    0.7970    0.0590 h1        1 13D      0.018700
      7 HAC2       -1.5550   -0.7970    0.0590 h1        1 13D      0.018700
      8 HBC1        0.6090   -0.7970   -0.8610 hc        1 13D      0.057700
      9 HBC2        0.6090    0.7970   -0.8610 hc        1 13D      0.057700
     10 HCC1        0.4630   -0.7970    1.4850 h1        1 13D      0.018700
     11 HCC2        0.4630    0.7970    1.4850 h1        1 13D      0.018700
     12 HDN1        2.5180   -0.7450    1.4550 hn        1 13D      0.353800
     13 HDN2        2.5180    0.7450    1.4550 hn        1 13D      0.353800
     14 HAA1       -2.2110    0.7450   -1.8890 hn        1 13D      0.353800
     15 HAA2       -2.2110   -0.7450   -1.8890 hn        1 13D      0.353800
@<TRIPOS>BOND
     1    1    2 1   
     2    1    5 1   
     3    1    6 1   
     4    1    7 1   
     5    2    3 1   
     6    2    8 1   
     7    2    9 1   
     8    3    4 1   
     9    3   10 1   
    10    3   11 1   
    11    4   12 1   
    12    4   13 1   
    13    5   14 1   
    14    5   15 1   
@<TRIPOS>SUBSTRUCTURE
     1 13D         1 TEMP              0 ****  ****    0 ROOT
