@<TRIPOS>MOLECULE
13D
   17    16     1     0     0
SMALL
bcc


@<TRIPOS>ATOM
      1 CA          0.0360    0.0010   -0.0320 c3        1 13D      0.103800
      2 CB          1.5650    0.0010   -0.0510 c3        1 13D     -0.138400
      3 CC          2.0620   -0.0030    1.3960 c3        1 13D      0.103800
      4 ND          3.5470   -0.0040    1.5110 nz        1 13D     -0.837600
      5 NAA        -0.5730    0.0060   -1.3920 nz        1 13D     -0.837600
      6 HAC1       -0.3440    0.9160    0.5140 hx        1 13D      0.131700
      7 HAC2       -0.3440   -0.9190    0.5070 hx        1 13D      0.131700
      8 HBC1        1.9460   -0.9060   -0.5950 hc        1 13D      0.096700
      9 HBC2        1.9460    0.9120   -0.5890 hc        1 13D      0.096700
     10 HCC1        1.6790    0.9130    1.9390 hx        1 13D      0.131700
     11 HCC2        1.6790   -0.9230    1.9330 hx        1 13D      0.131700
     12 HDN1        3.8130   -0.0070    2.5080 hn        1 13D      0.480800
     13 HDN2        3.9500   -0.8380    1.0640 hn        1 13D      0.480800
     14 HAA1       -1.6010    0.0050   -1.3060 hn        1 13D      0.480800
     15 HAA2       -0.2890   -0.8270   -1.9240 hn        1 13D      0.480800
     16 HD3         3.9500    0.8320    1.0680 hn        1 13D      0.480800
     17 HAA3       -0.2890    0.8430   -1.9180 hn        1 13D      0.480800
@<TRIPOS>BOND
     1    1    2 1   
     2    1    5 1   
     3    1    6 1   
     4    1    7 1   
     5    2    3 1   
     6    2    8 1   
     7    2    9 1   
     8    3    4 1   
     9    3   10 1   
    10    3   11 1   
    11    4   12 1   
    12    4   13 1   
    13    4   16 1   
    14    5   14 1   
    15    5   15 1   
    16    5   17 1   
@<TRIPOS>SUBSTRUCTURE
     1 13D         1 TEMP              0 ****  ****    0 ROOT
