@<TRIPOS>MOLECULE
13D
   15    14     1     0     0
SMALL
bcc


@<TRIPOS>ATOM
      1 CA          1.2450    0.5020    0.0040 c3        1 13D      0.159800
      2 CB          0.0000   -0.3830    0.0000 c3        1 13D     -0.087400
      3 CC         -1.2450    0.5020   -0.0040 c3        1 13D      0.159800
      4 ND         -2.4770   -0.2480    0.0650 n3        1 13D     -0.916800
      5 NAA         2.4770   -0.2480   -0.0650 n3        1 13D     -0.916800
      6 HAC1        1.1960    1.1700    0.9160 h1        1 13D      0.024200
      7 HAC2        1.2170    1.1780   -0.8980 h1        1 13D      0.024200
      8 HBC1        0.0050   -1.0450   -0.9040 hc        1 13D      0.053700
      9 HBC2       -0.0050   -1.0450    0.9040 hc        1 13D      0.053700
     10 HCC1       -1.2170    1.1790    0.8980 h1        1 13D      0.024200
     11 HCC2       -1.1960    1.1690   -0.9170 h1        1 13D      0.024200
     12 HDN1       -3.2600    0.3570   -0.0830 hn        1 13D      0.349300
     13 HDN2       -2.4930   -0.9800   -0.6160 hn        1 13D      0.349300
     14 HAA1        3.2600    0.3570    0.0820 hn        1 13D      0.349300
     15 HAA2        2.4930   -0.9800    0.6160 hn        1 13D      0.349300
@<TRIPOS>BOND
     1    1    2 1   
     2    1    5 1   
     3    1    6 1   
     4    1    7 1   
     5    2    3 1   
     6    2    8 1   
     7    2    9 1   
     8    3    4 1   
     9    3   10 1   
    10    3   11 1   
    11    4   12 1   
    12    4   13 1   
    13    5   14 1   
    14    5   15 1   
@<TRIPOS>SUBSTRUCTURE
     1 13D         1 TEMP              0 ****  ****    0 ROOT
