@<TRIPOS>MOLECULE
13D
   17    16     1     0     0
SMALL
bcc


@<TRIPOS>ATOM
      1 CA          0.0370    0.0060   -0.0370 c3        1 13D      0.103800
      2 CB          1.5660   -0.0040   -0.0500 c3        1 13D     -0.138400
      3 CC          2.0580    0.0030    1.3980 c3        1 13D      0.103800
      4 ND          3.5430   -0.0050    1.5180 n4        1 13D     -0.837600
      5 NAA        -0.5670    0.0000   -1.3990 n4        1 13D     -0.837600
      6 HAC1       -0.3390    0.9300    0.4980 hx        1 13D      0.131700
      7 HAC2       -0.3510   -0.9050    0.5110 hx        1 13D      0.131700
      8 HBC1        1.9550    0.9000   -0.5960 hc        1 13D      0.096700
      9 HBC2        1.9440   -0.9180   -0.5840 hc        1 13D      0.096700
     10 HCC1        1.6680   -0.9100    1.9420 hx        1 13D      0.131700
     11 HCC2        1.6780    0.9250    1.9320 hx        1 13D      0.131700
     12 HDN1        3.8050   -0.0010    2.5160 hn        1 13D      0.480800
     13 HDN2        3.9510    0.8260    1.0700 hn        1 13D      0.480800
     14 HAA1       -0.2760    0.8290   -1.9330 hn        1 13D      0.480800
     15 HAA2       -0.2870   -0.8410   -1.9200 hn        1 13D      0.480800
     16 HD3         3.9430   -0.8440    1.0800 hn        1 13D      0.480800
     17 HAA3       -1.5950    0.0070   -1.3170 hn        1 13D      0.480800
@<TRIPOS>BOND
     1    1    2 1   
     2    1    5 1   
     3    1    6 1   
     4    1    7 1   
     5    2    3 1   
     6    2    8 1   
     7    2    9 1   
     8    3    4 1   
     9    3   10 1   
    10    3   11 1   
    11    4   12 1   
    12    4   13 1   
    13    4   16 1   
    14    5   14 1   
    15    5   15 1   
    16    5   17 1   
@<TRIPOS>SUBSTRUCTURE
     1 13D         1 TEMP              0 ****  ****    0 ROOT
