@<TRIPOS>MOLECULE
13D
   17    16     1     0     0
SMALL
bcc


@<TRIPOS>ATOM
      1 CA          0.0360   -0.0000   -0.0350 c3        1 13D      0.103800
      2 CB          1.5650    0.0000   -0.0500 c3        1 13D     -0.138400
      3 CC          2.0600    0.0000    1.3970 c3        1 13D      0.103800
      4 ND          3.5450    0.0000    1.5150 n4        1 13D     -0.837600
      5 NAA        -0.5700   -0.0000   -1.3950 n4        1 13D     -0.837600
      6 HAC1       -0.3450    0.9180    0.5080 hx        1 13D      0.131700
      7 HAC2       -0.3440   -0.9180    0.5080 hx        1 13D      0.131700
      8 HBC1        1.9480   -0.9090   -0.5910 hc        1 13D      0.096700
      9 HBC2        1.9480    0.9090   -0.5910 hc        1 13D      0.096700
     10 HCC1        1.6760    0.9180    1.9370 hx        1 13D      0.131700
     11 HCC2        1.6760   -0.9180    1.9370 hx        1 13D      0.131700
     12 HDN1        3.8090    0.0000    2.5120 hn        1 13D      0.480800
     13 HDN2        3.9490   -0.8350    1.0710 hn        1 13D      0.480800
     14 HAA1       -1.5980   -0.0000   -1.3120 hn        1 13D      0.480800
     15 HAA2       -0.2850   -0.8350   -1.9240 hn        1 13D      0.480800
     16 HD3         3.9480    0.8350    1.0710 hn        1 13D      0.480800
     17 HAA3       -0.2850    0.8350   -1.9240 hn        1 13D      0.480800
@<TRIPOS>BOND
     1    1    2 1   
     2    1    5 1   
     3    1    6 1   
     4    1    7 1   
     5    2    3 1   
     6    2    8 1   
     7    2    9 1   
     8    3    4 1   
     9    3   10 1   
    10    3   11 1   
    11    4   12 1   
    12    4   13 1   
    13    4   16 1   
    14    5   14 1   
    15    5   15 1   
    16    5   17 1   
@<TRIPOS>SUBSTRUCTURE
     1 13D         1 TEMP              0 ****  ****    0 ROOT
