@<TRIPOS>MOLECULE
13E
   40    40     1     0     0
SMALL
bcc


@<TRIPOS>ATOM
      1 N           1.4760    1.5490    0.0570 n3        1 13E     -0.897800
      2 C1          1.5580    0.0990    0.1060 c3        1 13E      0.158500
      3 C2          2.7210   -0.3840    0.9940 c3        1 13E     -0.036100
      4 C3          4.0510   -0.0750    0.4040 ca        1 13E     -0.053300
      5 C4          4.6420    1.1800    0.5940 ca        1 13E     -0.119500
      6 C5          4.7360   -1.0460   -0.3390 ca        1 13E     -0.119500
      7 C6          5.8960    1.4570    0.0530 ca        1 13E     -0.138500
      8 C7          5.9900   -0.7660   -0.8780 ca        1 13E     -0.138500
      9 C8          6.5740    0.4840   -0.6810 ca        1 13E     -0.146000
     10 C9          0.2750   -0.6090    0.6220 c3        1 13E      0.116800
     11 N2         -0.9200   -0.1700   -0.0800 n3        1 13E     -0.811200
     12 C10        -2.1120   -0.8830    0.3850 c3        1 13E      0.027500
     13 C11        -3.3980   -0.2970   -0.2100 c3        1 13E     -0.054400
     14 C12        -3.6370    1.1150    0.2540 c3        1 13E      0.017700
     15 SD         -5.2050    1.6580   -0.3880 ss        1 13E     -0.335200
     16 C13        -5.2570    3.3210    0.1600 c3        1 13E     -0.037000
     17 C          -2.1170   -2.4200    0.0720 c         1 13E      0.893600
     18 O          -1.3220   -2.8520   -0.8090 o         1 13E     -0.835800
     19 O1         -2.9180   -3.1310    0.7360 o         1 13E     -0.835800
     20 H1          0.8270    1.8180   -0.6580 hn        1 13E      0.342300
     21 H2          1.1290    1.8960    0.9320 hn        1 13E      0.342300
     22 H4          1.7580   -0.2590   -0.9470 h1        1 13E      0.062700
     23 H5          2.6410    0.0830    2.0120 hc        1 13E      0.049700
     24 H6          2.6150   -1.4940    1.1230 hc        1 13E      0.049700
     25 H7          4.0980    1.9540    1.1570 ha        1 13E      0.137000
     26 H8          4.2740   -2.0310   -0.5020 ha        1 13E      0.137000
     27 H9          6.3500    2.4470    0.2030 ha        1 13E      0.119500
     28 H10         6.5180   -1.5340   -1.4620 ha        1 13E      0.119500
     29 H11         7.5630    0.7040   -1.1060 ha        1 13E      0.117000
     30 H12         0.4290   -1.7240    0.5290 h1        1 13E      0.044700
     31 H13         0.1450   -0.3690    1.7140 h1        1 13E      0.044700
     32 H14        -0.8050   -0.3860   -1.0590 hn        1 13E      0.353800
     33 H16        -2.1620   -0.7730    1.5060 h1        1 13E      0.042700
     34 H17        -3.3530   -0.3320   -1.3300 hc        1 13E      0.062200
     35 H18        -4.2400   -0.9640    0.1210 hc        1 13E      0.062200
     36 H19        -3.6540    1.1630    1.3690 h1        1 13E      0.054200
     37 H20        -2.8310    1.7970   -0.1090 h1        1 13E      0.054200
     38 H21        -6.2140    3.7530   -0.2120 h1        1 13E      0.049367
     39 H22        -5.2350    3.3900    1.2700 h1        1 13E      0.049367
     40 H23        -4.4080    3.9150   -0.2450 h1        1 13E      0.049367
@<TRIPOS>BOND
     1    1    2 1   
     2    1   20 1   
     3    1   21 1   
     4    2    3 1   
     5    2   10 1   
     6    2   22 1   
     7    3    4 1   
     8    3   23 1   
     9    3   24 1   
    10    4    5 ar  
    11    4    6 ar  
    12    5    7 ar  
    13    5   25 1   
    14    6    8 ar  
    15    6   26 1   
    16    7    9 ar  
    17    7   27 1   
    18    8    9 ar  
    19    8   28 1   
    20    9   29 1   
    21   10   11 1   
    22   10   30 1   
    23   10   31 1   
    24   11   12 1   
    25   11   32 1   
    26   12   13 1   
    27   12   17 1   
    28   12   33 1   
    29   13   14 1   
    30   13   34 1   
    31   13   35 1   
    32   14   15 1   
    33   14   36 1   
    34   14   37 1   
    35   15   16 1   
    36   16   38 1   
    37   16   39 1   
    38   16   40 1   
    39   17   18 1   
    40   17   19 1   
@<TRIPOS>SUBSTRUCTURE
     1 13E         1 TEMP              0 ****  ****    0 ROOT
