@<TRIPOS>MOLECULE
13E
   40    38     1     0     0
SMALL
bcc


@<TRIPOS>ATOM
      1 N          -1.8770    2.0530   -1.2740 n3        1 13E     -0.364000
      2 C1         -0.8180    1.1520   -1.1950 c3        1 13E     -0.046000
      3 C2          0.2710    1.5830   -2.1330 c3        1 13E     -0.121000
      4 C3          0.0060    0.9890   -3.5380 c2        1 13E     -0.046000
      5 C4         -0.4340    1.8130   -4.5710 c2        1 13E     -0.101000
      6 C5          0.3640   -0.3170   -3.8040 c1        1 13E     -0.140000
      7 C6         -0.5140    1.3080   -5.8890 c1        1 13E     -0.139000
      8 C7          0.2830   -0.8200   -5.1270 c1        1 13E     -0.145500
      9 C8         -0.1540   -0.0050   -6.1540 c1        1 13E     -0.145500
     10 C9         -0.2560    1.1200    0.2670 c3        1 13E     -0.112000
     11 N2         -0.3280   -0.1600    0.7600 n3        1 13E     -0.287000
     12 C10         0.1810   -0.1850    2.0810 c3        1 13E     -0.110000
     13 C11        -0.5460   -1.2820    2.8970 c3        1 13E     -0.138000
     14 C12        -0.1670   -1.1540    4.3610 c3        1 13E     -0.239000
     15 SD          0.2530   -2.7810    5.0100 ss        1 13E     -0.027000
     16 C13         1.2810   -2.6020    6.4830 c3        1 13E     -0.339000
     17 C           1.6710   -0.4780    2.0400 c2        1 13E      0.296000
     18 O           2.1020   -1.4620    1.3790 o         1 13E     -0.577000
     19 O1          2.4870    0.2120    2.7810 o         1 13E     -0.577000
     20 H1         -2.6510    1.6220   -1.1220 hn        1 13E      0.178000
     21 H2         -1.7700    2.6870   -0.6740 hn        1 13E      0.178000
     22 H4         -1.1330    0.2530   -1.4450 h1        1 13E      0.082000
     23 H5          0.2860    2.5080   -2.1860 hc        1 13E      0.083000
     24 H6          1.1350    1.2610   -1.8000 hc        1 13E      0.083000
     25 H7         -0.7270    2.7540   -4.3750 ha        1 13E      0.159000
     26 H8          0.6630   -0.9090   -3.0670 ha        1 13E      0.123000
     27 H9         -0.8280    1.8950   -6.6290 ha        1 13E      0.122000
     28 H10         0.5210   -1.6840   -5.3020 ha        1 13E      0.115000
     29 H11        -0.3310   -0.4100   -7.0920 ha        1 13E      0.115000
     30 H12        -0.7690    1.7020    0.8220 h1        1 13E      0.073500
     31 H13         0.6700    1.4120    0.2620 h1        1 13E      0.073500
     32 H14        -1.2500   -0.4580    0.7590 hn        1 13E      0.161000
     33 H16         0.0290    0.7180    2.5210 h1        1 13E      0.085000
     34 H17        -0.2880   -2.1450    2.5750 hc        1 13E      0.084500
     35 H18        -1.5010   -1.1770    2.8000 hc        1 13E      0.084500
     36 H19        -0.9270   -0.7830    4.8670 h1        1 13E      0.111000
     37 H20         0.6450   -0.5280    4.4540 h1        1 13E      0.111000
     38 H21         2.0700   -2.0140    6.2720 h1        1 13E      0.111667
     39 H22         1.6030   -3.4980    6.7740 h1        1 13E      0.111667
     40 H23         0.7470   -2.1910    7.2100 h1        1 13E      0.111667
@<TRIPOS>BOND
     1    1    2 1   
     2    1   20 1   
     3    1   21 1   
     4    2    3 1   
     5    2   10 1   
     6    2   22 1   
     7    3    4 1   
     8    3   23 1   
     9    3   24 1   
    10    4    5 1   
    11    4    6 1   
    12    5    7 1   
    13    5   25 1   
    14    6   26 1   
    15    7   27 1   
    16    8    9 1   
    17    8   28 1   
    18    9   29 1   
    19   10   11 1   
    20   10   30 1   
    21   10   31 1   
    22   11   12 1   
    23   11   32 1   
    24   12   13 1   
    25   12   17 1   
    26   12   33 1   
    27   13   14 1   
    28   13   34 1   
    29   13   35 1   
    30   14   15 1   
    31   14   36 1   
    32   14   37 1   
    33   15   16 1   
    34   16   38 1   
    35   16   39 1   
    36   16   40 1   
    37   17   18 1   
    38   17   19 1   
@<TRIPOS>SUBSTRUCTURE
     1 13E         1 TEMP              0 ****  ****    0 ROOT
