@<TRIPOS>MOLECULE
13E
   42    42     1     0     0
SMALL
bcc


@<TRIPOS>ATOM
      1 N           0.0830   -0.9130   -0.6660 n4        1 13E     -0.872600
      2 C1          0.6900    0.1810    0.1480 c3        1 13E      0.099500
      3 C2          0.8520    1.4730   -0.6760 c3        1 13E     -0.049100
      4 C3          1.4310    1.2140   -2.0210 ca        1 13E     -0.170300
      5 C4          0.7830    1.6960   -3.1640 ca        1 13E     -0.128000
      6 C5          2.6530    0.5390   -2.1520 ca        1 13E     -0.128000
      7 C6          1.3470    1.4990   -4.4240 ca        1 13E     -0.113500
      8 C7          3.2110    0.3400   -3.4130 ca        1 13E     -0.113500
      9 C8          2.5590    0.8200   -4.5510 ca        1 13E     -0.096000
     10 C9         -0.1120    0.5390    1.4190 c3        1 13E      0.096800
     11 N2         -0.1900   -0.4890    2.4780 n4        1 13E     -0.804000
     12 C10         1.1390   -1.0950    2.8390 c3        1 13E     -0.035500
     13 C11         1.1200   -1.7480    4.2160 c3        1 13E     -0.093400
     14 C12         0.9970   -0.7710    5.3540 c3        1 13E     -0.036300
     15 SD         -0.5280    0.1450    5.3650 ss        1 13E     -0.312200
     16 C13        -1.6850   -0.9510    6.1170 c3        1 13E     -0.042000
     17 C           1.4840   -2.1940    1.7650 c         1 13E      0.899600
     18 O           0.4770   -2.8230    1.2960 o         1 13E     -0.762300
     19 O1          2.6630   -2.2810    1.3910 o         1 13E     -0.762300
     20 H1          0.1360   -1.8390   -0.1540 hn        1 13E      0.474800
     21 H2          0.6230   -0.9950   -1.5390 hn        1 13E      0.474800
     22 H4          1.7270   -0.1920    0.4410 hx        1 13E      0.153700
     23 H5          1.5390    2.1540   -0.1020 hc        1 13E      0.083700
     24 H6         -0.1400    1.9920   -0.7700 hc        1 13E      0.083700
     25 H7         -0.1630    2.2510   -3.0730 ha        1 13E      0.141500
     26 H8          3.1910    0.1820   -1.2590 ha        1 13E      0.141500
     27 H9          0.8370    1.8890   -5.3190 ha        1 13E      0.158000
     28 H10         4.1740   -0.1870   -3.5090 ha        1 13E      0.158000
     29 H11         3.0070    0.6690   -5.5460 ha        1 13E      0.159000
     30 H12         0.3940    1.4500    1.8610 hx        1 13E      0.109200
     31 H13        -1.1680    0.8270    1.1410 hx        1 13E      0.109200
     32 H14        -0.7780   -1.2780    2.1590 hn        1 13E      0.470300
     33 H16         1.9190   -0.2830    2.8120 hx        1 13E      0.099700
     34 H17         2.1010   -2.3000    4.3090 hc        1 13E      0.100200
     35 H18         0.3090   -2.5240    4.2670 hc        1 13E      0.100200
     36 H19         1.1200   -1.3130    6.3250 h1        1 13E      0.104200
     37 H20         1.7980    0.0110    5.2990 h1        1 13E      0.104200
     38 H21        -1.3650   -1.2210    7.1490 h1        1 13E      0.085367
     39 H22        -2.6490   -0.3930    6.1740 h1        1 13E      0.085367
     40 H23        -1.8260   -1.8830    5.5280 h1        1 13E      0.085367
     41 HN3        -0.8850   -0.7000   -0.8990 hn        1 13E      0.474800
     42 H221       -0.6180   -0.0740    3.3720 hn        1 13E      0.470300
@<TRIPOS>BOND
     1    1    2 1   
     2    1   20 1   
     3    1   21 1   
     4    1   41 1   
     5    2    3 1   
     6    2   10 1   
     7    2   22 1   
     8    3    4 1   
     9    3   23 1   
    10    3   24 1   
    11    4    5 ar  
    12    4    6 ar  
    13    5    7 ar  
    14    5   25 1   
    15    6    8 ar  
    16    6   26 1   
    17    7    9 ar  
    18    7   27 1   
    19    8    9 ar  
    20    8   28 1   
    21    9   29 1   
    22   10   11 1   
    23   10   30 1   
    24   10   31 1   
    25   11   12 1   
    26   11   32 1   
    27   11   42 1   
    28   12   13 1   
    29   12   17 1   
    30   12   33 1   
    31   13   14 1   
    32   13   34 1   
    33   13   35 1   
    34   14   15 1   
    35   14   36 1   
    36   14   37 1   
    37   15   16 1   
    38   16   38 1   
    39   16   39 1   
    40   16   40 1   
    41   17   18 1   
    42   17   19 1   
@<TRIPOS>SUBSTRUCTURE
     1 13E         1 TEMP              0 ****  ****    0 ROOT
