@<TRIPOS>MOLECULE
13F
   37    36     1     0     0
SMALL
bcc


@<TRIPOS>ATOM
      1 C4         -0.3670   -0.4650    0.5780 cx        1 13F     -0.017300
      2 C14         3.8700    0.1600    3.6400 c2        1 13F      0.436100
      3 C5          1.0310   -0.9260    0.8970 c3        1 13F     -0.150800
      4 C6          1.2320    2.4090   -0.3570 c2        1 13F      0.075000
      5 C11         0.1980    2.5560   -3.7580 c1        1 13F     -0.132500
      6 C7          0.9080    3.6730    0.0040 ce        1 13F     -0.208000
      7 C8          0.1740    4.6070   -0.8080 ce        1 13F     -0.087000
      8 C9         -0.2140    4.5090   -2.0940 cf        1 13F     -0.041700
      9 C10         0.0170    3.4450   -2.9730 ch        1 13F     -0.181300
     10 C12         1.2100   -2.3160    0.6130 c1        1 13F     -0.148100
     11 C13         1.3430   -3.4850    0.4000 c1        1 13F     -0.096500
     12 N1         -1.6790    0.7560    2.6510 ne        1 13F     -0.560000
     13 N2          1.9410    1.5170    0.4400 nh        1 13F     -0.776900
     14 C3         -1.5640   -1.2350    1.0290 cu        1 13F     -0.146200
     15 C1         -1.0940    1.7590    3.1110 c1        1 13F      0.800900
     16 C2         -1.3180   -0.1050    1.6780 ce        1 13F      0.110400
     17 N           2.8750    0.9560    3.5550 n2        1 13F     -0.657900
     18 C           2.4340    1.7400    4.6660 c3        1 13F      0.082100
     19 S           2.2700   -0.0160    0.0180 s6        1 13F      1.442900
     20 O           3.5140   -0.3870    0.5600 o         1 13F     -0.636800
     21 O1          2.0810   -0.1920   -1.3630 o         1 13F     -0.636800
     22 H1         -2.1490   -2.1160    0.8660 ha        1 13F      0.204000
     23 H2          4.1680   -0.4000    2.7290 h4        1 13F      0.001300
     24 H3          4.4800   -0.0280    4.5450 h4        1 13F      0.001300
     25 H4          0.3670    1.7640   -4.4430 ha        1 13F      0.172500
     26 H5          0.9470    1.9960   -1.3510 h4        1 13F      0.176000
     27 H6          1.2080    4.0650    0.9930 ha        1 13F      0.128000
     28 H7         -0.0920    5.5390   -0.2710 ha        1 13F      0.126000
     29 H8         -0.7780    5.3500   -2.5460 ha        1 13F      0.138000
     30 H9          1.2060   -0.7840    2.0080 h1        1 13F      0.130700
     31 H10         1.4840   -4.5170    0.1950 ha        1 13F      0.172500
     32 H11         2.2730    1.8940    1.3020 hn        1 13F      0.471800
     33 H12        -0.4170    0.0760   -0.3930 hc        1 13F      0.080700
     34 H13         1.3120    1.6810    4.7100 h1        1 13F      0.045700
     35 H14         2.8500    1.4260    5.6610 h1        1 13F      0.045700
     36 H15         2.7180    2.8120    4.4870 h1        1 13F      0.045700
     37 O2         -0.7820    2.7250    3.7450 o         1 13F     -0.410500
@<TRIPOS>BOND
     1    1    3 1   
     2    1   14 1   
     3    1   16 1   
     4    1   33 1   
     5    2   17 2   
     6    2   23 1   
     7    2   24 1   
     8    3   10 1   
     9    3   19 1   
    10    3   30 1   
    11    4    6 2   
    12    4   13 1   
    13    4   26 1   
    14    5    9 3   
    15    5   25 1   
    16    6    7 1   
    17    6   27 1   
    18    7    8 2   
    19    7   28 1   
    20    8    9 1   
    21    8   29 1   
    22   10   11 3   
    23   11   31 1   
    24   12   15 2   
    25   12   16 1   
    26   13   19 1   
    27   13   32 1   
    28   14   16 2   
    29   14   22 1   
    30   15   37 2   
    31   17   18 1   
    32   18   34 1   
    33   18   35 1   
    34   18   36 1   
    35   19   20 2   
    36   19   21 2   
@<TRIPOS>SUBSTRUCTURE
     1 13F         1 TEMP              0 ****  ****    0 ROOT
