@<TRIPOS>MOLECULE
13F
   38    36     1     0     0
SMALL
bcc


@<TRIPOS>ATOM
      1 C4         -1.2000   -0.0820    0.9670 c2        1 13F     -0.294000
      2 C14         2.6690    1.0870    3.7290 c2        1 13F     -0.011000
      3 C5          0.0430    0.6770    0.6820 c3        1 13F     -0.520000
      4 C6          2.1470    2.0940   -1.4820 c2        1 13F     -0.285000
      5 C11         0.2150    3.2760   -4.2200 c1        1 13F     -0.104000
      6 C7          2.6330    3.2750   -1.0400 c2        1 13F      0.004000
      7 C8          2.4360    4.5470   -1.6810 c2        1 13F     -0.189000
      8 C9          1.6880    4.8440   -2.7630 c2        1 13F      0.058000
      9 C10         0.9050    3.9700   -3.5250 c1        1 13F     -0.208000
     10 C12         0.9730    0.7910    1.7540 c1        1 13F     -0.250000
     11 C13         1.7270    0.9300    2.6750 c1        1 13F      0.007000
     12 N1         -3.5510   -2.1570    2.5670 n2        1 13F      0.043000
     13 N2          2.3550    0.8350   -0.8090 n4        1 13F     -0.415000
     14 C3         -1.3710   -0.8670    2.0520 c2        1 13F      0.080000
     15 C1         -4.7390   -1.8670    3.2950 c1        1 13F      0.202000
     16 C2         -2.5300   -1.6050    2.2850 c1        1 13F     -0.139000
     17 N           3.9010    1.3660    3.4710 n2        1 13F     -0.152000
     18 C           4.8610    1.5270    4.5120 c3        1 13F     -0.166000
     19 S           0.7520   -0.1330   -0.6800 s6        1 13F      2.640000
     20 O           1.2390   -1.4050   -0.4350 o         1 13F     -0.828000
     21 O1          0.0850    0.1430   -1.8620 o         1 13F     -0.828000
     22 H1         -0.5700   -1.0120    2.8090 ha        1 13F      0.177000
     23 H2          0.6660   -1.4330    4.8370 ha        1 13F      0.001500
     24 H3          2.2320    0.9470    4.7460 h4        1 13F      0.155000
     25 H4         -0.3990    2.6640   -4.8380 ha        1 13F      0.246000
     26 H5          1.5790    1.9880   -2.4320 hx        1 13F      0.216000
     27 H6          3.2390    3.3230   -0.1110 ha        1 13F      0.147000
     28 H7          2.9890    5.3780   -1.1970 ha        1 13F      0.160000
     29 H8          1.6640    5.8980   -3.1180 ha        1 13F      0.168000
     30 H9         -0.2790    1.7310    0.3890 h1        1 13F      0.205000
     31 H10         0.9350   -0.9360    4.4630 ha        1 13F      0.001500
     32 H11         2.7660    0.9890    0.1170 hn        1 13F      0.253000
     33 H12        -2.0210    0.0950    0.2510 ha        1 13F      0.171000
     34 H13         5.6800    0.7740    4.3410 h1        1 13F      0.110667
     35 H14         4.4650    1.4010    5.5560 h1        1 13F      0.110667
     36 H15         5.3030    2.5560    4.4130 h1        1 13F      0.110667
     37 O2         -5.7550   -2.4080    3.5810 o         1 13F     -0.128000
     38 H22         3.0420    0.2920   -1.3430 hn        1 13F      0.253000
@<TRIPOS>BOND
     1    1    3 1   
     2    1   14 1   
     3    1   33 1   
     4    2   11 1   
     5    2   17 1   
     6    2   24 1   
     7    3   10 1   
     8    3   19 1   
     9    3   30 1   
    10    4    6 1   
    11    4   13 1   
    12    4   26 1   
    13    5    9 1   
    14    5   25 1   
    15    6    7 1   
    16    6   27 1   
    17    7    8 1   
    18    7   28 1   
    19    8    9 1   
    20    8   29 1   
    21   10   11 1   
    22   12   15 1   
    23   12   16 1   
    24   13   19 1   
    25   13   32 1   
    26   13   38 1   
    27   14   16 1   
    28   14   22 1   
    29   15   37 1   
    30   17   18 1   
    31   18   34 1   
    32   18   35 1   
    33   18   36 1   
    34   19   20 1   
    35   19   21 1   
    36   23   31 1   
@<TRIPOS>SUBSTRUCTURE
     1 13F         1 TEMP              0 ****  ****    0 ROOT
