@<TRIPOS>MOLECULE
13F
   37    37     1     0     0
SMALL
bcc


@<TRIPOS>ATOM
      1 C4          0.5550   -1.5350   -0.4200 c2        1 13F      0.057000
      2 C14         2.0130    1.2350    5.9990 c1        1 13F     -0.148000
      3 C5          1.7510   -1.0360   -0.7810 c2        1 13F     -0.867000
      4 C6          1.2610    2.3780   -1.3670 c2        1 13F      0.023000
      5 C11        -2.0330    2.9330   -2.5950 c1        1 13F     -0.197000
      6 C7          1.4610    3.5870   -0.7890 c2        1 13F     -0.233000
      7 C8          0.4570    4.6020   -0.6170 c2        1 13F     -0.075000
      8 C9         -0.8010    4.6600   -1.0930 c2        1 13F     -0.088000
      9 C10        -1.4470    3.7160   -1.9000 c1        1 13F     -0.141000
     10 C12         2.9490   -1.3230   -0.0080 c2        1 13F     -0.105000
     11 C13         3.0950   -1.1300    1.3140 c2        1 13F     -0.077000
     12 N1          2.3580   -0.0370    3.4460 n7        1 13F     -0.091000
     13 N2          2.2390    1.4100   -1.5340 n7        1 13F     -0.810000
     14 C3          0.6590   -0.5690    2.0110 c1        1 13F     -0.059000
     15 C1          1.1850    0.3620    4.0020 c2        1 13F      0.093000
     16 C2          2.0710   -0.6220    2.1850 c2        1 13F     -0.248000
     17 N           0.9580    0.9910    5.2480 n3        1 13F     -0.086000
     18 C          -0.4350    1.2930    5.5320 c3        1 13F     -0.148000
     19 S           1.9700   -0.0860   -2.1460 s6        1 13F      2.849000
     20 O           3.1460   -0.4930   -2.8110 o         1 13F     -0.932000
     21 O1          0.7780   -0.0940   -2.9020 o         1 13F     -0.932000
     22 H1          0.4250   -2.2370    0.4180 ha        1 13F      0.141000
     23 H2          4.0670   -1.3660    1.7850 ha        1 13F      0.123000
     24 H3          1.8120    1.7310    6.9690 ha        1 13F      0.075000
     25 H4         -2.5360    2.2330   -3.2120 ha        1 13F      0.228000
     26 H5          0.2640    2.0810   -1.7620 h4        1 13F      0.175000
     27 H6          2.4590    3.8600   -0.4030 ha        1 13F      0.121000
     28 H7          0.8010    5.4580   -0.0030 ha        1 13F      0.119000
     29 H8         -1.4250    5.5420   -0.8460 ha        1 13F      0.133000
     30 H9          3.7960   -1.7230   -0.5980 ha        1 13F      0.149000
     31 H10         3.2510    0.0810    3.8670 hn        1 13F      0.292000
     32 H11         3.1520    1.6750   -1.2390 hn        1 13F      0.243000
     33 H12        -0.3640   -1.2830   -0.9760 ha        1 13F      0.141000
     34 H13        -0.8490    1.9730    4.7400 h1        1 13F      0.111667
     35 H14        -0.4970    1.7930    6.5330 h1        1 13F      0.111667
     36 H15        -1.0380    0.3470    5.5410 h1        1 13F      0.111667
     37 O2          0.1460    0.0380    3.1350 os        1 13F     -0.062000
@<TRIPOS>BOND
     1    1    3 1   
     2    1   22 1   
     3    1   33 1   
     4    2   17 1   
     5    2   24 1   
     6    3   10 1   
     7    3   19 1   
     8    4    6 1   
     9    4   13 1   
    10    4   26 1   
    11    5    9 1   
    12    5   25 1   
    13    6    7 1   
    14    6   27 1   
    15    7    8 1   
    16    7   28 1   
    17    8    9 1   
    18    8   29 1   
    19   10   11 1   
    20   10   30 1   
    21   11   16 1   
    22   11   23 1   
    23   12   15 1   
    24   12   16 1   
    25   12   31 1   
    26   13   19 1   
    27   13   32 1   
    28   14   16 1   
    29   14   37 1   
    30   15   17 1   
    31   15   37 1   
    32   17   18 1   
    33   18   34 1   
    34   18   35 1   
    35   18   36 1   
    36   19   20 1   
    37   19   21 1   
@<TRIPOS>SUBSTRUCTURE
     1 13F         1 TEMP              0 ****  ****    0 ROOT
