@<TRIPOS>MOLECULE
13F
   37    39     1     0     0
SMALL
bcc


@<TRIPOS>ATOM
      1 C4         -0.2280    0.0380   -1.3540 ca        1 13F      0.033000
      2 C14         3.3000    0.9010    0.9230 c3        1 13F      0.148300
      3 C5         -0.3060    0.9210   -0.2680 ca        1 13F     -0.437500
      4 C6         -3.1110   -0.5870    0.8040 ca        1 13F      0.168600
      5 C11        -3.6680   -0.8220   -0.4730 ca        1 13F     -0.176500
      6 C7         -3.2010   -1.6050    1.7810 ca        1 13F     -0.176500
      7 C8         -3.8220   -2.8130    1.4810 ca        1 13F     -0.101500
      8 C9         -4.3580   -3.0410    0.2150 ca        1 13F     -0.153000
      9 C10        -4.2780   -2.0420   -0.7530 ca        1 13F     -0.101500
     10 C12         0.8610    1.1790    0.4640 ca        1 13F      0.032000
     11 C13         2.0680    0.5770    0.1360 ca        1 13F     -0.186300
     12 N1          3.3410   -0.9200   -1.2810 n         1 13F     -0.466100
     13 N2         -2.4870    0.6300    1.1200 nh        1 13F     -0.774500
     14 C3          0.9580   -0.5840   -1.7050 ca        1 13F     -0.215000
     15 C1          4.5050   -0.7400   -0.4980 c         1 13F      0.810500
     16 C2          2.1330   -0.3250   -0.9590 ca        1 13F      0.163600
     17 N           4.4390    0.0500    0.6560 n         1 13F     -0.457800
     18 C           5.6650    0.4050    1.3190 c3        1 13F      0.081300
     19 S          -1.7440    1.6890    0.1220 sy        1 13F      1.525200
     20 O          -1.4530    2.8340    0.8990 o         1 13F     -0.652300
     21 O1         -2.4850    1.8870   -1.0580 o         1 13F     -0.652300
     22 H1         -1.1400   -0.1570   -1.9490 ha        1 13F      0.155000
     23 H2          3.5790    1.9800    0.7220 h1        1 13F      0.053700
     24 H3          3.0700    0.8120    2.0270 h1        1 13F      0.053700
     25 H4         -3.6420   -0.0420   -1.2540 ha        1 13F      0.150000
     26 H5         -2.7870   -1.4470    2.7880 ha        1 13F      0.150000
     27 H6         -3.8860   -3.5950    2.2530 ha        1 13F      0.135000
     28 H7         -4.8450   -3.9990   -0.0160 ha        1 13F      0.135000
     29 H8         -4.7080   -2.2090   -1.7530 ha        1 13F      0.135000
     30 H9          0.8200    1.8910    1.3090 ha        1 13F      0.158000
     31 H10         3.4010   -1.5640   -2.0380 hn        1 13F      0.351500
     32 H11        -2.4700    0.8090    2.1010 hn        1 13F      0.453800
     33 H12         0.9840   -1.2730   -2.5620 ha        1 13F      0.148000
     34 H13         5.4800    0.4160    2.4260 h1        1 13F      0.053033
     35 H14         6.4610   -0.3510    1.0820 h1        1 13F      0.053033
     36 H15         6.0180    1.4230    0.9990 h1        1 13F      0.053033
     37 O2          5.5440   -1.3430   -0.8470 o         1 13F     -0.648500
@<TRIPOS>BOND
     1    1    3 ar  
     2    1   14 ar  
     3    1   22 1   
     4    2   11 1   
     5    2   17 1   
     6    2   23 1   
     7    2   24 1   
     8    3   10 ar  
     9    3   19 1   
    10    4    5 ar  
    11    4    6 ar  
    12    4   13 1   
    13    5    9 ar  
    14    5   25 1   
    15    6    7 ar  
    16    6   26 1   
    17    7    8 ar  
    18    7   27 1   
    19    8    9 ar  
    20    8   28 1   
    21    9   29 1   
    22   10   11 ar  
    23   10   30 1   
    24   11   16 ar  
    25   12   15 1   
    26   12   16 1   
    27   12   31 1   
    28   13   19 1   
    29   13   32 1   
    30   14   16 ar  
    31   14   33 1   
    32   15   17 1   
    33   15   37 2   
    34   17   18 1   
    35   18   34 1   
    36   18   35 1   
    37   18   36 1   
    38   19   20 2   
    39   19   21 2   
@<TRIPOS>SUBSTRUCTURE
     1 13F         1 TEMP              0 ****  ****    0 ROOT
