@<TRIPOS>MOLECULE
13F
   37    33     1     0     0
SMALL
bcc


@<TRIPOS>ATOM
      1 C4         -1.9880   -0.5690   -0.1320 c1        1 13F      0.026000
      2 C14         0.1570   -0.6220    3.6170 c3        1 13F      0.024000
      3 C5         -0.5810   -0.5010   -0.1260 c1        1 13F     -0.885000
      4 C6          1.0680    0.9430   -3.7070 c1        1 13F      0.089000
      5 C11         2.0830    0.0960   -4.1090 c1        1 13F     -0.133250
      6 C7          0.7010    2.0180   -4.5100 c1        1 13F     -0.173000
      7 C8          1.3680    2.2480   -5.7430 c1        1 13F     -0.133250
      8 C9          2.3620    1.4220   -6.1420 c1        1 13F     -0.133250
      9 C10         2.7410    0.3240   -5.3270 c1        1 13F     -0.133250
     10 C12         0.1250   -0.5180    1.1060 c1        1 13F      0.035000
     11 C13        -0.5800   -0.6020    2.3150 c2        1 13F     -0.179000
     12 N1         -2.7070   -0.6260    3.5650 n3        1 13F     -0.320000
     13 N2          0.4970    0.8110   -2.3550 n3        1 13F     -0.830000
     14 C3         -2.6750   -0.6510    1.0530 c1        1 13F     -0.218000
     15 O2         -2.6320   -0.2890    5.8460 o         1 13F     -0.371000
     16 C1         -2.0030   -0.4440    4.8190 c1        1 13F      0.401000
     17 C2         -1.9590   -0.6680    2.3040 c2        1 13F      0.173000
     18 N          -0.6010   -0.5230    4.8560 n2        1 13F     -0.316000
     19 C           0.0880   -0.5590    6.1180 c3        1 13F     -0.075000
     20 S           0.1770   -0.6470   -1.7610 s6        1 13F      2.876000
     21 O           1.3350   -1.4460   -1.7190 o         1 13F     -0.934500
     22 O1         -0.6710   -1.4270   -2.6780 o         1 13F     -0.934500
     23 H1         -2.4610   -0.5570   -0.9550 ha        1 13F      0.162000
     24 H2          0.8360    0.1670    3.6040 h1        1 13F      0.094500
     25 H3          0.6830   -1.4730    3.6520 h1        1 13F      0.094500
     26 H4          2.3470   -0.6760   -3.5330 ha        1 13F      0.142000
     27 H5         -0.0420    2.6400   -4.2140 ha        1 13F      0.130000
     28 H6          1.1190    2.9740   -6.2820 ha        1 13F      0.142000
     29 H7          2.8270    1.5850   -7.0060 ha        1 13F      0.142000
     30 H8          3.4630   -0.2760   -5.6150 ha        1 13F      0.142000
     31 H9          1.1250   -0.4660    1.1100 ha        1 13F      0.159000
     32 H10        -3.6190   -0.8600    3.5740 hn        1 13F      0.265000
     33 H11         0.3310    1.5320   -1.8690 hn        1 13F      0.244000
     34 H12        -3.7010   -0.6960    1.0500 ha        1 13F      0.149000
     35 H13        -0.1230   -1.3650    6.5710 h1        1 13F      0.093000
     36 H14         1.0990   -0.5150    5.9490 h1        1 13F      0.093000
     37 H15        -0.1890    0.2160    6.6740 h1        1 13F      0.093000
@<TRIPOS>BOND
     1    1    3 1   
     2    1   23 1   
     3    2   11 1   
     4    2   18 1   
     5    2   24 1   
     6    2   25 1   
     7    3   20 1   
     8    4    6 1   
     9    4   13 1   
    10    5    9 1   
    11    5   26 1   
    12    6   27 1   
    13    7    8 1   
    14    7   28 1   
    15    8   29 1   
    16    9   30 1   
    17   10   11 1   
    18   10   31 1   
    19   11   17 1   
    20   12   16 1   
    21   12   17 1   
    22   12   32 1   
    23   13   20 1   
    24   13   33 1   
    25   14   17 1   
    26   14   34 1   
    27   15   16 1   
    28   18   19 1   
    29   19   35 1   
    30   19   36 1   
    31   19   37 1   
    32   20   21 1   
    33   20   22 1   
@<TRIPOS>SUBSTRUCTURE
     1 13F         1 TEMP              0 ****  ****    0 ROOT
