@<TRIPOS>MOLECULE
13H
   52    51     1     0     0
SMALL
bcc


@<TRIPOS>ATOM
      1 C18        -0.0670    2.1450    3.2560 c3        1 13H     -0.092100
      2 C17         0.5000    1.0070    2.4490 c3        1 13H     -0.079400
      3 C16         2.0080    0.9410    2.5640 c3        1 13H     -0.078400
      4 C15         2.5720   -0.2070    1.7550 c3        1 13H     -0.078400
      5 C14         4.0800   -0.2640    1.8620 c3        1 13H     -0.073400
      6 C13         4.6460   -1.4580    1.0910 c3        1 13H      0.180300
      7 O3          4.2250   -2.6360    1.7750 oh        1 13H     -0.607800
      8 C12         6.1260   -1.3350    0.9380 c2        1 13H     -0.228200
      9 C11         7.0730   -1.7180    1.8040 ce        1 13H     -0.098000
     10 C10         6.8460   -2.3220    3.1000 ce        1 13H     -0.187000
     11 C9          7.8090   -2.8640    3.8600 c2        1 13H     -0.122200
     12 C8          9.2410   -2.9440    3.4910 c3        1 13H     -0.061200
     13 C7         10.0670   -3.6630    4.5390 c3        1 13H     -0.078400
     14 C6         11.5240   -3.7310    4.1330 c3        1 13H     -0.079400
     15 C5         12.3550   -4.4480    5.1770 c3        1 13H     -0.079400
     16 C4         13.8120   -4.5190    4.7710 c3        1 13H     -0.078400
     17 C3         14.6450   -5.2270    5.8200 c3        1 13H     -0.065400
     18 C2         16.0960   -5.3190    5.4170 c3        1 13H     -0.194400
     19 C1         16.9620   -5.8630    6.5670 c         1 13H      0.907600
     20 O1         17.8170   -6.7530    6.2900 o         1 13H     -0.852800
     21 O2         16.7960   -5.3840    7.7270 o         1 13H     -0.852800
     22 H118        0.1880    2.0270    4.3370 hc        1 13H      0.030700
     23 H218        0.3450    3.1220    2.9050 hc        1 13H      0.030700
     24 H318       -1.1790    2.1760    3.1570 hc        1 13H      0.030700
     25 H117        0.0570    0.0370    2.8000 hc        1 13H      0.037700
     26 H217        0.2130    1.1290    1.3710 hc        1 13H      0.037700
     27 H116        2.2970    0.8190    3.6410 hc        1 13H      0.038700
     28 H216        2.4550    1.9070    2.2090 hc        1 13H      0.038700
     29 H115        2.1420   -1.1790    2.1170 hc        1 13H      0.046200
     30 H215        2.2730   -0.0930    0.6790 hc        1 13H      0.046200
     31 H114        4.3820   -0.3520    2.9380 hc        1 13H      0.050700
     32 H214        4.5320    0.6740    1.4480 hc        1 13H      0.050700
     33 H13         4.1810   -1.4920    0.0610 h1        1 13H      0.034700
     34 H3          4.8670   -3.3280    1.5740 ho        1 13H      0.408000
     35 H12         6.4260   -0.8550   -0.0090 ha        1 13H      0.122000
     36 H11         8.1360   -1.5650    1.5340 ha        1 13H      0.124000
     37 H10         5.8010   -2.3070    3.4630 ha        1 13H      0.139000
     38 H9          7.5470   -3.2930    4.8430 ha        1 13H      0.126000
     39 H18C        9.3480   -3.4750    2.5060 hc        1 13H      0.051200
     40 H28C        9.6490   -1.9050    3.3460 hc        1 13H      0.051200
     41 H17C        9.6690   -4.7010    4.6860 hc        1 13H      0.041200
     42 H27C        9.9760   -3.1300    5.5220 hc        1 13H      0.041200
     43 H16C       11.9230   -2.6930    3.9850 hc        1 13H      0.035200
     44 H26C       11.6160   -4.2640    3.1500 hc        1 13H      0.035200
     45 H15C       12.2670   -3.9150    6.1600 hc        1 13H      0.037700
     46 H25C       11.9560   -5.4850    5.3270 hc        1 13H      0.037700
     47 H14C       13.9020   -5.0580    3.7920 hc        1 13H      0.026700
     48 H24C       14.2080   -3.4820    4.6150 hc        1 13H      0.026700
     49 H13C       14.2370   -6.2580    5.9880 hc        1 13H      0.044200
     50 H23C       14.5780   -4.6810    6.7990 hc        1 13H      0.044200
     51 H12C       16.4840   -4.3040    5.1470 hc        1 13H      0.018700
     52 H22C       16.2110   -5.9800    4.5220 hc        1 13H      0.018700
@<TRIPOS>BOND
     1    1    2 1   
     2    1   22 1   
     3    1   23 1   
     4    1   24 1   
     5    2    3 1   
     6    2   25 1   
     7    2   26 1   
     8    3    4 1   
     9    3   27 1   
    10    3   28 1   
    11    4    5 1   
    12    4   29 1   
    13    4   30 1   
    14    5    6 1   
    15    5   31 1   
    16    5   32 1   
    17    6    7 1   
    18    6    8 1   
    19    6   33 1   
    20    7   34 1   
    21    8    9 2   
    22    8   35 1   
    23    9   10 1   
    24    9   36 1   
    25   10   11 2   
    26   10   37 1   
    27   11   12 1   
    28   11   38 1   
    29   12   13 1   
    30   12   39 1   
    31   12   40 1   
    32   13   14 1   
    33   13   41 1   
    34   13   42 1   
    35   14   15 1   
    36   14   43 1   
    37   14   44 1   
    38   15   16 1   
    39   15   45 1   
    40   15   46 1   
    41   16   17 1   
    42   16   47 1   
    43   16   48 1   
    44   17   18 1   
    45   17   49 1   
    46   17   50 1   
    47   18   19 1   
    48   18   51 1   
    49   18   52 1   
    50   19   20 1   
    51   19   21 1   
@<TRIPOS>SUBSTRUCTURE
     1 13H         1 TEMP              0 ****  ****    0 ROOT
