@<TRIPOS>MOLECULE
13H
   52    51     1     0     0
SMALL
bcc


@<TRIPOS>ATOM
      1 C18        -0.0180    2.2450    3.2270 c3        1 13H     -0.092100
      2 C17         0.5010    1.0330    2.4980 c3        1 13H     -0.079400
      3 C16         2.0120    0.9550    2.5540 c3        1 13H     -0.078400
      4 C15         2.5270   -0.2660    1.8230 c3        1 13H     -0.078400
      5 C14         4.0370   -0.3370    1.8710 c3        1 13H     -0.073400
      6 C13         4.5560   -1.6000    1.1820 c3        1 13H      0.180300
      7 O3          4.1520   -2.7090    1.9800 oh        1 13H     -0.607800
      8 C12         6.0300   -1.5120    0.9560 c2        1 13H     -0.228200
      9 C11         7.0090   -1.8370    1.8110 ce        1 13H     -0.098000
     10 C10         6.8310   -2.3270    3.1610 ce        1 13H     -0.187000
     11 C9          7.8200   -2.8220    3.9210 c2        1 13H     -0.122200
     12 C8          9.2330   -2.9570    3.4980 c3        1 13H     -0.061200
     13 C7         10.0940   -3.6060    4.5630 c3        1 13H     -0.078400
     14 C6         11.5300   -3.7340    4.1020 c3        1 13H     -0.079400
     15 C5         12.3950   -4.3810    5.1620 c3        1 13H     -0.079400
     16 C4         13.8310   -4.5120    4.7020 c3        1 13H     -0.078400
     17 C3         14.6990   -5.1500    5.7660 c3        1 13H     -0.065400
     18 C2         16.1290   -5.3020    5.3090 c3        1 13H     -0.194400
     19 C1         17.0370   -5.7700    6.4600 c         1 13H      0.907600
     20 O1         17.8650   -6.6950    6.2170 o         1 13H     -0.852800
     21 O2         16.9290   -5.2000    7.5850 o         1 13H     -0.852800
     22 H118       -1.1330    2.2830    3.1740 hc        1 13H      0.030700
     23 H218        0.2830    2.2170    4.3030 hc        1 13H      0.030700
     24 H318        0.3890    3.1820    2.7750 hc        1 13H      0.030700
     25 H117        0.1680    1.0660    1.4270 hc        1 13H      0.038200
     26 H217        0.0630    0.1040    2.9510 hc        1 13H      0.038200
     27 H116        2.3460    0.9210    3.6240 hc        1 13H      0.038700
     28 H216        2.4530    1.8810    2.0990 hc        1 13H      0.038700
     29 H115        2.1020   -1.1970    2.2850 hc        1 13H      0.046200
     30 H215        2.1830   -0.2390    0.7550 hc        1 13H      0.046200
     31 H114        4.4820    0.5560    1.3610 hc        1 13H      0.050700
     32 H214        4.3850   -0.3370    2.9370 hc        1 13H      0.050700
     33 H13         4.0460   -1.7130    0.1780 h1        1 13H      0.034700
     34 H3          4.7760   -3.4250    1.8110 ho        1 13H      0.408000
     35 H12         6.2940   -1.1160   -0.0390 ha        1 13H      0.122000
     36 H11         8.0600   -1.7220    1.4840 ha        1 13H      0.124000
     37 H10         5.8040   -2.2650    3.5660 ha        1 13H      0.139000
     38 H9          7.5950   -3.1640    4.9470 ha        1 13H      0.126000
     39 H18C        9.6490   -1.9410    3.2540 hc        1 13H      0.051200
     40 H28C        9.2880   -3.5660    2.5540 hc        1 13H      0.051200
     41 H17C       10.0540   -2.9960    5.5040 hc        1 13H      0.041200
     42 H27C        9.6860   -4.6220    4.8100 hc        1 13H      0.041200
     43 H16C       11.5700   -4.3430    3.1610 hc        1 13H      0.035200
     44 H26C       11.9370   -2.7180    3.8550 hc        1 13H      0.035200
     45 H15C       11.9880   -5.3960    5.4120 hc        1 13H      0.037700
     46 H25C       12.3590   -3.7710    6.1030 hc        1 13H      0.037700
     47 H14C       13.8700   -5.1270    3.7640 hc        1 13H      0.026700
     48 H24C       14.2360   -3.4970    4.4460 hc        1 13H      0.026700
     49 H13C       14.6850   -4.5280    6.7010 hc        1 13H      0.044200
     50 H23C       14.2840   -6.1570    6.0330 hc        1 13H      0.044200
     51 H12C       16.1940   -6.0330    4.4650 hc        1 13H      0.018700
     52 H22C       16.5200   -4.3190    4.9440 hc        1 13H      0.018700
@<TRIPOS>BOND
     1    1    2 1   
     2    1   22 1   
     3    1   23 1   
     4    1   24 1   
     5    2    3 1   
     6    2   25 1   
     7    2   26 1   
     8    3    4 1   
     9    3   27 1   
    10    3   28 1   
    11    4    5 1   
    12    4   29 1   
    13    4   30 1   
    14    5    6 1   
    15    5   31 1   
    16    5   32 1   
    17    6    7 1   
    18    6    8 1   
    19    6   33 1   
    20    7   34 1   
    21    8    9 2   
    22    8   35 1   
    23    9   10 1   
    24    9   36 1   
    25   10   11 2   
    26   10   37 1   
    27   11   12 1   
    28   11   38 1   
    29   12   13 1   
    30   12   39 1   
    31   12   40 1   
    32   13   14 1   
    33   13   41 1   
    34   13   42 1   
    35   14   15 1   
    36   14   43 1   
    37   14   44 1   
    38   15   16 1   
    39   15   45 1   
    40   15   46 1   
    41   16   17 1   
    42   16   47 1   
    43   16   48 1   
    44   17   18 1   
    45   17   49 1   
    46   17   50 1   
    47   18   19 1   
    48   18   51 1   
    49   18   52 1   
    50   19   20 1   
    51   19   21 1   
@<TRIPOS>SUBSTRUCTURE
     1 13H         1 TEMP              0 ****  ****    0 ROOT
