@<TRIPOS>MOLECULE
13H
   52    49     1     0     0
SMALL
bcc


@<TRIPOS>ATOM
      1 C18        -7.3940   -6.2460   -0.6680 c3        1 13H     -0.210000
      2 C17        -6.2320   -5.5020   -1.2880 c3        1 13H     -0.159000
      3 C16        -5.8970   -4.2950   -0.4400 c3        1 13H     -0.158000
      4 C15        -4.5940   -3.6910   -0.9150 c3        1 13H     -0.159000
      5 C14        -4.2800   -2.4580   -0.0950 c3        1 13H     -0.197000
      6 C13        -2.8980   -1.9570   -0.4460 c3        1 13H      0.060000
      7 O3         -1.9370   -2.8910   -0.0140 oh        1 13H     -0.331000
      8 C12        -2.6540   -0.6310    0.2360 c2        1 13H     -0.163000
      9 C11        -1.5660    0.1000   -0.0800 c1        1 13H     -0.122000
     10 C10        -0.5890   -0.4080   -1.1170 c1        1 13H     -0.148500
     11 C9          0.6350    0.1460   -1.2180 c1        1 13H     -0.148500
     12 C8          1.0330    1.2750   -0.2920 c2        1 13H     -0.142000
     13 C7          2.5410    1.3910   -0.2580 c3        1 13H     -0.157000
     14 C6          2.9290    2.7750    0.2120 c3        1 13H     -0.158000
     15 C5          4.3990    2.7920    0.5710 c3        1 13H     -0.157000
     16 C4          4.8630    4.2230    0.7300 c3        1 13H     -0.157000
     17 C3          6.2150    4.2430    1.4100 c3        1 13H     -0.144000
     18 C2          6.8530    5.6020    1.2240 c3        1 13H     -0.223000
     19 C1          8.1080    5.6890    2.0650 c2        1 13H      0.327000
     20 O1          9.2180    5.3540    1.5750 o         1 13H     -0.588000
     21 O2          8.0420    6.1000    3.2530 o         1 13H     -0.588000
     22 H118       -8.1580   -5.6390   -0.5730 hc        1 13H      0.072000
     23 H218       -7.6450   -6.9980   -1.2440 hc        1 13H      0.072000
     24 H318       -7.1330   -6.5840    0.2140 hc        1 13H      0.072000
     25 H117       -6.4750   -5.2100   -2.1890 hc        1 13H      0.076500
     26 H217       -5.4540   -6.0930   -1.3350 hc        1 13H      0.076500
     27 H116       -5.8080   -4.5670    0.4950 hc        1 13H      0.082500
     28 H216       -6.6120   -3.6320   -0.5200 hc        1 13H      0.082500
     29 H115       -3.8740   -4.3440   -0.8090 hc        1 13H      0.074500
     30 H215       -4.6730   -3.4440   -1.8580 hc        1 13H      0.074500
     31 H114       -4.3140   -2.6820    0.8560 hc        1 13H      0.100000
     32 H214       -4.9390   -1.7610   -0.2900 hc        1 13H      0.100000
     33 H13        -2.8290   -1.8430   -1.4150 h1        1 13H      0.079000
     34 H3         -1.7190   -3.4260   -0.6900 ho        1 13H      0.196000
     35 H12        -3.2840   -0.3030    0.9060 ha        1 13H      0.140000
     36 H11        -1.4090    0.9560    0.3610 ha        1 13H      0.128000
     37 H10        -0.8460   -1.1360   -1.7140 ha        1 13H      0.119000
     38 H9          1.2650   -0.1820   -1.8870 ha        1 13H      0.119000
     39 H18C        0.6490    2.1130   -0.6180 ha        1 13H      0.091000
     40 H28C        0.6990    1.0910    0.6080 ha        1 13H      0.091000
     41 H17C        2.9050    0.7230    0.3570 hc        1 13H      0.079500
     42 H27C        2.9000    1.2380   -1.1550 hc        1 13H      0.079500
     43 H16C        2.7610    3.4220   -0.5030 hc        1 13H      0.074500
     44 H26C        2.3990    3.0130    0.9990 hc        1 13H      0.074500
     45 H15C        4.9130    2.3600   -0.1400 hc        1 13H      0.076000
     46 H25C        4.5350    2.3100    1.4110 hc        1 13H      0.076000
     47 H14C        4.2170    4.7170    1.2750 hc        1 13H      0.066000
     48 H24C        4.9340    4.6430   -0.1500 hc        1 13H      0.066000
     49 H13C        6.1020    4.0630    2.3640 hc        1 13H      0.083500
     50 H23C        6.7880    3.5560    1.0140 hc        1 13H      0.083500
     51 H12C        7.0830    5.7280    0.2820 hc        1 13H      0.058000
     52 H22C        6.2250    6.2980    1.5030 hc        1 13H      0.058000
@<TRIPOS>BOND
     1    1    2 1   
     2    1   22 1   
     3    1   23 1   
     4    1   24 1   
     5    2    3 1   
     6    2   25 1   
     7    2   26 1   
     8    3    4 1   
     9    3   27 1   
    10    3   28 1   
    11    4    5 1   
    12    4   29 1   
    13    4   30 1   
    14    5    6 1   
    15    5   31 1   
    16    5   32 1   
    17    6    7 1   
    18    6    8 1   
    19    6   33 1   
    20    7   34 1   
    21    8    9 1   
    22    8   35 1   
    23    9   36 1   
    24   10   11 1   
    25   10   37 1   
    26   11   38 1   
    27   12   13 1   
    28   12   39 1   
    29   12   40 1   
    30   13   14 1   
    31   13   41 1   
    32   13   42 1   
    33   14   15 1   
    34   14   43 1   
    35   14   44 1   
    36   15   16 1   
    37   15   45 1   
    38   15   46 1   
    39   16   17 1   
    40   16   47 1   
    41   16   48 1   
    42   17   18 1   
    43   17   49 1   
    44   17   50 1   
    45   18   19 1   
    46   18   51 1   
    47   18   52 1   
    48   19   20 1   
    49   19   21 1   
@<TRIPOS>SUBSTRUCTURE
     1 13H         1 TEMP              0 ****  ****    0 ROOT
