@<TRIPOS>MOLECULE
13H
   52    51     1     0     0
SMALL
bcc


@<TRIPOS>ATOM
      1 C18        10.0530    2.1760    1.3850 c3        1 13H     -0.092100
      2 C17         8.9250    2.1360    0.3870 c3        1 13H     -0.080400
      3 C16         7.9700    0.9970    0.6720 c3        1 13H     -0.078400
      4 C15         6.8370    0.9660   -0.3310 c3        1 13H     -0.080400
      5 C14         5.8890   -0.1800   -0.0550 c3        1 13H     -0.106400
      6 C13         4.6880   -0.1430   -1.0020 c3        1 13H      0.173300
      7 O3          3.9470    1.0560   -0.8330 oh        1 13H     -0.594800
      8 C12         3.8580   -1.3730   -0.8340 c2        1 13H     -0.223200
      9 C11         2.5200   -1.3740   -0.7700 ce        1 13H     -0.106000
     10 C10         1.7370   -2.5820   -0.6200 ce        1 13H     -0.172000
     11 C9          0.4040   -2.6150   -0.4770 c2        1 13H     -0.125200
     12 C8         -0.4790   -1.4270   -0.4470 c3        1 13H     -0.060200
     13 C7         -1.9200   -1.7920   -0.1490 c3        1 13H     -0.078400
     14 C6         -2.8010   -0.5630   -0.1040 c3        1 13H     -0.079400
     15 C5         -4.2370   -0.9260    0.2070 c3        1 13H     -0.078400
     16 C4         -5.1220    0.3000    0.2630 c3        1 13H     -0.078400
     17 C3         -6.5540   -0.0660    0.5950 c3        1 13H     -0.065400
     18 C2         -7.4500    1.1470    0.6420 c3        1 13H     -0.194400
     19 C1         -8.8500    0.7880    1.1720 c         1 13H      0.907600
     20 O1         -9.8500    1.2550    0.5550 o         1 13H     -0.853300
     21 O2         -8.9360    0.0630    2.2060 o         1 13H     -0.853300
     22 H118        9.6580    2.3140    2.4210 hc        1 13H      0.031367
     23 H218       10.6370    1.2240    1.3590 hc        1 13H      0.031367
     24 H318       10.7460    3.0210    1.1560 hc        1 13H      0.031367
     25 H117        8.3650    3.1080    0.4110 hc        1 13H      0.039700
     26 H217        9.3430    2.0230   -0.6490 hc        1 13H      0.039700
     27 H116        8.5260    0.0240    0.6430 hc        1 13H      0.037700
     28 H216        7.5530    1.1090    1.7080 hc        1 13H      0.037700
     29 H115        6.2650    1.9320   -0.2940 hc        1 13H      0.048200
     30 H215        7.2530    0.8690   -1.3680 hc        1 13H      0.048200
     31 H114        6.4250   -1.1570   -0.1810 hc        1 13H      0.045200
     32 H214        5.5260   -0.1270    1.0040 hc        1 13H      0.045200
     33 H13         5.0470   -0.0810   -2.0720 h1        1 13H      0.078700
     34 H3          3.5840    1.0460    0.0610 ho        1 13H      0.400000
     35 H12         4.4360   -2.3100   -0.7830 ha        1 13H      0.123000
     36 H11         1.9550   -0.4260   -0.8360 ha        1 13H      0.134000
     37 H10         2.3080   -3.5280   -0.6280 ha        1 13H      0.117000
     38 H9         -0.1060   -3.5880   -0.3720 ha        1 13H      0.123000
     39 H18C       -0.1130   -0.7000    0.3290 hc        1 13H      0.052700
     40 H28C       -0.4260   -0.8970   -1.4380 hc        1 13H      0.052700
     41 H17C       -2.3000   -2.4980   -0.9340 hc        1 13H      0.040200
     42 H27C       -1.9760   -2.3290    0.8340 hc        1 13H      0.040200
     43 H16C       -2.4170    0.1480    0.6750 hc        1 13H      0.035700
     44 H26C       -2.7530   -0.0290   -1.0900 hc        1 13H      0.035700
     45 H15C       -4.6240   -1.6330   -0.5740 hc        1 13H      0.036700
     46 H25C       -4.2840   -1.4650    1.1900 hc        1 13H      0.036700
     47 H14C       -4.7290    1.0120    1.0350 hc        1 13H      0.026700
     48 H24C       -5.0880    0.8330   -0.7240 hc        1 13H      0.026700
     49 H13C       -6.9430   -0.7880   -0.1710 hc        1 13H      0.044200
     50 H23C       -6.5990   -0.5840    1.5900 hc        1 13H      0.044200
     51 H12C       -7.0130    1.9190    1.3250 hc        1 13H      0.018700
     52 H22C       -7.5450    1.6020   -0.3760 hc        1 13H      0.018700
@<TRIPOS>BOND
     1    1    2 1   
     2    1   22 1   
     3    1   23 1   
     4    1   24 1   
     5    2    3 1   
     6    2   25 1   
     7    2   26 1   
     8    3    4 1   
     9    3   27 1   
    10    3   28 1   
    11    4    5 1   
    12    4   29 1   
    13    4   30 1   
    14    5    6 1   
    15    5   31 1   
    16    5   32 1   
    17    6    7 1   
    18    6    8 1   
    19    6   33 1   
    20    7   34 1   
    21    8    9 2   
    22    8   35 1   
    23    9   10 1   
    24    9   36 1   
    25   10   11 2   
    26   10   37 1   
    27   11   12 1   
    28   11   38 1   
    29   12   13 1   
    30   12   39 1   
    31   12   40 1   
    32   13   14 1   
    33   13   41 1   
    34   13   42 1   
    35   14   15 1   
    36   14   43 1   
    37   14   44 1   
    38   15   16 1   
    39   15   45 1   
    40   15   46 1   
    41   16   17 1   
    42   16   47 1   
    43   16   48 1   
    44   17   18 1   
    45   17   49 1   
    46   17   50 1   
    47   18   19 1   
    48   18   51 1   
    49   18   52 1   
    50   19   20 1   
    51   19   21 1   
@<TRIPOS>SUBSTRUCTURE
     1 13H         1 TEMP              0 ****  ****    0 ROOT
