@<TRIPOS>MOLECULE
13I
   55    56     1     0     0
SMALL
bcc


@<TRIPOS>ATOM
      1 C01        -0.0150   -0.5610    0.0770 ca        1 13I      0.206100
      2 C02         1.3640   -0.5120   -0.1080 ca        1 13I     -0.240000
      3 C03         2.1850   -0.2700    1.0060 ca        1 13I      0.240100
      4 C04         1.6220   -0.0790    2.2920 ca        1 13I     -0.107600
      5 C05         0.2350   -0.1450    2.4730 ca        1 13I      0.091700
      6 C06        -0.5920   -0.3990    1.3550 ca        1 13I     -0.258600
      7 C07        -2.0430   -0.5370    1.5310 c         1 13I      0.614700
      8 O08        -2.6460   -1.3030    2.2700 o         1 13I     -0.441100
      9 N09        -2.8790    0.4130    0.6990 n4        1 13I     -0.670800
     10 C10        -4.2600   -0.0680    0.4050 c3        1 13I      0.120800
     11 C11        -5.2580    0.2070    1.5260 c3        1 13I     -0.068200
     12 C12        -5.3070    1.6410    1.8930 c2        1 13I     -0.246200
     13 C13        -5.4420    2.1190    3.1340 c2        1 13I     -0.096200
     14 C14        -5.5590    1.3170    4.3780 c3        1 13I     -0.065200
     15 C15        -4.2240    0.7950    4.8740 c3        1 13I     -0.073400
     16 C16        -3.2950    1.9060    5.3210 c3        1 13I     -0.081400
     17 C17        -1.8500    1.4280    5.3430 c3        1 13I     -0.156700
     18 C18        -1.3620    1.1530    3.9390 c         1 13I      0.630100
     19 C19        -0.3690    0.0260    3.8240 c3        1 13I     -0.191100
     20 O20        -1.7860    1.7640    2.9500 o         1 13I     -0.589100
     21 C21        -0.9490    2.4590    6.0480 c3        1 13I      0.346900
     22 O22        -0.5970    3.4690    5.1310 oh        1 13I     -0.615800
     23 O23         0.2740    1.8260    6.3860 os        1 13I     -0.472600
     24 C24         0.8060    2.2310    7.6530 c3        1 13I      0.130400
     25 C25         2.1320    1.5260    7.8160 c3        1 13I     -0.100100
     26 CL          2.6660    0.2260    3.5960 cl        1 13I     -0.037400
     27 O27         3.5190   -0.2330    0.7420 oh        1 13I     -0.458100
     28 O28        -0.8810   -0.7650   -0.9710 oh        1 13I     -0.538100
     29 H02         1.8230   -0.6570   -1.0980 ha        1 13I      0.185000
     30 H28        -0.3680   -0.9820   -1.7670 ho        1 13I      0.468000
     31 H27         4.0120   -0.0600    1.5650 ho        1 13I      0.456000
     32 H191       -0.8970   -0.9310    4.1060 hc        1 13I      0.124700
     33 H192        0.4230    0.2080    4.6090 hc        1 13I      0.124700
     34 H09        -2.3850    0.5900   -0.1840 hn        1 13I      0.479800
     35 H101       -4.5960    0.4540   -0.5370 hx        1 13I      0.099200
     36 H102       -4.2090   -1.1780    0.2120 hx        1 13I      0.099200
     37 H111       -6.2690   -0.1170    1.1470 hc        1 13I      0.089700
     38 H112       -5.0130   -0.4350    2.4150 hc        1 13I      0.089700
     39 H12        -5.2820    2.3410    1.0400 ha        1 13I      0.126000
     40 H13        -5.4870    3.2140    3.2840 ha        1 13I      0.140000
     41 H141       -6.0280    1.9480    5.1810 hc        1 13I      0.064200
     42 H142       -6.2450    0.4430    4.2030 hc        1 13I      0.064200
     43 H151       -3.7340    0.1990    4.0560 hc        1 13I      0.040700
     44 H152       -4.4060    0.0920    5.7300 hc        1 13I      0.040700
     45 H161       -3.5910    2.2560    6.3440 hc        1 13I      0.070200
     46 H162       -3.3730    2.7840    4.6250 hc        1 13I      0.070200
     47 H17        -1.7790    0.4740    5.9410 hc        1 13I      0.089700
     48 H21        -1.4740    2.8930    6.9460 h2        1 13I      0.061700
     49 H22         0.1970    3.9100    5.4630 ho        1 13I      0.428000
     50 H241        0.9350    3.3460    7.6590 h1        1 13I      0.036700
     51 H242        0.0870    1.9380    8.4630 h1        1 13I      0.036700
     52 H251        2.8350    1.8200    7.0000 hc        1 13I      0.053033
     53 H252        2.5770    1.8080    8.8000 hc        1 13I      0.053033
     54 H253        1.9930    0.4190    7.7820 hc        1 13I      0.053033
     55 H092       -2.9360    1.3030    1.2290 hn        1 13I      0.479800
@<TRIPOS>BOND
     1    1    2 ar  
     2    1    6 ar  
     3    1   28 1   
     4    2    3 ar  
     5    2   29 1   
     6    3    4 ar  
     7    3   27 1   
     8    4    5 ar  
     9    4   26 1   
    10    5    6 ar  
    11    5   19 1   
    12    6    7 1   
    13    7    8 2   
    14    7    9 1   
    15    9   10 1   
    16    9   34 1   
    17    9   55 1   
    18   10   11 1   
    19   10   35 1   
    20   10   36 1   
    21   11   12 1   
    22   11   37 1   
    23   11   38 1   
    24   12   13 2   
    25   12   39 1   
    26   13   14 1   
    27   13   40 1   
    28   14   15 1   
    29   14   41 1   
    30   14   42 1   
    31   15   16 1   
    32   15   43 1   
    33   15   44 1   
    34   16   17 1   
    35   16   45 1   
    36   16   46 1   
    37   17   18 1   
    38   17   21 1   
    39   17   47 1   
    40   18   19 1   
    41   18   20 2   
    42   19   32 1   
    43   19   33 1   
    44   21   22 1   
    45   21   23 1   
    46   21   48 1   
    47   22   49 1   
    48   23   24 1   
    49   24   25 1   
    50   24   50 1   
    51   24   51 1   
    52   25   52 1   
    53   25   53 1   
    54   25   54 1   
    55   27   31 1   
    56   28   30 1   
@<TRIPOS>SUBSTRUCTURE
     1 13I         1 TEMP              0 ****  ****    0 ROOT
