@<TRIPOS>MOLECULE
13I
   54    51     1     0     0
SMALL
bcc


@<TRIPOS>ATOM
      1 C01         1.4880    1.9920   -2.8850 c1        1 13I      0.141000
      2 C02         2.8760    1.9970   -2.8620 c1        1 13I     -0.249000
      3 C03         3.5530    1.8780   -1.6520 c1        1 13I      0.153000
      4 C04         2.8400    1.7540   -0.4640 c1        1 13I     -0.196000
      5 C05         1.4530    1.7490   -0.4830 c1        1 13I      0.064000
      6 C06         0.7730    1.8680   -1.6950 c1        1 13I     -0.174000
      7 C07        -0.7560    2.0500   -1.6990 c2        1 13I      0.364000
      8 O08        -1.2400    3.1230   -2.0080 o         1 13I     -0.368000
      9 N09        -1.3980    0.8110   -2.1200 n         1 13I     -0.362000
     10 C10        -2.6140    1.1220   -2.9030 c3        1 13I     -0.022000
     11 C11        -3.8940    0.6290   -2.1100 c3        1 13I     -0.148000
     12 C12        -3.9820    1.3650   -0.7770 c2        1 13I     -0.160000
     13 C13        -3.7100    0.5920    0.5660 c1        1 13I     -0.163000
     14 C14        -3.4820   -0.9610    0.5430 c2        1 13I     -0.130000
     15 C15        -1.9810   -1.2700    0.1860 c3        1 13I     -0.147000
     16 C16        -1.0610   -1.0160    1.4690 c3        1 13I     -0.150000
     17 C17         0.3850   -0.7030    1.0110 c3        1 13I     -0.190000
     18 C18         0.9030    0.4680    1.7560 c2        1 13I      0.245000
     19 C19         0.6400    1.8130    0.8940 c3        1 13I     -0.199000
     20 O20         0.8260    0.4990    2.9640 o         1 13I     -0.290000
     21 C21         1.2820   -1.9190    1.2770 c3        1 13I      0.167000
     22 O22         0.7520   -3.0280    0.6460 oh        1 13I     -0.341000
     23 O23         1.3570   -2.1610    2.6830 os        1 13I     -0.314000
     24 C24         2.5000   -2.9500    3.0820 c3        1 13I     -0.018000
     25 C25         2.2680   -3.5110    4.4840 c3        1 13I     -0.215000
     26 CL          3.6850    1.7100    1.0550 cl        1 13I      0.005000
     27 O27         4.9600    1.8160   -1.6370 oh        1 13I     -0.237000
     28 O28         0.8030    2.1100   -4.1110 oh        1 13I     -0.251000
     29 H02         3.3760    2.0840   -3.6940 ha        1 13I      0.164000
     30 H28         1.3180    2.5350   -4.6980 ho        1 13I      0.233000
     31 H27         5.2970    2.6480   -1.5700 ho        1 13I      0.238000
     32 H191       -0.3120    1.8940    0.7040 hc        1 13I      0.145500
     33 H192        0.9380    2.6000    1.4150 hc        1 13I      0.145500
     34 H09        -0.8900    0.0830   -2.3350 hn        1 13I      0.228000
     35 H101       -2.5700    0.6630   -3.7690 h1        1 13I      0.098500
     36 H102       -2.6700    2.0910   -3.0480 h1        1 13I      0.098500
     37 H111       -3.8250   -0.3280   -1.9480 hc        1 13I      0.090500
     38 H112       -4.7070    0.8160   -2.6440 hc        1 13I      0.090500
     39 H12        -4.1250    2.3380   -0.7620 ha        1 13I      0.123000
     40 H13        -3.7670    1.0650    1.4220 ha        1 13I      0.120000
     41 H141       -4.0680   -1.3660   -0.1300 ha        1 13I      0.085000
     42 H142       -3.6920   -1.3370    1.4300 ha        1 13I      0.085000
     43 H151       -1.9000   -2.2050   -0.0930 hc        1 13I      0.078500
     44 H152       -1.6940   -0.6910   -0.5380 hc        1 13I      0.078500
     45 H161       -1.0600   -1.8170    2.0340 hc        1 13I      0.103000
     46 H162       -1.4140   -0.2580    1.9790 hc        1 13I      0.103000
     47 H17         0.3860   -0.5040    0.0620 hc        1 13I      0.124000
     48 H21         2.1780   -1.7440    0.9290 h2        1 13I      0.120000
     49 H22         1.3850   -3.4220    0.1540 ho        1 13I      0.219000
     50 H241        2.6230   -3.6910    2.4500 h1        1 13I      0.082000
     51 H242        3.3030   -2.3850    3.0840 h1        1 13I      0.082000
     52 H251        1.4950   -4.1090    4.4720 hc        1 13I      0.084000
     53 H252        3.0680   -4.0120    4.7760 hc        1 13I      0.084000
     54 H253        2.1000   -2.7740    5.1070 hc        1 13I      0.084000
@<TRIPOS>BOND
     1    1    6 1   
     2    1   28 1   
     3    2    3 1   
     4    2   29 1   
     5    3   27 1   
     6    4    5 1   
     7    4   26 1   
     8    5   19 1   
     9    6    7 1   
    10    7    8 1   
    11    7    9 1   
    12    9   10 1   
    13    9   34 1   
    14   10   11 1   
    15   10   35 1   
    16   10   36 1   
    17   11   12 1   
    18   11   37 1   
    19   11   38 1   
    20   12   13 1   
    21   12   39 1   
    22   13   40 1   
    23   14   15 1   
    24   14   41 1   
    25   14   42 1   
    26   15   16 1   
    27   15   43 1   
    28   15   44 1   
    29   16   17 1   
    30   16   45 1   
    31   16   46 1   
    32   17   18 1   
    33   17   21 1   
    34   17   47 1   
    35   18   19 1   
    36   18   20 1   
    37   19   32 1   
    38   19   33 1   
    39   21   22 1   
    40   21   23 1   
    41   21   48 1   
    42   22   49 1   
    43   23   24 1   
    44   24   25 1   
    45   24   50 1   
    46   24   51 1   
    47   25   52 1   
    48   25   53 1   
    49   25   54 1   
    50   27   31 1   
    51   28   30 1   
@<TRIPOS>SUBSTRUCTURE
     1 13I         1 TEMP              0 ****  ****    0 ROOT
