@<TRIPOS>MOLECULE
13I
   55    56     1     0     0
SMALL
bcc


@<TRIPOS>ATOM
      1 C01         0.0190   -0.3220    0.0730 ca        1 13I      0.212100
      2 C02         1.4030   -0.1860   -0.0370 ca        1 13I     -0.298000
      3 C03         2.1540    0.0550    1.1220 ca        1 13I      0.236100
      4 C04         1.5240    0.1680    2.3900 ca        1 13I     -0.042600
      5 C05         0.1360    0.0160    2.4910 ca        1 13I      0.075700
      6 C06        -0.6210   -0.2490    1.3250 ca        1 13I     -0.255600
      7 C07        -2.0640   -0.4950    1.4310 c         1 13I      0.614700
      8 O08        -2.6380   -1.3400    2.1050 o         1 13I     -0.441100
      9 N09        -2.9320    0.4400    0.6150 ny        1 13I     -0.669800
     10 C10        -4.2510   -0.1310    0.2160 c3        1 13I      0.120800
     11 C11        -5.2930   -0.0930    1.3300 c3        1 13I     -0.069200
     12 C12        -5.4920    1.2740    1.8650 c2        1 13I     -0.253200
     13 C13        -5.2880    1.6400    3.1350 c2        1 13I     -0.101200
     14 C14        -4.7840    0.7500    4.2090 c3        1 13I     -0.062200
     15 C15        -4.4400    1.4870    5.4870 c3        1 13I     -0.083400
     16 C16        -3.2370    2.4010    5.3720 c3        1 13I     -0.082400
     17 C17        -1.9110    1.6530    5.3270 c3        1 13I     -0.156700
     18 C18        -1.5200    1.2740    3.9170 c         1 13I      0.636100
     19 C19        -0.5530    0.1210    3.8100 c3        1 13I     -0.190100
     20 O20        -1.9960    1.8250    2.9160 o         1 13I     -0.600100
     21 C21        -0.7920    2.4900    5.9860 c3        1 13I      0.345900
     22 O22        -0.1350    3.2400    4.9920 oh        1 13I     -0.620800
     23 O23         0.1940    1.6000    6.4820 os        1 13I     -0.472600
     24 C24         0.7650    2.0020    7.7340 c3        1 13I      0.131400
     25 C25         1.8230    0.9820    8.0780 c3        1 13I     -0.100100
     26 Cl          2.4680    0.4800    3.7600 cl        1 13I     -0.010400
     27 O27         3.5080    0.1960    1.0770 oh        1 13I     -0.449100
     28 O28        -0.7850   -0.5280   -1.0230 oh        1 13I     -0.537100
     29 H02         1.8970   -0.2660   -1.0160 ha        1 13I      0.166000
     30 H28        -0.2250   -0.6870   -1.8000 ho        1 13I      0.464000
     31 H27         3.8080    0.0920    0.1580 ho        1 13I      0.447000
     32 H191        0.1970    0.2280    4.6490 hc        1 13I      0.124700
     33 H192       -1.1270   -0.8310    4.0030 hc        1 13I      0.124700
     34 H09        -3.0910    1.2840    1.1970 hn        1 13I      0.479300
     35 H101       -4.6170    0.4730   -0.6640 hx        1 13I      0.098200
     36 H102       -4.0850   -1.1970   -0.1090 hx        1 13I      0.098200
     37 H111       -5.0060   -0.8150    2.1420 hc        1 13I      0.089700
     38 H112       -6.2600   -0.4620    0.8830 hc        1 13I      0.089700
     39 H12        -5.8910    2.0030    1.1380 ha        1 13I      0.135000
     40 H13        -5.5080    2.6790    3.4440 ha        1 13I      0.144000
     41 H141       -3.8740    0.1940    3.8440 hc        1 13I      0.053700
     42 H142       -5.5710   -0.0210    4.4390 hc        1 13I      0.053700
     43 H151       -4.2630    0.7320    6.3000 hc        1 13I      0.057700
     44 H152       -5.3240    2.1050    5.8010 hc        1 13I      0.057700
     45 H161       -3.2420    3.0880    6.2620 hc        1 13I      0.068200
     46 H162       -3.3320    3.0460    4.4570 hc        1 13I      0.068200
     47 H17        -1.9950    0.7020    5.9290 hc        1 13I      0.095700
     48 H21        -1.2070    3.1600    6.7900 h2        1 13I      0.062700
     49 H22         0.7250    3.5110    5.3400 ho        1 13I      0.429000
     50 H241       -0.0420    2.0290    8.5140 h1        1 13I      0.036200
     51 H242        1.2080    3.0270    7.6240 h1        1 13I      0.036200
     52 H251        1.3730   -0.0360    8.1630 hc        1 13I      0.053700
     53 H252        2.6120    0.9530    7.2890 hc        1 13I      0.053700
     54 H253        2.2920    1.2560    9.0530 hc        1 13I      0.053700
     55 H092       -2.4100    0.7140   -0.2260 hn        1 13I      0.479300
@<TRIPOS>BOND
     1    1    2 ar  
     2    1    6 ar  
     3    1   28 1   
     4    2    3 ar  
     5    2   29 1   
     6    3    4 ar  
     7    3   27 1   
     8    4    5 ar  
     9    4   26 1   
    10    5    6 ar  
    11    5   19 1   
    12    6    7 1   
    13    7    8 2   
    14    7    9 1   
    15    9   10 1   
    16    9   34 1   
    17    9   55 1   
    18   10   11 1   
    19   10   35 1   
    20   10   36 1   
    21   11   12 1   
    22   11   37 1   
    23   11   38 1   
    24   12   13 2   
    25   12   39 1   
    26   13   14 1   
    27   13   40 1   
    28   14   15 1   
    29   14   41 1   
    30   14   42 1   
    31   15   16 1   
    32   15   43 1   
    33   15   44 1   
    34   16   17 1   
    35   16   45 1   
    36   16   46 1   
    37   17   18 1   
    38   17   21 1   
    39   17   47 1   
    40   18   19 1   
    41   18   20 2   
    42   19   32 1   
    43   19   33 1   
    44   21   22 1   
    45   21   23 1   
    46   21   48 1   
    47   22   49 1   
    48   23   24 1   
    49   24   25 1   
    50   24   50 1   
    51   24   51 1   
    52   25   52 1   
    53   25   53 1   
    54   25   54 1   
    55   27   31 1   
    56   28   30 1   
@<TRIPOS>SUBSTRUCTURE
     1 13I         1 TEMP              0 ****  ****    0 ROOT
