@<TRIPOS>MOLECULE
13I
   54    55     1     0     0
SMALL
bcc


@<TRIPOS>ATOM
      1 C01         0.6480   -3.6790    0.6150 ca        1 13I      0.184100
      2 C02        -0.5470   -4.4000    0.5490 ca        1 13I     -0.246000
      3 C03        -1.7000   -3.7480    0.0910 ca        1 13I      0.193100
      4 C04        -1.6500   -2.3980   -0.3140 ca        1 13I     -0.096600
      5 C05        -0.4480   -1.6780   -0.2220 ca        1 13I      0.058700
      6 C06         0.7050   -2.3180    0.2560 ca        1 13I     -0.193600
      7 C07         1.9850   -1.5690    0.4470 c         1 13I      0.686700
      8 O08         2.0930   -0.6490    1.2810 o         1 13I     -0.599100
      9 N09         3.0380   -1.9370   -0.3670 n         1 13I     -0.556900
     10 C10         4.3700   -1.4300   -0.1750 c3        1 13I      0.098000
     11 C11         4.6930   -0.1380   -0.9340 c3        1 13I     -0.063200
     12 C12         4.0810    1.0530   -0.2990 c2        1 13I     -0.163200
     13 C13         3.7890    2.1780   -0.9580 c2        1 13I     -0.183200
     14 C14         3.1900    3.3710   -0.3070 c3        1 13I     -0.045200
     15 C15         1.6860    3.4310   -0.5160 c3        1 13I     -0.071400
     16 C16         0.9630    2.4660    0.4020 c3        1 13I     -0.088400
     17 C17        -0.4550    2.1760   -0.0740 c3        1 13I     -0.185700
     18 C18        -0.8460    0.7660    0.3160 c         1 13I      0.605100
     19 C19        -0.3730   -0.2630   -0.6810 c3        1 13I     -0.154100
     20 O20        -1.4820    0.4960    1.3350 o         1 13I     -0.517100
     21 C21        -1.4170    3.2490    0.4620 c3        1 13I      0.346900
     22 O22        -1.5880    3.2670    1.8500 oh        1 13I     -0.625800
     23 O23        -2.6940    2.9760   -0.0960 os        1 13I     -0.464600
     24 C24        -3.6330    4.0370    0.0890 c3        1 13I      0.135400
     25 C25        -4.9610    3.5420   -0.4330 c3        1 13I     -0.097100
     26 CL         -3.0650   -1.6580   -0.9050 cl        1 13I     -0.077400
     27 O27        -2.8340   -4.5170    0.0530 oh        1 13I     -0.486100
     28 O28         1.8240   -4.2690    1.0120 oh        1 13I     -0.497100
     29 H02        -0.6020   -5.4550    0.8500 ha        1 13I      0.162000
     30 H28         1.6170   -5.1500    1.3610 ho        1 13I      0.432000
     31 H27        -3.5800   -3.9570   -0.2180 ho        1 13I      0.438000
     32 H191        0.6910   -0.0120   -0.9530 hc        1 13I      0.090200
     33 H192       -0.9930   -0.1350   -1.6130 hc        1 13I      0.090200
     34 H09         2.9370   -2.7560   -0.9190 hn        1 13I      0.313500
     35 H101        4.5390   -1.2460    0.9270 h1        1 13I      0.052200
     36 H102        5.0950   -2.2250   -0.5160 h1        1 13I      0.052200
     37 H111        5.8120   -0.0180   -0.9200 hc        1 13I      0.051700
     38 H112        4.3810   -0.2240   -2.0080 hc        1 13I      0.051700
     39 H12         3.8660    0.9550    0.7810 ha        1 13I      0.147000
     40 H13         3.9740    2.2760   -2.0400 ha        1 13I      0.114000
     41 H141        3.4110    3.3730    0.7930 hc        1 13I      0.047700
     42 H142        3.6550    4.2960   -0.7430 hc        1 13I      0.047700
     43 H151        1.3260    4.4750   -0.3190 hc        1 13I      0.038200
     44 H152        1.4540    3.1960   -1.5890 hc        1 13I      0.038200
     45 H161        1.5470    1.5040    0.4620 hc        1 13I      0.075700
     46 H162        0.9210    2.8860    1.4430 hc        1 13I      0.075700
     47 H17        -0.5030    2.2400   -1.1990 hc        1 13I      0.077700
     48 H21        -1.0460    4.2780    0.1880 h2        1 13I      0.071700
     49 H22        -1.9130    2.4000    2.1350 ho        1 13I      0.440000
     50 H241       -3.6940    4.2950    1.1800 h1        1 13I      0.033700
     51 H242       -3.2820    4.9380   -0.4820 h1        1 13I      0.033700
     52 H251       -5.7270    4.3450   -0.3120 hc        1 13I      0.043700
     53 H252       -4.8810    3.2730   -1.5130 hc        1 13I      0.043700
     54 H253       -5.2870    2.6360    0.1310 hc        1 13I      0.043700
@<TRIPOS>BOND
     1    1    2 ar  
     2    1    6 ar  
     3    1   28 1   
     4    2    3 ar  
     5    2   29 1   
     6    3    4 ar  
     7    3   27 1   
     8    4    5 ar  
     9    4   26 1   
    10    5    6 ar  
    11    5   19 1   
    12    6    7 1   
    13    7    8 2   
    14    7    9 1   
    15    9   10 1   
    16    9   34 1   
    17   10   11 1   
    18   10   35 1   
    19   10   36 1   
    20   11   12 1   
    21   11   37 1   
    22   11   38 1   
    23   12   13 2   
    24   12   39 1   
    25   13   14 1   
    26   13   40 1   
    27   14   15 1   
    28   14   41 1   
    29   14   42 1   
    30   15   16 1   
    31   15   43 1   
    32   15   44 1   
    33   16   17 1   
    34   16   45 1   
    35   16   46 1   
    36   17   18 1   
    37   17   21 1   
    38   17   47 1   
    39   18   19 1   
    40   18   20 2   
    41   19   32 1   
    42   19   33 1   
    43   21   22 1   
    44   21   23 1   
    45   21   48 1   
    46   22   49 1   
    47   23   24 1   
    48   24   25 1   
    49   24   50 1   
    50   24   51 1   
    51   25   52 1   
    52   25   53 1   
    53   25   54 1   
    54   27   31 1   
    55   28   30 1   
@<TRIPOS>SUBSTRUCTURE
     1 13I         1 TEMP              0 ****  ****    0 ROOT
