@<TRIPOS>MOLECULE
13J
   71    62     1     0     0
SMALL
bcc


@<TRIPOS>ATOM
      1 C4         -6.2270   -0.5590    4.1290 c1        1 13J     -0.103000
      2 C7         -4.2610    1.1080    5.1830 c1        1 13J     -0.183000
      3 C6         -5.3250    0.0780    3.2800 c1        1 13J     -0.151000
      4 C9          5.2550   -1.8970   -0.3070 c1        1 13J      0.034000
      5 C13        -6.1450   -0.3620    5.5050 c1        1 13J     -0.091000
      6 C20         1.7900   -1.8270   -5.7290 c3        1 13J     -0.184000
      7 C21         1.6920   -1.4830   -4.2820 c3        1 13J     -0.168000
      8 C8         -0.2490    0.5860    1.0310 c1        1 13J     -0.052000
      9 C18        -2.2590    0.7430    2.4580 c1        1 13J      0.352000
     10 C16         3.4760   -0.8150   -1.4360 c1        1 13J      0.081000
     11 C19         4.4800    0.3930   -6.9130 c1        1 13J      0.295000
     12 C26        -6.8060   -2.3040    6.9520 c3        1 13J     -0.206000
     13 C1          0.5180    3.2250    1.4820 c1        1 13J     -0.120500
     14 C2          1.2420    2.4300    0.5960 c1        1 13J     -0.103000
     15 C3         -0.5900    2.6990    2.1420 c1        1 13J     -0.120500
     16 C5         -5.1620    0.4720    6.0320 c2        1 13J     -0.099000
     17 C10         2.9110   -0.5080   -0.2470 c1        1 13J     -0.278000
     18 C11         0.8590    1.1110    0.3700 c1        1 13J     -0.027000
     19 C12        -0.9740    1.3810    1.9170 c1        1 13J     -0.129000
     20 C14        -4.3420    0.9110    3.8060 c1        1 13J      0.071000
     21 C15         1.7340    0.1980   -0.5010 c1        1 13J     -0.040000
     22 C17         3.5260   -0.9000    0.9350 c1        1 13J      0.234000
     23 C22         2.1580   -0.6210   -6.5860 c3        1 13J     -0.043000
     24 C23         3.2670    0.4270   -4.6650 c3        1 13J     -0.046000
     25 C24         2.9090   -0.7710   -3.7920 c3        1 13J      0.029000
     26 C25         6.7120    1.4060   -7.4190 c3        1 13J     -0.205000
     27 C27        -8.0990   -0.1620    7.0660 c3        1 13J     -0.206000
     28 C28         5.6450    1.2060   -6.3370 c2        1 13J     -0.177000
     29 C29        -7.3300   -1.1120    6.1400 c2        1 13J     -0.067000
     30 N30         4.6510   -1.5110   -1.4720 n1        1 13J     -0.214000
     31 N31         4.6840   -1.5860    0.8960 n2        1 13J     -0.268000
     32 N32         1.5970    0.3130   -1.8420 n2        1 13J     -0.027000
     33 N33         2.6700   -0.3110   -2.4340 n2        1 13J     -0.133000
     34 N34         3.3410    0.0770   -6.0830 n3        1 13J     -0.318000
     35 N35         3.6290   -1.2170    2.3280 n2        1 13J     -0.350000
     36 N36        -3.0860    1.4690    3.3800 n2        1 13J     -0.322000
     37 O37        -2.6210   -0.3420    2.0410 o         1 13J     -0.337000
     38 O38         4.4830    0.0750   -8.0890 o         1 13J     -0.359000
     39 H1         -6.9190   -1.1460    3.7580 ha        1 13J      0.135000
     40 H2         -3.5690    1.6950    5.5540 ha        1 13J      0.126000
     41 H3         -5.3830   -0.0610    2.3100 ha        1 13J      0.172000
     42 H4          6.1000   -2.3970   -0.3340 ha        1 13J      0.192000
     43 H5          2.4770   -2.5210   -5.8460 hc        1 13J      0.096000
     44 H6          0.9230   -2.1820   -6.0330 hc        1 13J      0.096000
     45 H7          1.5750   -2.3110   -3.7640 hc        1 13J      0.102000
     46 H8          0.9080   -0.9060   -4.1440 hc        1 13J      0.102000
     47 H9         -0.5200   -0.3430    0.8730 ha        1 13J      0.169000
     48 H10        -6.3240   -1.9750    7.7420 hc        1 13J      0.075333
     49 H11        -7.5630   -2.8630    7.2390 hc        1 13J      0.075333
     50 H12        -6.1970   -2.8370    6.3950 hc        1 13J      0.075333
     51 H13         0.7880    4.1550    1.6410 ha        1 13J      0.142000
     52 H14         2.0220    2.8010    0.1310 ha        1 13J      0.151000
     53 H15        -1.1000    3.2580    2.7660 ha        1 13J      0.142000
     54 H16        -5.1050    0.6100    7.0020 ha        1 13J      0.133000
     55 H17         1.3990    0.0060   -6.5960 h1        1 13J      0.109500
     56 H18         2.3340   -0.9240   -7.5040 h1        1 13J      0.109500
     57 H19         2.5830    1.1250   -4.5440 h1        1 13J      0.106500
     58 H20         4.1370    0.7810   -4.3780 h1        1 13J      0.106500
     59 H21         3.6650   -1.3990   -3.7870 h1        1 13J      0.133000
     60 H22         7.4390    1.9650   -7.0630 hc        1 13J      0.085667
     61 H23         6.3100    1.8480   -8.1990 hc        1 13J      0.085667
     62 H24         7.0740    0.5320   -7.6880 hc        1 13J      0.085667
     63 H25        -7.5940   -0.0350    7.8980 hc        1 13J      0.075333
     64 H26        -8.9800   -0.5470    7.2730 hc        1 13J      0.075333
     65 H27        -8.2180    0.7050    6.6190 hc        1 13J      0.075333
     66 H28         6.0360    0.7230   -5.5770 ha        1 13J      0.105000
     67 H29         5.3160    2.0810   -6.0360 ha        1 13J      0.105000
     68 H30        -7.9300   -1.4360    5.4330 ha        1 13J      0.091000
     69 H31         4.3750   -0.9670    2.8010 hn        1 13J      0.233500
     70 H32         2.9570   -1.6820    2.7430 hn        1 13J      0.233500
     71 H33        -2.7660    2.2230    3.7790 hn        1 13J      0.230000
@<TRIPOS>BOND
     1    1    5 1   
     2    1   39 1   
     3    2   16 1   
     4    2   40 1   
     5    3   20 1   
     6    3   41 1   
     7    4   31 1   
     8    4   42 1   
     9    5   16 1   
    10    6    7 1   
    11    6   23 1   
    12    6   43 1   
    13    6   44 1   
    14    7   25 1   
    15    7   45 1   
    16    7   46 1   
    17    8   19 1   
    18    8   47 1   
    19    9   19 1   
    20    9   37 1   
    21   10   30 1   
    22   11   34 1   
    23   11   38 1   
    24   12   29 1   
    25   12   48 1   
    26   12   49 1   
    27   12   50 1   
    28   13   15 1   
    29   13   51 1   
    30   14   18 1   
    31   14   52 1   
    32   15   53 1   
    33   16   54 1   
    34   17   22 1   
    35   18   21 1   
    36   20   36 1   
    37   21   32 1   
    38   22   31 1   
    39   23   34 1   
    40   23   55 1   
    41   23   56 1   
    42   24   25 1   
    43   24   34 1   
    44   24   57 1   
    45   24   58 1   
    46   25   33 1   
    47   25   59 1   
    48   26   28 1   
    49   26   60 1   
    50   26   61 1   
    51   26   62 1   
    52   27   29 1   
    53   27   63 1   
    54   27   64 1   
    55   27   65 1   
    56   28   66 1   
    57   28   67 1   
    58   29   68 1   
    59   32   33 1   
    60   35   69 1   
    61   35   70 1   
    62   36   71 1   
@<TRIPOS>SUBSTRUCTURE
     1 13J         1 TEMP              0 ****  ****    0 ROOT
