@<TRIPOS>MOLECULE
13J
   71    75     1     0     0
SMALL
bcc


@<TRIPOS>ATOM
      1 C4         -0.4150   -0.0260    0.3770 ca        1 13J     -0.101000
      2 C7          1.4790   -0.2000    2.4090 ca        1 13J     -0.167500
      3 C6          0.9380    0.0320    0.0530 ca        1 13J     -0.167500
      4 C9         11.1910   -4.4710   -2.0390 ca        1 13J      0.695900
      5 C13        -0.8410   -0.1680    1.7000 ca        1 13J     -0.099300
      6 C20         7.9020   -3.6710   -7.5390 c3        1 13J     -0.104400
      7 C21         7.7550   -3.4090   -6.0550 c3        1 13J     -0.095400
      8 C8          6.1380   -0.7640   -1.2620 ca        1 13J     -0.053000
      9 C18         3.9300   -0.0140   -0.4160 c         1 13J      0.679700
     10 C16         9.7260   -3.1130   -3.1060 ca        1 13J      0.477800
     11 C19        10.5890   -1.5930   -8.3990 c         1 13J      0.652100
     12 C26        -2.6640   -1.5520    2.6670 c3        1 13J     -0.088100
     13 C1          7.4960    0.9640    0.4630 ca        1 13J     -0.142000
     14 C2          8.2160    0.1410   -0.4020 ca        1 13J     -0.101000
     15 C3          6.1020    0.9210    0.4820 ca        1 13J     -0.101000
     16 C5          0.1250   -0.2540    2.7090 ca        1 13J     -0.101000
     17 C10         9.3060   -2.5520   -1.8310 ca        1 13J     -0.492500
     18 C11         7.5380   -0.7320   -1.2640 ca        1 13J     -0.108900
     19 C12         5.4240    0.0510   -0.3760 ca        1 13J     -0.150600
     20 C14         1.9130   -0.0560    1.0680 ca        1 13J      0.064600
     21 C15         8.2850   -1.5830   -2.1810 cc        1 13J      0.413500
     22 C17         9.9360   -3.0660   -0.6560 ca        1 13J      0.754200
     23 C22         8.2240   -2.3820   -8.2980 c3        1 13J      0.083000
     24 C23         9.2690   -1.4120   -6.3330 c3        1 13J      0.070000
     25 C24         9.0220   -2.7220   -5.5220 c3        1 13J      0.053000
     26 C25        12.0470   -1.6620  -10.4220 c3        1 13J     -0.088100
     27 C27        -2.7080    0.9270    2.9190 c3        1 13J     -0.088100
     28 C28        10.6780   -1.9640   -9.8680 c3        1 13J     -0.144400
     29 C29        -2.3010   -0.2270    2.0230 c3        1 13J     -0.020400
     30 N30        10.6820   -4.0850   -3.2290 nb        1 13J     -0.734000
     31 N31        10.8890   -4.0490   -0.7800 nb        1 13J     -0.796000
     32 N32         8.1080   -1.5720   -3.5280 nd        1 13J     -0.495100
     33 N33         8.9540   -2.4570   -4.0860 na        1 13J      0.005200
     34 N34         9.3510   -1.6590   -7.7560 n         1 13J     -0.464800
     35 N35         9.6240   -2.5530    0.5840 nh        1 13J     -0.954500
     36 N36         3.2940    0.0080    0.8180 n         1 13J     -0.468100
     37 O37         3.3210   -0.0980   -1.4970 o         1 13J     -0.578100
     38 O38        11.5860   -1.1730   -7.7800 o         1 13J     -0.596100
     39 H1         -1.1570    0.0430   -0.4330 ha        1 13J      0.134000
     40 H2          2.2100   -0.2720    3.2280 ha        1 13J      0.149000
     41 H3          1.2320    0.1430   -1.0030 ha        1 13J      0.149000
     42 H4         11.9740   -5.2590   -2.0870 h5        1 13J      0.054100
     43 H5          8.7060   -4.4320   -7.7150 hc        1 13J      0.053200
     44 H6          6.9430   -4.0900   -7.9410 hc        1 13J      0.053200
     45 H7          7.5870   -4.3770   -5.5160 hc        1 13J      0.061200
     46 H8          6.8620   -2.7550   -5.8730 hc        1 13J      0.061200
     47 H9          5.5910   -1.4170   -1.9630 ha        1 13J      0.168000
     48 H10        -2.1230   -1.6820    3.6340 hc        1 13J      0.035700
     49 H11        -3.7620   -1.5910    2.8660 hc        1 13J      0.035700
     50 H12        -2.3920   -2.4000    1.9930 hc        1 13J      0.035700
     51 H13         8.0310    1.6600    1.1270 ha        1 13J      0.142000
     52 H14         9.3160    0.1880   -0.4230 ha        1 13J      0.153000
     53 H15         5.5480    1.5920    1.1560 ha        1 13J      0.140000
     54 H16        -0.1910   -0.3660    3.7580 ha        1 13J      0.134000
     55 H17         8.3920   -2.6280   -9.3820 h1        1 13J      0.054200
     56 H18         7.3260   -1.6980   -8.2380 h1        1 13J      0.054200
     57 H19        10.2210   -0.9260   -5.9790 h1        1 13J      0.083700
     58 H20         8.4110   -0.7020   -6.1580 h1        1 13J      0.083700
     59 H21         9.9040   -3.4140   -5.6730 h1        1 13J      0.097700
     60 H22        12.2740   -0.5720  -10.3300 hc        1 13J      0.046700
     61 H23        12.0940   -1.9540  -11.4980 hc        1 13J      0.046700
     62 H24        12.8300   -2.2230   -9.8570 hc        1 13J      0.046700
     63 H25        -2.4690    1.9020    2.4310 hc        1 13J      0.035700
     64 H26        -3.8060    0.8870    3.1180 hc        1 13J      0.035700
     65 H27        -2.1690    0.8780    3.8950 hc        1 13J      0.035700
     66 H28         9.9020   -1.3930  -10.4450 hc        1 13J      0.062200
     67 H29        10.4590   -3.0600   -9.9770 hc        1 13J      0.062200
     68 H30        -2.8840   -0.1400    1.0600 hc        1 13J      0.050700
     69 H31         9.9610   -3.0100    1.3970 hn        1 13J      0.437300
     70 H32         8.7970   -2.0120    0.6570 hn        1 13J      0.437300
     71 H33         3.8760    0.0110    1.6270 hn        1 13J      0.316500
@<TRIPOS>BOND
     1    1    3 ar  
     2    1    5 ar  
     3    1   39 1   
     4    2   16 ar  
     5    2   20 ar  
     6    2   40 1   
     7    3   20 ar  
     8    3   41 1   
     9    4   30 ar  
    10    4   31 ar  
    11    4   42 1   
    12    5   16 ar  
    13    5   29 1   
    14    6    7 1   
    15    6   23 1   
    16    6   43 1   
    17    6   44 1   
    18    7   25 1   
    19    7   45 1   
    20    7   46 1   
    21    8   18 ar  
    22    8   19 ar  
    23    8   47 1   
    24    9   19 1   
    25    9   36 1   
    26    9   37 2   
    27   10   17 ar  
    28   10   30 ar  
    29   10   33 1   
    30   11   28 1   
    31   11   34 1   
    32   11   38 2   
    33   12   29 1   
    34   12   48 1   
    35   12   49 1   
    36   12   50 1   
    37   13   14 ar  
    38   13   15 ar  
    39   13   51 1   
    40   14   18 ar  
    41   14   52 1   
    42   15   19 ar  
    43   15   53 1   
    44   16   54 1   
    45   17   21 1   
    46   17   22 ar  
    47   18   21 1   
    48   20   36 1   
    49   21   32 2   
    50   22   31 ar  
    51   22   35 1   
    52   23   34 1   
    53   23   55 1   
    54   23   56 1   
    55   24   25 1   
    56   24   34 1   
    57   24   57 1   
    58   24   58 1   
    59   25   33 1   
    60   25   59 1   
    61   26   28 1   
    62   26   60 1   
    63   26   61 1   
    64   26   62 1   
    65   27   29 1   
    66   27   63 1   
    67   27   64 1   
    68   27   65 1   
    69   28   66 1   
    70   28   67 1   
    71   29   68 1   
    72   32   33 1   
    73   35   69 1   
    74   35   70 1   
    75   36   71 1   
@<TRIPOS>SUBSTRUCTURE
     1 13J         1 TEMP              0 ****  ****    0 ROOT
