@<TRIPOS>MOLECULE
13J
   73    77     1     0     0
SMALL
bcc


@<TRIPOS>ATOM
      1 C4          1.7870    1.2260   -0.3080 ca        1 13J     -0.109000
      2 C7          1.9720   -1.0060    1.3740 ca        1 13J     -0.093000
      3 C6          2.7930    1.1800    0.6520 ca        1 13J     -0.093000
      4 C9         11.8830   -3.5350   -2.4690 ca        1 13J      0.693900
      5 C13         0.8660    0.1760   -0.4400 ca        1 13J      0.010700
      6 C20         6.4980   -4.3260   -5.9660 c3        1 13J     -0.110400
      7 C21         6.8620   -3.9830   -4.5340 c3        1 13J     -0.089400
      8 C8          6.7500   -1.2760    0.5680 ca        1 13J     -0.028000
      9 C18         4.9820   -0.9980    2.2510 c         1 13J      0.568700
     10 C16         9.7310   -2.8170   -2.6900 ca        1 13J      0.459800
     11 C19         8.0210   -1.7350   -7.7150 c         1 13J      0.654100
     12 C26        -0.1080   -0.8880   -2.4610 c3        1 13J     -0.095100
     13 C1          8.0150    1.0840    1.3820 ca        1 13J     -0.112000
     14 C2          8.5530    0.3290    0.3400 ca        1 13J     -0.108000
     15 C3          6.8420    0.6770    2.0180 ca        1 13J     -0.082000
     16 C5          0.9760   -0.9370    0.4080 ca        1 13J     -0.109000
     17 C10         9.7740   -2.2040   -1.3470 ca        1 13J     -0.416500
     18 C11         7.9320   -0.8620   -0.0620 ca        1 13J     -0.108900
     19 C12         6.2050   -0.4990    1.6020 ca        1 13J     -0.172600
     20 C14         2.8810    0.0610    1.4980 ca        1 13J     -0.089400
     21 C15         8.4560   -1.6290   -1.1850 cc        1 13J      0.350500
     22 C17        10.9960   -2.3710   -0.6690 ca        1 13J      0.549200
     23 C22         6.1320   -3.0780   -6.7750 c3        1 13J      0.077000
     24 C23         7.4730   -1.6770   -5.3260 c3        1 13J      0.075000
     25 C24         7.9760   -2.9300   -4.5410 c3        1 13J      0.025000
     26 C25         8.5840   -1.4480  -10.1240 c3        1 13J     -0.093100
     27 C27        -1.5860    0.2540   -0.8050 c3        1 13J     -0.095100
     28 C28         7.6490   -2.0980   -9.1360 c3        1 13J     -0.139400
     29 C29        -0.2200    0.2540   -1.4670 c3        1 13J     -0.043400
     30 N30        10.7840   -3.4810   -3.2480 nb        1 13J     -0.601000
     31 N31        12.0490   -3.0180   -1.2060 nb        1 13J     -0.679000
     32 N32         7.7130   -1.8830   -2.3020 nd        1 13J     -0.420100
     33 N33         8.4340   -2.5700   -3.1830 na        1 13J      0.064200
     34 N34         7.1080   -2.0160   -6.6780 n         1 13J     -0.466800
     35 N35        11.1580   -1.8320    0.7010 n4        1 13J     -0.830300
     36 N36         3.9010    0.0210    2.5540 n4        1 13J     -0.531200
     37 O37         4.7330   -2.1500    2.5730 o         1 13J     -0.400100
     38 O38         9.0790   -1.1430   -7.4330 o         1 13J     -0.587100
     39 H1          1.7130    2.1080   -0.9660 ha        1 13J      0.175500
     40 H2          2.0380   -1.8910    2.0300 ha        1 13J      0.157000
     41 H3          3.4940    2.0260    0.7380 ha        1 13J      0.157000
     42 H4         12.7750   -4.0620   -2.8880 h5        1 13J      0.115100
     43 H5          7.3510   -4.8640   -6.4560 hc        1 13J      0.069700
     44 H6          5.6160   -5.0200   -5.9650 hc        1 13J      0.069700
     45 H7          7.2000   -4.9100   -4.0020 hc        1 13J      0.060700
     46 H8          5.9610   -3.5860   -3.9990 hc        1 13J      0.060700
     47 H9          6.2450   -2.2030    0.2460 ha        1 13J      0.182000
     48 H10         0.8860   -0.8750   -2.9660 hc        1 13J      0.050700
     49 H11        -0.2410   -1.8730   -1.9520 hc        1 13J      0.050700
     50 H12        -0.9040   -0.7840   -3.2390 hc        1 13J      0.050700
     51 H13         8.5070    2.0220    1.6940 ha        1 13J      0.179000
     52 H14         9.4400    0.7010   -0.2010 ha        1 13J      0.161000
     53 H15         6.4510    1.2830    2.8500 ha        1 13J      0.151000
     54 H16         0.2550   -1.7680    0.3130 ha        1 13J      0.175500
     55 H17         5.1520   -2.6710   -6.3880 h1        1 13J      0.068200
     56 H18         5.9790   -3.3710   -7.8500 h1        1 13J      0.068200
     57 H19         6.5580   -1.2680   -4.8100 h1        1 13J      0.080700
     58 H20         8.2740   -0.8850   -5.3370 h1        1 13J      0.080700
     59 H21         8.8860   -3.3520   -5.0660 h1        1 13J      0.115700
     60 H22         9.6400   -1.7530   -9.9260 hc        1 13J      0.055367
     61 H23         8.3060   -1.7530  -11.1620 hc        1 13J      0.055367
     62 H24         8.5270   -0.3350  -10.0470 hc        1 13J      0.055367
     63 H25        -2.3800    0.3520   -1.5860 hc        1 13J      0.050700
     64 H26        -1.6800    1.1100   -0.0950 hc        1 13J      0.050700
     65 H27        -1.7570   -0.6970   -0.2460 hc        1 13J      0.050700
     66 H28         6.5940   -1.7740   -9.3450 hc        1 13J      0.071200
     67 H29         7.6990   -3.2150   -9.2430 hc        1 13J      0.071200
     68 H30        -0.1090    1.2230   -2.0360 hc        1 13J      0.072700
     69 H31        10.3710   -1.2040    0.9060 hn        1 13J      0.476467
     70 H32        12.0480   -1.3180    0.7780 hn        1 13J      0.476467
     71 H33         4.3140    0.9540    2.6560 hn        1 13J      0.465800
     72 H353       11.1700   -2.6100    1.3740 hn        1 13J      0.476467
     73 H362        3.4330   -0.2430    3.4340 hn        1 13J      0.465800
@<TRIPOS>BOND
     1    1    3 ar  
     2    1    5 ar  
     3    1   39 1   
     4    2   16 ar  
     5    2   20 ar  
     6    2   40 1   
     7    3   20 ar  
     8    3   41 1   
     9    4   30 ar  
    10    4   31 ar  
    11    4   42 1   
    12    5   16 ar  
    13    5   29 1   
    14    6    7 1   
    15    6   23 1   
    16    6   43 1   
    17    6   44 1   
    18    7   25 1   
    19    7   45 1   
    20    7   46 1   
    21    8   18 ar  
    22    8   19 ar  
    23    8   47 1   
    24    9   19 1   
    25    9   36 1   
    26    9   37 2   
    27   10   17 ar  
    28   10   30 ar  
    29   10   33 1   
    30   11   28 1   
    31   11   34 1   
    32   11   38 2   
    33   12   29 1   
    34   12   48 1   
    35   12   49 1   
    36   12   50 1   
    37   13   14 ar  
    38   13   15 ar  
    39   13   51 1   
    40   14   18 ar  
    41   14   52 1   
    42   15   19 ar  
    43   15   53 1   
    44   16   54 1   
    45   17   21 1   
    46   17   22 ar  
    47   18   21 1   
    48   20   36 1   
    49   21   32 2   
    50   22   31 ar  
    51   22   35 1   
    52   23   34 1   
    53   23   55 1   
    54   23   56 1   
    55   24   25 1   
    56   24   34 1   
    57   24   57 1   
    58   24   58 1   
    59   25   33 1   
    60   25   59 1   
    61   26   28 1   
    62   26   60 1   
    63   26   61 1   
    64   26   62 1   
    65   27   29 1   
    66   27   63 1   
    67   27   64 1   
    68   27   65 1   
    69   28   66 1   
    70   28   67 1   
    71   29   68 1   
    72   32   33 1   
    73   35   69 1   
    74   35   70 1   
    75   35   72 1   
    76   36   71 1   
    77   36   73 1   
@<TRIPOS>SUBSTRUCTURE
     1 13J         1 TEMP              0 ****  ****    0 ROOT
