@<TRIPOS>MOLECULE
13J
   71    75     1     0     0
SMALL
bcc


@<TRIPOS>ATOM
      1 C4         -0.4180   -0.0340    0.3830 ca        1 13J     -0.101000
      2 C7          1.4800   -0.2030    2.4120 ca        1 13J     -0.167500
      3 C6          0.9340    0.0260    0.0570 ca        1 13J     -0.167500
      4 C9         11.1870   -4.4660   -2.0420 ca        1 13J      0.695900
      5 C13        -0.8420   -0.1760    1.7070 ca        1 13J     -0.099300
      6 C20         7.8960   -3.6580   -7.5460 c3        1 13J     -0.104400
      7 C21         7.7480   -3.3960   -6.0630 c3        1 13J     -0.095400
      8 C8          6.1330   -0.7620   -1.2650 ca        1 13J     -0.053000
      9 C18         3.9260   -0.0130   -0.4160 c         1 13J      0.679700
     10 C16         9.7210   -3.1090   -3.1100 ca        1 13J      0.477800
     11 C19        10.5980   -1.5960   -8.3990 c         1 13J      0.652100
     12 C26        -2.6610   -1.5630    2.6770 c3        1 13J     -0.088100
     13 C1          7.4920    0.9700    0.4570 ca        1 13J     -0.142000
     14 C2          8.2110    0.1470   -0.4080 ca        1 13J     -0.101000
     15 C3          6.0980    0.9250    0.4780 ca        1 13J     -0.101000
     16 C5          0.1260   -0.2590    2.7140 ca        1 13J     -0.101000
     17 C10         9.3020   -2.5470   -1.8350 ca        1 13J     -0.492500
     18 C11         7.5330   -0.7270   -1.2690 ca        1 13J     -0.107900
     19 C12         5.4200    0.0530   -0.3790 ca        1 13J     -0.150600
     20 C14         1.9110   -0.0590    1.0700 ca        1 13J      0.064600
     21 C15         8.2800   -1.5790   -2.1850 cc        1 13J      0.413500
     22 C17         9.9320   -3.0610   -0.6600 ca        1 13J      0.754200
     23 C22         8.2280   -2.3690   -8.3040 c3        1 13J      0.083000
     24 C23         9.2750   -1.4090   -6.3350 c3        1 13J      0.070000
     25 C24         9.0180   -2.7180   -5.5260 c3        1 13J      0.053000
     26 C25        12.0600   -1.6720  -10.4180 c3        1 13J     -0.088100
     27 C27        -2.7090    0.9160    2.9280 c3        1 13J     -0.088100
     28 C28        10.6880   -1.9660   -9.8670 c3        1 13J     -0.144400
     29 C29        -2.3010   -0.2380    2.0320 c3        1 13J     -0.020400
     30 N30        10.6770   -4.0820   -3.2320 nb        1 13J     -0.734000
     31 N31        10.8860   -4.0430   -0.7830 nb        1 13J     -0.796000
     32 N32         8.1030   -1.5690   -3.5320 nd        1 13J     -0.495100
     33 N33         8.9490   -2.4550   -4.0900 na        1 13J      0.005200
     34 N34         9.3580   -1.6540   -7.7580 n         1 13J     -0.464800
     35 N35         9.6210   -2.5470    0.5800 nv        1 13J     -0.954500
     36 N36         3.2920    0.0080    0.8180 ns        1 13J     -0.468100
     37 O37         3.3160   -0.0980   -1.4970 o         1 13J     -0.578100
     38 O38        11.5970   -1.1820   -7.7770 o         1 13J     -0.596100
     39 H1         -1.1620    0.0340   -0.4260 ha        1 13J      0.134000
     40 H2          2.2120   -0.2730    3.2300 ha        1 13J      0.149000
     41 H3          1.2260    0.1380   -1.0000 ha        1 13J      0.149000
     42 H4         11.9700   -5.2550   -2.0900 h5        1 13J      0.054100
     43 H5          8.6960   -4.4230   -7.7220 hc        1 13J      0.053700
     44 H6          6.9360   -4.0700   -7.9510 hc        1 13J      0.053700
     45 H7          6.8590   -2.7370   -5.8820 hc        1 13J      0.061200
     46 H8          7.5720   -4.3640   -5.5260 hc        1 13J      0.061200
     47 H9          5.5870   -1.4150   -1.9650 ha        1 13J      0.168000
     48 H10        -2.1180   -1.6920    3.6440 hc        1 13J      0.035700
     49 H11        -2.3880   -2.4100    2.0030 hc        1 13J      0.035700
     50 H12        -3.7580   -1.6050    2.8780 hc        1 13J      0.035700
     51 H13         8.0270    1.6670    1.1200 ha        1 13J      0.142000
     52 H14         9.3110    0.1950   -0.4300 ha        1 13J      0.153000
     53 H15         5.5440    1.5960    1.1520 ha        1 13J      0.140000
     54 H16        -0.1890   -0.3720    3.7640 ha        1 13J      0.134000
     55 H17         8.3960   -2.6140   -9.3870 h1        1 13J      0.054200
     56 H18         7.3350   -1.6800   -8.2440 h1        1 13J      0.054200
     57 H19        10.2300   -0.9290   -5.9790 h1        1 13J      0.083700
     58 H20         8.4210   -0.6940   -6.1610 h1        1 13J      0.083700
     59 H21         9.8960   -3.4150   -5.6760 h1        1 13J      0.097700
     60 H22        12.8390   -2.2390   -9.8520 hc        1 13J      0.046700
     61 H23        12.1080   -1.9630  -11.4950 hc        1 13J      0.046700
     62 H24        12.2940   -0.5840  -10.3240 hc        1 13J      0.046700
     63 H25        -2.1680    0.8680    3.9040 hc        1 13J      0.035700
     64 H26        -2.4730    1.8910    2.4390 hc        1 13J      0.035700
     65 H27        -3.8070    0.8730    3.1300 hc        1 13J      0.035700
     66 H28         9.9180   -1.3890  -10.4450 hc        1 13J      0.062200
     67 H29        10.4630   -3.0600   -9.9780 hc        1 13J      0.062200
     68 H30        -2.8860   -0.1520    1.0700 hc        1 13J      0.050700
     69 H31         9.9580   -3.0030    1.3930 hn        1 13J      0.437300
     70 H32         8.7930   -2.0060    0.6530 hn        1 13J      0.437300
     71 H33         3.8740    0.0120    1.6260 hn        1 13J      0.316500
@<TRIPOS>BOND
     1    1    3 ar  
     2    1    5 ar  
     3    1   39 1   
     4    2   16 ar  
     5    2   20 ar  
     6    2   40 1   
     7    3   20 ar  
     8    3   41 1   
     9    4   30 ar  
    10    4   31 ar  
    11    4   42 1   
    12    5   16 ar  
    13    5   29 1   
    14    6    7 1   
    15    6   23 1   
    16    6   43 1   
    17    6   44 1   
    18    7   25 1   
    19    7   45 1   
    20    7   46 1   
    21    8   18 ar  
    22    8   19 ar  
    23    8   47 1   
    24    9   19 1   
    25    9   36 1   
    26    9   37 2   
    27   10   17 ar  
    28   10   30 ar  
    29   10   33 1   
    30   11   28 1   
    31   11   34 1   
    32   11   38 2   
    33   12   29 1   
    34   12   48 1   
    35   12   49 1   
    36   12   50 1   
    37   13   14 ar  
    38   13   15 ar  
    39   13   51 1   
    40   14   18 ar  
    41   14   52 1   
    42   15   19 ar  
    43   15   53 1   
    44   16   54 1   
    45   17   21 1   
    46   17   22 ar  
    47   18   21 1   
    48   20   36 1   
    49   21   32 2   
    50   22   31 ar  
    51   22   35 1   
    52   23   34 1   
    53   23   55 1   
    54   23   56 1   
    55   24   25 1   
    56   24   34 1   
    57   24   57 1   
    58   24   58 1   
    59   25   33 1   
    60   25   59 1   
    61   26   28 1   
    62   26   60 1   
    63   26   61 1   
    64   26   62 1   
    65   27   29 1   
    66   27   63 1   
    67   27   64 1   
    68   27   65 1   
    69   28   66 1   
    70   28   67 1   
    71   29   68 1   
    72   32   33 1   
    73   35   69 1   
    74   35   70 1   
    75   36   71 1   
@<TRIPOS>SUBSTRUCTURE
     1 13J         1 TEMP              0 ****  ****    0 ROOT
