@<TRIPOS>MOLECULE
13J
   71    75     1     0     0
SMALL
bcc


@<TRIPOS>ATOM
      1 C4         -7.1350    2.1360   -0.1660 ca        1 13J     -0.101000
      2 C7         -6.8760   -0.6230    0.1010 ca        1 13J     -0.167500
      3 C6         -5.9030    1.6000    0.1990 ca        1 13J     -0.167500
      4 C9          4.1000   -3.4470   -1.8520 ca        1 13J      0.695900
      5 C13        -8.2440    1.3180   -0.4000 ca        1 13J     -0.099300
      6 C20         4.7690    2.9800   -1.8210 c3        1 13J     -0.104400
      7 C21         3.7040    1.9280   -1.5980 c3        1 13J     -0.095400
      8 C8         -0.9410   -0.5490    0.6090 ca        1 13J     -0.053000
      9 C18        -3.2970    0.1930    0.8370 c         1 13J      0.679700
     10 C16         3.3750   -1.5410   -0.8650 ca        1 13J      0.477800
     11 C19         7.0010    2.3460    0.8050 c         1 13J      0.652100
     12 C26        -9.9900    1.4370   -2.1620 c3        1 13J     -0.088100
     13 C1         -1.2520   -2.4790    2.6040 ca        1 13J     -0.142000
     14 C2         -0.0220   -2.3350    1.9650 ca        1 13J     -0.101000
     15 C3         -2.3330   -1.6750    2.2440 ca        1 13J     -0.101000
     16 C5         -8.0960   -0.0660   -0.2600 ca        1 13J     -0.101000
     17 C10         2.1740   -2.2260   -0.4120 ca        1 13J     -0.492500
     18 C11         0.1360   -1.3720    0.9600 ca        1 13J     -0.107900
     19 C12        -2.1780   -0.7140    1.2410 ca        1 13J     -0.150600
     20 C14        -5.7510    0.2050    0.3380 ca        1 13J      0.064600
     21 C15         1.4240   -1.2070    0.2990 cc        1 13J      0.413500
     22 C17         2.0370   -3.6030   -0.7670 ca        1 13J      0.754200
     23 C22         5.2530    3.5660   -0.4920 c3        1 13J      0.083000
     24 C23         4.6890    1.5190    0.6860 c3        1 13J      0.070000
     25 C24         4.2340    0.8450   -0.6460 c3        1 13J      0.053000
     26 C25         9.3730    3.0720    1.0650 c3        1 13J     -0.088100
     27 C27       -10.6260    1.6110    0.2420 c3        1 13J     -0.088100
     28 C28         8.0320    3.4060    0.4640 c3        1 13J     -0.144400
     29 C29        -9.5570    1.9180   -0.7900 c3        1 13J     -0.020400
     30 N30         4.3630   -2.1470   -1.5950 nb        1 13J     -0.734000
     31 N31         3.0240   -4.2070   -1.5080 nb        1 13J     -0.796000
     32 N32         2.1060   -0.0330    0.2670 nd        1 13J     -0.495100
     33 N33         3.2590   -0.2150   -0.4030 na        1 13J      0.005200
     34 N34         5.6640    2.5640    0.4650 n         1 13J     -0.464800
     35 N35         0.9480   -4.3290   -0.3370 nh        1 13J     -0.954500
     36 N36        -4.5430   -0.4060    0.7160 n         1 13J     -0.468100
     37 O37        -3.0940    1.4000    0.6150 o         1 13J     -0.578100
     38 O38         7.3180    1.3200    1.4380 o         1 13J     -0.596100
     39 H1         -7.2280    3.2280   -0.2700 ha        1 13J      0.134000
     40 H2         -6.7970   -1.7160    0.1990 ha        1 13J      0.149000
     41 H3         -5.0530    2.2790    0.3730 ha        1 13J      0.149000
     42 H4          4.8760   -3.9830   -2.4430 h5        1 13J      0.054100
     43 H5          5.6320    2.5380   -2.3830 hc        1 13J      0.053700
     44 H6          4.3480    3.8120   -2.4430 hc        1 13J      0.053700
     45 H7          2.7880    2.4050   -1.1600 hc        1 13J      0.061200
     46 H8          3.4160    1.4700   -2.5790 hc        1 13J      0.061200
     47 H9         -0.8190    0.2400   -0.1520 ha        1 13J      0.168000
     48 H10       -10.9530    1.9230   -2.4510 hc        1 13J      0.035700
     49 H11        -9.2170    1.6920   -2.9260 hc        1 13J      0.035700
     50 H12       -10.1380    0.3300   -2.1630 hc        1 13J      0.035700
     51 H13        -1.3680   -3.2260    3.4050 ha        1 13J      0.142000
     52 H14         0.8330   -2.9640    2.2620 ha        1 13J      0.153000
     53 H15        -3.2920   -1.7880    2.7730 ha        1 13J      0.140000
     54 H16        -8.9580   -0.7270   -0.4400 ha        1 13J      0.134000
     55 H17         6.0880    4.2910   -0.6940 h1        1 13J      0.054200
     56 H18         4.4020    4.1450   -0.0260 h1        1 13J      0.054200
     57 H19         3.7940    1.9880    1.1860 h1        1 13J      0.083700
     58 H20         5.1220    0.7390    1.3730 h1        1 13J      0.083700
     59 H21         5.1300    0.3460   -1.1230 h1        1 13J      0.097700
     60 H22         9.2990    3.0130    2.1780 hc        1 13J      0.046700
     61 H23         9.7330    2.0820    0.6930 hc        1 13J      0.046700
     62 H24        10.1180    3.8570    0.7920 hc        1 13J      0.046700
     63 H25       -10.3200    1.9930    1.2450 hc        1 13J      0.035700
     64 H26       -11.5880    2.0970   -0.0490 hc        1 13J      0.035700
     65 H27       -10.7940    0.5090    0.3190 hc        1 13J      0.035700
     66 H28         8.1240    3.4730   -0.6530 hc        1 13J      0.062200
     67 H29         7.6840    4.4020    0.8470 hc        1 13J      0.062200
     68 H30        -9.4370    3.0400   -0.8400 hc        1 13J      0.050700
     69 H31         0.1680   -3.8210    0.0020 hn        1 13J      0.437300
     70 H32         0.7950   -5.2380   -0.7040 hn        1 13J      0.437300
     71 H33        -4.5870   -1.3920    0.8530 hn        1 13J      0.316500
@<TRIPOS>BOND
     1    1    3 ar  
     2    1    5 ar  
     3    1   39 1   
     4    2   16 ar  
     5    2   20 ar  
     6    2   40 1   
     7    3   20 ar  
     8    3   41 1   
     9    4   30 ar  
    10    4   31 ar  
    11    4   42 1   
    12    5   16 ar  
    13    5   29 1   
    14    6    7 1   
    15    6   23 1   
    16    6   43 1   
    17    6   44 1   
    18    7   25 1   
    19    7   45 1   
    20    7   46 1   
    21    8   18 ar  
    22    8   19 ar  
    23    8   47 1   
    24    9   19 1   
    25    9   36 1   
    26    9   37 2   
    27   10   17 ar  
    28   10   30 ar  
    29   10   33 1   
    30   11   28 1   
    31   11   34 1   
    32   11   38 2   
    33   12   29 1   
    34   12   48 1   
    35   12   49 1   
    36   12   50 1   
    37   13   14 ar  
    38   13   15 ar  
    39   13   51 1   
    40   14   18 ar  
    41   14   52 1   
    42   15   19 ar  
    43   15   53 1   
    44   16   54 1   
    45   17   21 1   
    46   17   22 ar  
    47   18   21 1   
    48   20   36 1   
    49   21   32 2   
    50   22   31 ar  
    51   22   35 1   
    52   23   34 1   
    53   23   55 1   
    54   23   56 1   
    55   24   25 1   
    56   24   34 1   
    57   24   57 1   
    58   24   58 1   
    59   25   33 1   
    60   25   59 1   
    61   26   28 1   
    62   26   60 1   
    63   26   61 1   
    64   26   62 1   
    65   27   29 1   
    66   27   63 1   
    67   27   64 1   
    68   27   65 1   
    69   28   66 1   
    70   28   67 1   
    71   29   68 1   
    72   32   33 1   
    73   35   69 1   
    74   35   70 1   
    75   36   71 1   
@<TRIPOS>SUBSTRUCTURE
     1 13J         1 TEMP              0 ****  ****    0 ROOT
