@<TRIPOS>MOLECULE
13K
   53    56     1     0     0
SMALL
bcc


@<TRIPOS>ATOM
      1 N01         0.0110    0.1350   -0.2380 nv        1 13K     -0.948500
      2 C02         1.3930    0.0940   -0.1910 ca        1 13K      0.894900
      3 N03         2.0270    0.6740    0.9110 nb        1 13K     -0.763500
      4 C04         3.3580    0.5660    0.9550 ca        1 13K      0.503700
      5 N05         2.0620   -0.5580   -1.2300 nb        1 13K     -0.763500
      6 C06         3.3930   -0.6280   -1.1250 ca        1 13K      0.503700
      7 C07         4.1230   -0.0760   -0.0490 cp        1 13K     -0.465100
      8 C08         5.5810   -0.1730    0.0220 cp        1 13K      0.579800
      9 C09         6.3240   -0.1840   -1.1710 ca        1 13K     -0.464600
     10 N10         6.1620   -0.2490    1.2450 nb        1 13K     -0.776000
     11 C11         7.5460   -0.3280    1.2740 ca        1 13K      0.899900
     12 N12         8.1830   -0.2630    2.5470 nh        1 13K     -0.720300
     13 C13         9.5770   -0.6810    2.6070 c3        1 13K      0.161800
     14 C14        10.2080   -0.4420    3.9850 c3        1 13K      0.118400
     15 O15         9.4160   -0.9810    5.0350 os        1 13K     -0.412600
     16 C16         8.1030   -0.4380    5.0310 c3        1 13K      0.118400
     17 C17         7.3860   -0.6730    3.6960 c3        1 13K      0.161800
     18 N18         8.3600   -0.3880    0.1540 nb        1 13K     -0.792000
     19 C19         7.7440   -0.3140   -1.0610 ca        1 13K      0.706200
     20 N20         8.4860   -0.4270   -2.2480 nu        1 13K     -0.719300
     21 C21         9.8990   -0.3630   -2.2800 ca        1 13K      0.130600
     22 C22        10.6860   -1.2750   -1.5600 ca        1 13K     -0.109000
     23 C23        12.0770   -1.2480   -1.6670 ca        1 13K     -0.170000
     24 C24        10.5320    0.5840   -3.1230 ca        1 13K     -0.218000
     25 C25        11.9190    0.6020   -3.2350 ca        1 13K      0.118100
     26 O26        12.6310    1.4710   -4.0360 os        1 13K     -0.302900
     27 C27        11.8700    2.4590   -4.7210 c3        1 13K      0.109700
     28 C28        12.7070   -0.3220   -2.4960 ca        1 13K      0.092100
     29 O29        14.0710   -0.2120   -2.6740 os        1 13K     -0.303900
     30 C30        14.8670   -1.1550   -1.9650 c3        1 13K      0.110700
     31 HN01       -0.4520   -0.1540   -1.0630 hn        1 13K      0.446300
     32 HN0A       -0.4760    0.6920    0.4200 hn        1 13K      0.446300
     33 H04         3.8450    1.0240    1.8390 h4        1 13K      0.037600
     34 H06         3.9050   -1.1640   -1.9480 h4        1 13K      0.037600
     35 H09         5.8310   -0.0970   -2.1450 ha        1 13K      0.150000
     36 H13        10.1710   -0.0870    1.8570 h1        1 13K      0.062950
     37 H13A        9.6740   -1.7750    2.3500 h1        1 13K      0.062950
     38 H14        11.1820   -0.9940    4.0530 h1        1 13K      0.057200
     39 H14A       10.3720    0.6540    4.1610 h1        1 13K      0.057200
     40 H16         7.5670   -0.9870    5.8480 h1        1 13K      0.057200
     41 H16A        8.1490    0.6580    5.2680 h1        1 13K      0.057200
     42 H17         7.1150   -1.7650    3.6180 h1        1 13K      0.062950
     43 H17A        6.4330   -0.0730    3.7160 h1        1 13K      0.062950
     44 HN20        8.0390    0.0030   -3.0330 hn        1 13K      0.424800
     45 H22        10.2180   -2.0210   -0.9000 ha        1 13K      0.154000
     46 H23        12.6690   -1.9710   -1.0880 ha        1 13K      0.142000
     47 H24         9.9280    1.3050   -3.6920 ha        1 13K      0.138000
     48 H27        11.3100    3.1020   -3.9990 h1        1 13K      0.043700
     49 H27A       11.1680    1.9830   -5.4480 h1        1 13K      0.043700
     50 H27B       12.6490    3.0560   -5.2590 h1        1 13K      0.043700
     51 H30        14.6180   -2.1980   -2.2770 h1        1 13K      0.043700
     52 H30A       14.7340   -1.0340   -0.8620 h1        1 13K      0.043700
     53 H30B       15.9110   -0.8900   -2.2680 h1        1 13K      0.043700
@<TRIPOS>BOND
     1    1    2 1   
     2    1   31 1   
     3    1   32 1   
     4    2    3 ar  
     5    2    5 ar  
     6    3    4 ar  
     7    4    7 ar  
     8    4   33 1   
     9    5    6 ar  
    10    6    7 ar  
    11    6   34 1   
    12    7    8 1   
    13    8    9 ar  
    14    8   10 ar  
    15    9   19 ar  
    16    9   35 1   
    17   10   11 ar  
    18   11   12 1   
    19   11   18 ar  
    20   12   13 1   
    21   12   17 1   
    22   13   14 1   
    23   13   36 1   
    24   13   37 1   
    25   14   15 1   
    26   14   38 1   
    27   14   39 1   
    28   15   16 1   
    29   16   17 1   
    30   16   40 1   
    31   16   41 1   
    32   17   42 1   
    33   17   43 1   
    34   18   19 ar  
    35   19   20 1   
    36   20   21 1   
    37   20   44 1   
    38   21   22 ar  
    39   21   24 ar  
    40   22   23 ar  
    41   22   45 1   
    42   23   28 ar  
    43   23   46 1   
    44   24   25 ar  
    45   24   47 1   
    46   25   26 1   
    47   25   28 ar  
    48   26   27 1   
    49   27   48 1   
    50   27   49 1   
    51   27   50 1   
    52   28   29 1   
    53   29   30 1   
    54   30   51 1   
    55   30   52 1   
    56   30   53 1   
@<TRIPOS>SUBSTRUCTURE
     1 13K         1 TEMP              0 ****  ****    0 ROOT
