@<TRIPOS>MOLECULE
13K
   53    56     1     0     0
SMALL
bcc


@<TRIPOS>ATOM
      1 N01         0.0100    0.1040   -0.2450 nh        1 13K     -0.948500
      2 C02         1.3910    0.0680   -0.1980 ca        1 13K      0.893900
      3 N03         2.0230    0.6470    0.9070 nb        1 13K     -0.763500
      4 C04         3.3550    0.5430    0.9510 ca        1 13K      0.503700
      5 N05         2.0640   -0.5780   -1.2390 nb        1 13K     -0.763500
      6 C06         3.3950   -0.6430   -1.1330 ca        1 13K      0.503700
      7 C07         4.1220   -0.0920   -0.0540 cp        1 13K     -0.465100
      8 C08         5.5810   -0.1840    0.0180 cp        1 13K      0.579800
      9 C09         6.3250   -0.1870   -1.1750 ca        1 13K     -0.464600
     10 N10         6.1610   -0.2630    1.2400 nb        1 13K     -0.776000
     11 C11         7.5450   -0.3370    1.2710 ca        1 13K      0.899900
     12 N12         8.1810   -0.2740    2.5440 nh        1 13K     -0.720300
     13 C13         9.5760   -0.6880    2.6050 c3        1 13K      0.161800
     14 C14        10.2050   -0.4510    3.9830 c3        1 13K      0.118400
     15 O15         9.4150   -0.9960    5.0320 os        1 13K     -0.412600
     16 C16         8.0990   -0.4570    5.0280 c3        1 13K      0.118400
     17 C17         7.3840   -0.6910    3.6910 c3        1 13K      0.161800
     18 N18         8.3600   -0.3900    0.1510 nb        1 13K     -0.792000
     19 C19         7.7450   -0.3130   -1.0640 ca        1 13K      0.706200
     20 N20         8.4890   -0.4190   -2.2510 nh        1 13K     -0.719300
     21 C21         9.9020   -0.3510   -2.2810 ca        1 13K      0.130600
     22 C22        10.6900   -1.2650   -1.5640 ca        1 13K     -0.109000
     23 C23        12.0810   -1.2340   -1.6700 ca        1 13K     -0.170000
     24 C24        10.5340    0.6010   -3.1180 ca        1 13K     -0.218000
     25 C25        11.9200    0.6230   -3.2290 ca        1 13K      0.118100
     26 O26        12.6310    1.4970   -4.0260 os        1 13K     -0.302900
     27 C27        11.8690    2.4880   -4.7040 c3        1 13K      0.109700
     28 C28        12.7090   -0.3030   -2.4940 ca        1 13K      0.092100
     29 O29        14.0740   -0.1890   -2.6700 os        1 13K     -0.303900
     30 C30        14.8700   -1.1340   -1.9660 c3        1 13K      0.110700
     31 HN01       -0.4800    0.6570    0.4140 hn        1 13K      0.446300
     32 HN0A       -0.4520   -0.1830   -1.0730 hn        1 13K      0.446300
     33 H04         3.8390    1.0000    1.8370 h4        1 13K      0.037600
     34 H06         3.9100   -1.1740   -1.9570 h4        1 13K      0.037600
     35 H09         5.8320   -0.0990   -2.1490 ha        1 13K      0.150000
     36 H13        10.1680   -0.0890    1.8570 h1        1 13K      0.062950
     37 H13A        9.6760   -1.7810    2.3450 h1        1 13K      0.062950
     38 H14        10.3650    0.6450    4.1630 h1        1 13K      0.057200
     39 H14A       11.1810   -1.0000    4.0510 h1        1 13K      0.057200
     40 H16         7.5640   -1.0110    5.8430 h1        1 13K      0.057200
     41 H16A        8.1410    0.6380    5.2680 h1        1 13K      0.057200
     42 H17         7.1170   -1.7830    3.6100 h1        1 13K      0.062950
     43 H17A        6.4290   -0.0940    3.7130 h1        1 13K      0.062950
     44 HN20        8.0410    0.0130   -3.0340 hn        1 13K      0.424800
     45 H22        10.2230   -2.0150   -0.9080 ha        1 13K      0.154000
     46 H23        12.6740   -1.9590   -1.0940 ha        1 13K      0.142000
     47 H24         9.9280    1.3240   -3.6850 ha        1 13K      0.138000
     48 H27        11.1680    2.0160   -5.4350 h1        1 13K      0.043700
     49 H27A       12.6480    3.0900   -5.2390 h1        1 13K      0.043700
     50 H27B       11.3080    3.1260   -3.9790 h1        1 13K      0.043700
     51 H30        14.7370   -1.0210   -0.8630 h1        1 13K      0.043700
     52 H30A       14.6240   -2.1760   -2.2840 h1        1 13K      0.043700
     53 H30B       15.9150   -0.8660   -2.2670 h1        1 13K      0.043700
@<TRIPOS>BOND
     1    1    2 1   
     2    1   31 1   
     3    1   32 1   
     4    2    3 ar  
     5    2    5 ar  
     6    3    4 ar  
     7    4    7 ar  
     8    4   33 1   
     9    5    6 ar  
    10    6    7 ar  
    11    6   34 1   
    12    7    8 1   
    13    8    9 ar  
    14    8   10 ar  
    15    9   19 ar  
    16    9   35 1   
    17   10   11 ar  
    18   11   12 1   
    19   11   18 ar  
    20   12   13 1   
    21   12   17 1   
    22   13   14 1   
    23   13   36 1   
    24   13   37 1   
    25   14   15 1   
    26   14   38 1   
    27   14   39 1   
    28   15   16 1   
    29   16   17 1   
    30   16   40 1   
    31   16   41 1   
    32   17   42 1   
    33   17   43 1   
    34   18   19 ar  
    35   19   20 1   
    36   20   21 1   
    37   20   44 1   
    38   21   22 ar  
    39   21   24 ar  
    40   22   23 ar  
    41   22   45 1   
    42   23   28 ar  
    43   23   46 1   
    44   24   25 ar  
    45   24   47 1   
    46   25   26 1   
    47   25   28 ar  
    48   26   27 1   
    49   27   48 1   
    50   27   49 1   
    51   27   50 1   
    52   28   29 1   
    53   29   30 1   
    54   30   51 1   
    55   30   52 1   
    56   30   53 1   
@<TRIPOS>SUBSTRUCTURE
     1 13K         1 TEMP              0 ****  ****    0 ROOT
