@<TRIPOS>MOLECULE
13K
   55    58     1     0     0
SMALL
bcc


@<TRIPOS>ATOM
      1 N01         1.6070    2.8650   -0.5980 n4        1 13K     -0.816300
      2 C02         2.8450    2.0600   -0.3890 ca        1 13K      0.706900
      3 N03         3.6190    2.4050    0.6940 nb        1 13K     -0.650000
      4 C04         4.7240    1.6580    0.8790 ca        1 13K      0.491700
      5 N05         3.0850    1.0550   -1.2900 nb        1 13K     -0.650000
      6 C06         4.2010    0.3300   -1.0680 ca        1 13K      0.491700
      7 C07         5.0720    0.5890    0.0140 cp        1 13K     -0.331100
      8 C08         6.2710   -0.2320    0.2550 cp        1 13K      0.557800
      9 C09         7.0290   -0.6870   -0.8580 ca        1 13K     -0.422600
     10 N10         6.5850   -0.5140    1.5270 nb        1 13K     -0.725000
     11 C11         7.7280   -1.3000    1.7590 ca        1 13K      0.939900
     12 N12         8.1130   -1.5500    3.0620 nh        1 13K     -0.693300
     13 C13         9.1640   -2.5270    3.3280 c3        1 13K      0.164800
     14 C14         9.7040   -2.4760    4.7650 c3        1 13K      0.112900
     15 O15         8.6530   -2.4220    5.7160 os        1 13K     -0.378600
     16 C16         7.8590   -1.2600    5.5390 c3        1 13K      0.112900
     17 C17         7.1980   -1.2340    4.1530 c3        1 13K      0.164800
     18 N18         8.5200   -1.8050    0.7170 nb        1 13K     -0.760000
     19 C19         8.1530   -1.4730   -0.5350 ca        1 13K      0.595200
     20 N20         9.0080   -2.0070   -1.6340 n4        1 13K     -0.613100
     21 C21         9.9970   -1.0280   -2.0980 ca        1 13K     -0.090400
     22 C22        11.0650   -0.6700   -1.2700 ca        1 13K     -0.062000
     23 C23        12.0240    0.2300   -1.7360 ca        1 13K     -0.193000
     24 C24         9.8650   -0.4920   -3.4010 ca        1 13K     -0.185000
     25 C25        10.8240    0.3990   -3.8610 ca        1 13K      0.135100
     26 O26        10.8120    1.0040   -5.0900 os        1 13K     -0.276900
     27 C27         9.8910    0.4940   -6.0520 c3        1 13K      0.102700
     28 C28        11.9260    0.7720   -3.0180 ca        1 13K      0.188100
     29 O29        12.7990    1.6550   -3.5730 os        1 13K     -0.271900
     30 C30        13.9440    2.0170   -2.7930 c3        1 13K      0.098700
     31 HN01        1.8540    3.8630   -0.6520 hn        1 13K      0.490467
     32 HN0A        1.1370    2.5770   -1.4700 hn        1 13K      0.490467
     33 H04         5.3440    1.9330    1.7600 h4        1 13K      0.083100
     34 H06         4.3800   -0.4930   -1.7900 h4        1 13K      0.083100
     35 H09         6.7610   -0.4120   -1.8840 ha        1 13K      0.172000
     36 H13         8.7530   -3.5580    3.1270 h1        1 13K      0.075450
     37 H13A       10.0360   -2.3450    2.6390 h1        1 13K      0.075450
     38 H14        10.3910   -1.5990    4.8980 h1        1 13K      0.080700
     39 H14A       10.2460   -3.4330    4.9920 h1        1 13K      0.080700
     40 H16         7.0640   -1.3330    6.3290 h1        1 13K      0.080700
     41 H16A        8.4810   -0.3390    5.6980 h1        1 13K      0.080700
     42 H17         6.7730   -0.2010    4.0060 h1        1 13K      0.075450
     43 H17A        6.3510   -1.9790    4.1370 h1        1 13K      0.075450
     44 HN20        9.5150   -2.8460   -1.3080 hn        1 13K      0.472300
     45 H22        11.1720   -1.0870   -0.2540 ha        1 13K      0.164000
     46 H23        12.8680    0.4990   -1.0800 ha        1 13K      0.178000
     47 H24         9.0280   -0.7800   -4.0550 ha        1 13K      0.151000
     48 H27        10.0420   -0.6020   -6.2060 h1        1 13K      0.059700
     49 H27A        8.8420    0.7140   -5.7400 h1        1 13K      0.059700
     50 H27B       10.1570    1.0670   -6.9790 h1        1 13K      0.059700
     51 H30        14.4950    2.7150   -3.4770 h1        1 13K      0.069033
     52 H30A       13.6280    2.5400   -1.8590 h1        1 13K      0.069033
     53 H30B       14.5600    1.1150   -2.5630 h1        1 13K      0.069033
     54 H013        0.9720    2.7160    0.1990 hn        1 13K      0.490467
     55 H202        8.3920   -2.2690   -2.4140 hn        1 13K      0.472300
@<TRIPOS>BOND
     1    1    2 1   
     2    1   31 1   
     3    1   32 1   
     4    1   54 1   
     5    2    3 ar  
     6    2    5 ar  
     7    3    4 ar  
     8    4    7 ar  
     9    4   33 1   
    10    5    6 ar  
    11    6    7 ar  
    12    6   34 1   
    13    7    8 1   
    14    8    9 ar  
    15    8   10 ar  
    16    9   19 ar  
    17    9   35 1   
    18   10   11 ar  
    19   11   12 1   
    20   11   18 ar  
    21   12   13 1   
    22   12   17 1   
    23   13   14 1   
    24   13   36 1   
    25   13   37 1   
    26   14   15 1   
    27   14   38 1   
    28   14   39 1   
    29   15   16 1   
    30   16   17 1   
    31   16   40 1   
    32   16   41 1   
    33   17   42 1   
    34   17   43 1   
    35   18   19 ar  
    36   19   20 1   
    37   20   21 1   
    38   20   44 1   
    39   20   55 1   
    40   21   22 ar  
    41   21   24 ar  
    42   22   23 ar  
    43   22   45 1   
    44   23   28 ar  
    45   23   46 1   
    46   24   25 ar  
    47   24   47 1   
    48   25   26 1   
    49   25   28 ar  
    50   26   27 1   
    51   27   48 1   
    52   27   49 1   
    53   27   50 1   
    54   28   29 1   
    55   29   30 1   
    56   30   51 1   
    57   30   52 1   
    58   30   53 1   
@<TRIPOS>SUBSTRUCTURE
     1 13K         1 TEMP              0 ****  ****    0 ROOT
