@<TRIPOS>MOLECULE
13K
   53    56     1     0     0
SMALL
bcc


@<TRIPOS>ATOM
      1 N01         7.7750    2.1790   -0.0440 nh        1 13K     -0.938500
      2 C02         6.4810    1.6870    0.0480 ca        1 13K      0.886900
      3 N03         6.1470    0.5810   -0.7360 nb        1 13K     -0.760500
      4 C04         4.8710    0.1820   -0.6890 ca        1 13K      0.501700
      5 N05         5.5850    2.3580    0.8840 nb        1 13K     -0.760500
      6 C06         4.3250    1.9100    0.8820 ca        1 13K      0.501700
      7 C07         3.8840    0.8200    0.1000 cp        1 13K     -0.461100
      8 C08         2.4910    0.3710    0.1220 cp        1 13K      0.578800
      9 C09         1.4730    1.3190    0.3240 ca        1 13K     -0.463600
     10 N10         2.2360   -0.9480   -0.0550 nb        1 13K     -0.776000
     11 C11         0.9050   -1.3340   -0.0400 ca        1 13K      0.899900
     12 N12         0.6070   -2.6880   -0.3680 nh        1 13K     -0.720300
     13 C13        -0.7240   -3.1710   -0.0240 c3        1 13K      0.162300
     14 C14        -0.9920   -4.5900   -0.5420 c3        1 13K      0.118400
     15 O15         0.0430   -5.4940   -0.1780 os        1 13K     -0.412600
     16 C16         1.3080   -5.0610   -0.6590 c3        1 13K      0.118400
     17 C17         1.6700   -3.6600   -0.1500 c3        1 13K      0.162300
     18 N18        -0.1640   -0.4830    0.1940 nb        1 13K     -0.792000
     19 C19         0.1270    0.8380    0.3720 ca        1 13K      0.706200
     20 N20        -0.8880    1.7610    0.6730 nh        1 13K     -0.719300
     21 C21        -2.2650    1.4550    0.5560 ca        1 13K      0.130600
     22 C22        -2.8410    0.4010    1.2840 ca        1 13K     -0.109000
     23 C23        -4.2150    0.1650    1.2170 ca        1 13K     -0.170000
     24 C24        -3.0940    2.2790   -0.2430 ca        1 13K     -0.218000
     25 C25        -4.4640    2.0470   -0.2990 ca        1 13K      0.118100
     26 O26        -5.3600    2.7980   -1.0330 os        1 13K     -0.302900
     27 C27        -4.8000    3.8260   -1.8420 c3        1 13K      0.109700
     28 C28        -5.0370    0.9740    0.4370 ca        1 13K      0.093100
     29 O29        -6.4030    0.8270    0.3030 os        1 13K     -0.302900
     30 C30        -6.9900   -0.2250    1.0610 c3        1 13K      0.110700
     31 HN01        8.0740    2.8420    0.6300 hn        1 13K      0.440300
     32 HN0A        8.4610    1.6150   -0.4830 hn        1 13K      0.440300
     33 H04         4.6220   -0.6960   -1.3170 h4        1 13K      0.038100
     34 H06         3.6310    2.4470    1.5570 h4        1 13K      0.038100
     35 H09         1.7060    2.3830    0.4410 ha        1 13K      0.150000
     36 H13        -0.8730   -3.1600    1.0940 h1        1 13K      0.062450
     37 H13A       -1.4920   -2.4910   -0.4910 h1        1 13K      0.062450
     38 H14        -1.9130   -5.0020   -0.0520 h1        1 13K      0.056950
     39 H14A       -1.1150   -4.5880   -1.6570 h1        1 13K      0.056950
     40 H16         2.0370   -5.8090   -0.2530 h1        1 13K      0.056950
     41 H16A        1.3130   -5.0870   -1.7810 h1        1 13K      0.056950
     42 H17         2.5920   -3.3290   -0.7050 h1        1 13K      0.062450
     43 H17A        1.9230   -3.7280    0.9470 h1        1 13K      0.062450
     44 HN20       -0.6550    2.6990    0.4170 hn        1 13K      0.424800
     45 H22        -2.2180   -0.2530    1.9130 ha        1 13K      0.154000
     46 H23        -4.6380   -0.6700    1.7940 ha        1 13K      0.142000
     47 H24        -2.6560    3.1070   -0.8190 ha        1 13K      0.138000
     48 H27        -4.3010    4.5990   -1.2090 h1        1 13K      0.044033
     49 H27A       -4.0810    3.4020   -2.5840 h1        1 13K      0.044033
     50 H27B       -5.6930    4.2590   -2.3610 h1        1 13K      0.044033
     51 H30        -6.5850   -1.2160    0.7420 h1        1 13K      0.043700
     52 H30A       -6.8230   -0.0670    2.1540 h1        1 13K      0.043700
     53 H30B       -8.0790   -0.1450    0.8120 h1        1 13K      0.043700
@<TRIPOS>BOND
     1    1    2 1   
     2    1   31 1   
     3    1   32 1   
     4    2    3 ar  
     5    2    5 ar  
     6    3    4 ar  
     7    4    7 ar  
     8    4   33 1   
     9    5    6 ar  
    10    6    7 ar  
    11    6   34 1   
    12    7    8 1   
    13    8    9 ar  
    14    8   10 ar  
    15    9   19 ar  
    16    9   35 1   
    17   10   11 ar  
    18   11   12 1   
    19   11   18 ar  
    20   12   13 1   
    21   12   17 1   
    22   13   14 1   
    23   13   36 1   
    24   13   37 1   
    25   14   15 1   
    26   14   38 1   
    27   14   39 1   
    28   15   16 1   
    29   16   17 1   
    30   16   40 1   
    31   16   41 1   
    32   17   42 1   
    33   17   43 1   
    34   18   19 ar  
    35   19   20 1   
    36   20   21 1   
    37   20   44 1   
    38   21   22 ar  
    39   21   24 ar  
    40   22   23 ar  
    41   22   45 1   
    42   23   28 ar  
    43   23   46 1   
    44   24   25 ar  
    45   24   47 1   
    46   25   26 1   
    47   25   28 ar  
    48   26   27 1   
    49   27   48 1   
    50   27   49 1   
    51   27   50 1   
    52   28   29 1   
    53   29   30 1   
    54   30   51 1   
    55   30   52 1   
    56   30   53 1   
@<TRIPOS>SUBSTRUCTURE
     1 13K         1 TEMP              0 ****  ****    0 ROOT
