@<TRIPOS>MOLECULE
13K
   53    50     1     0     0
SMALL
bcc


@<TRIPOS>ATOM
      1 N01        -7.5080   -1.6780    0.6550 n3        1 13K     -0.335000
      2 C02        -6.0630   -1.6540    0.6020 c2        1 13K      0.169000
      3 N03        -5.3950   -0.4700    0.7540 n2        1 13K     -0.235000
      4 C04        -4.0460   -0.4600    0.8180 c1        1 13K      0.047000
      5 N05        -5.3610   -2.8290    0.5140 n1        1 13K     -0.233000
      6 C06        -4.0070   -2.8160    0.5780 c1        1 13K      0.028000
      7 C07        -3.3440   -1.6410    0.7300 c1        1 13K     -0.224000
      8 C08        -1.7560   -1.6230    0.7470 c2        1 13K      0.138000
      9 C09        -1.0610   -1.5630   -0.4310 c2        1 13K     -0.306000
     10 N10        -1.0980   -1.5770    1.9160 n1        1 13K     -0.246000
     11 C11         0.2800   -1.4690    1.9320 c1        1 13K      0.171000
     12 N12         1.0020   -1.5890    3.1930 n3        1 13K     -0.190000
     13 C13         0.1020   -1.4970    4.2600 c3        1 13K     -0.089000
     14 C14        -0.4660   -0.0790    4.4190 c3        1 13K     -0.056000
     15 O15         0.5530    0.9060    4.4710 os        1 13K     -0.272000
     16 C16         1.4560    0.8080    3.4040 c3        1 13K     -0.056000
     17 C17         2.0200   -0.5940    3.2480 c3        1 13K     -0.089000
     18 N18         0.9760   -1.4100    0.7530 n1        1 13K     -0.280000
     19 C19         0.3190   -1.4560   -0.4170 c1        1 13K      0.181000
     20 N20         1.0630   -1.5010   -1.6690 n3        1 13K     -0.251000
     21 C21         1.7980   -0.3470   -2.1080 c2        1 13K      0.060000
     22 C22         3.0320   -0.0520   -1.5400 c2        1 13K     -0.158000
     23 C23         3.7260    1.0950   -1.9280 c1        1 13K     -0.104000
     24 C24         1.2540    0.4990   -3.0620 c1        1 13K     -0.173000
     25 C25         1.9500    1.6520   -3.4520 c1        1 13K      0.029500
     26 O26         1.3780    2.5330   -4.3540 os        1 13K     -0.226500
     27 C27         1.5480    2.1420   -5.7560 c3        1 13K     -0.078500
     28 C28         3.1850    1.9450   -2.8820 c1        1 13K      0.029500
     29 O29         3.8580    3.1700   -3.2190 os        1 13K     -0.226500
     30 C30         3.6930    4.2170   -2.2530 c3        1 13K     -0.078500
     31 HN01       -7.9580   -2.4400    0.4490 hn        1 13K      0.236000
     32 HN0A       -7.9690   -0.9280    0.9170 hn        1 13K      0.236000
     33 H04        -3.5510    0.4160    0.9300 ha        1 13K      0.180000
     34 H06        -3.5230   -3.6280    0.5170 ha        1 13K      0.170000
     35 H09        -1.5230   -1.5970   -1.2500 ha        1 13K      0.162000
     36 H13         0.5550   -1.7500    5.0780 h1        1 13K      0.118750
     37 H13A       -0.6610   -2.1380    4.0970 h1        1 13K      0.118750
     38 H14        -0.9960   -0.0350    5.2640 h1        1 13K      0.096750
     39 H14A       -1.0830    0.1230    3.6290 h1        1 13K      0.096750
     40 H16         2.1850    1.4190    3.5550 h1        1 13K      0.096750
     41 H16A        0.9830    1.0680    2.5500 h1        1 13K      0.096750
     42 H17         2.6480   -0.7970    4.0610 h1        1 13K      0.118750
     43 H17A        2.5170   -0.6300    2.4680 h1        1 13K      0.118750
     44 HN20        1.1470   -2.2550   -2.0960 hn        1 13K      0.235000
     45 H22         3.4110   -0.6430   -0.8720 ha        1 13K      0.144000
     46 H23         4.6380    1.3100   -1.5050 ha        1 13K      0.152000
     47 H24         0.3620    0.3210   -3.4210 ha        1 13K      0.162000
     48 H27         0.8280    1.5820   -6.0180 h1        1 13K      0.086000
     49 H27A        2.4160    1.6460   -5.8640 h1        1 13K      0.086000
     50 H27B        1.5580    2.9540   -6.3280 h1        1 13K      0.086000
     51 H30         4.4420    4.2200   -1.6540 h1        1 13K      0.086000
     52 H30A        2.8460    4.0640   -1.7280 h1        1 13K      0.086000
     53 H30B        3.6420    5.0570   -2.7020 h1        1 13K      0.086000
@<TRIPOS>BOND
     1    1    2 1   
     2    1   31 1   
     3    1   32 1   
     4    2    3 1   
     5    2    5 1   
     6    3    4 1   
     7    4   33 1   
     8    6    7 1   
     9    6   34 1   
    10    7    8 1   
    11    8    9 1   
    12    8   10 1   
    13    9   19 1   
    14    9   35 1   
    15   11   12 1   
    16   11   18 1   
    17   12   13 1   
    18   12   17 1   
    19   13   14 1   
    20   13   36 1   
    21   13   37 1   
    22   14   15 1   
    23   14   38 1   
    24   14   39 1   
    25   15   16 1   
    26   16   17 1   
    27   16   40 1   
    28   16   41 1   
    29   17   42 1   
    30   17   43 1   
    31   19   20 1   
    32   20   21 1   
    33   20   44 1   
    34   21   22 1   
    35   21   24 1   
    36   22   23 1   
    37   22   45 1   
    38   23   46 1   
    39   24   47 1   
    40   25   26 1   
    41   25   28 1   
    42   26   27 1   
    43   27   48 1   
    44   27   49 1   
    45   27   50 1   
    46   28   29 1   
    47   29   30 1   
    48   30   51 1   
    49   30   52 1   
    50   30   53 1   
@<TRIPOS>SUBSTRUCTURE
     1 13K         1 TEMP              0 ****  ****    0 ROOT
