@<TRIPOS>MOLECULE
13L
   71    75     1     0     0
SMALL
bcc


@<TRIPOS>ATOM
      1 C4         -8.2380   -0.3920    0.8540 ca        1 13L     -0.101000
      2 C7         -6.2700   -0.2140   -1.1190 ca        1 13L     -0.168000
      3 C6         -6.9200   -0.6960    1.1700 ca        1 13L     -0.168000
      4 C9          2.6810    3.8200    0.9950 ca        1 13L      0.698900
      5 C13        -8.5960    0.0040   -0.4390 ca        1 13L     -0.098300
      6 C20         6.0740    0.0350   -2.7650 c3        1 13L     -0.104400
      7 C21         4.6840    0.1750   -2.1820 c3        1 13L     -0.098400
      8 C8         -1.0270   -0.4800    0.2130 ca        1 13L     -0.077000
      9 C18        -3.4430   -0.8300   -0.2180 c         1 13L      0.677700
     10 C16         2.9300    1.6460    0.4090 ca        1 13L      0.479800
     11 C19         7.9560   -0.9170    0.0340 c         1 13L      0.652100
     12 C26       -10.1620    1.7720   -1.2060 c3        1 13L     -0.088100
     13 C1         -0.8790   -2.7660    1.8130 ca        1 13L     -0.139000
     14 C2          0.2620   -1.9940    1.5990 ca        1 13L     -0.080000
     15 C3         -2.0970   -2.3990    1.2410 ca        1 13L     -0.101000
     16 C5         -7.5960    0.0860   -1.4130 ca        1 13L     -0.101000
     17 C10         1.5630    1.3690    0.8220 ca        1 13L     -0.496500
     18 C11         0.1900   -0.8430    0.8010 ca        1 13L     -0.105900
     19 C12        -2.1710   -1.2510    0.4460 ca        1 13L     -0.151600
     20 C14        -5.9070   -0.6120    0.1840 ca        1 13L      0.063600
     21 C15         1.3880   -0.0480    0.5640 cc        1 13L      0.417500
     22 C17         0.8120    2.4630    1.3540 ca        1 13L      0.766200
     23 C22         6.8060   -1.1690   -2.1660 c3        1 13L      0.083000
     24 C23         5.5050   -1.0210   -0.1210 c3        1 13L      0.074000
     25 C24         4.7680    0.2480   -0.6490 c3        1 13L      0.052000
     26 C25        10.4260   -0.8300    0.3680 c3        1 13L     -0.088100
     27 C27       -10.5660   -0.6090   -1.8230 c3        1 13L     -0.088100
     28 C28         9.3150   -0.9720   -0.6400 c3        1 13L     -0.144400
     29 C29       -10.0200    0.3290   -0.7620 c3        1 13L     -0.019400
     30 N30         3.5100    2.8830    0.4820 nb        1 13L     -0.740000
     31 N31         1.3990    3.7050    1.4360 nb        1 13L     -0.799000
     32 N32         2.5370   -0.5650    0.0560 nd        1 13L     -0.504100
     33 N33         3.4620    0.4110   -0.0160 na        1 13L      0.006200
     34 N34         6.8110   -1.1830   -0.7210 n         1 13L     -0.465800
     35 N35        -0.4860    2.2870    1.7610 nh        1 13L     -0.964500
     36 N36        -4.5910   -0.9380    0.5550 n         1 13L     -0.469100
     37 O37        -3.4420   -0.3940   -1.3830 o         1 13L     -0.578100
     38 O38         7.8530   -0.7030    1.2580 o         1 13L     -0.597100
     39 H1         -9.0080   -0.4650    1.6380 ha        1 13L      0.134000
     40 H2         -5.5130   -0.1360   -1.9160 ha        1 13L      0.149500
     41 H3         -6.6770   -1.0030    2.1990 ha        1 13L      0.149500
     42 H4          3.1080    4.8430    1.0750 h5        1 13L      0.054100
     43 H5          6.0020   -0.1090   -3.8740 hc        1 13L      0.053700
     44 H6          6.6610    0.9720   -2.5800 hc        1 13L      0.053700
     45 H7          4.1980    1.1010   -2.5850 hc        1 13L      0.060700
     46 H8          4.0550   -0.7030   -2.4860 hc        1 13L      0.060700
     47 H9         -1.0880    0.3950   -0.4570 ha        1 13L      0.168000
     48 H10       -11.2350    2.0050   -1.4090 hc        1 13L      0.036367
     49 H11        -9.7900    2.4630   -0.4120 hc        1 13L      0.036367
     50 H12        -9.5760    1.9570   -2.1380 hc        1 13L      0.036367
     51 H13        -0.8170   -3.6740    2.4310 ha        1 13L      0.143000
     52 H14         1.2230   -2.2910    2.0460 ha        1 13L      0.153000
     53 H15        -2.9830   -3.0310    1.4020 ha        1 13L      0.139000
     54 H16        -7.8590    0.3960   -2.4370 ha        1 13L      0.134000
     55 H17         6.2840   -2.1110   -2.5070 h1        1 13L      0.053700
     56 H18         7.8550   -1.1960   -2.5690 h1        1 13L      0.053700
     57 H19         5.6090   -0.9560    0.9980 h1        1 13L      0.083200
     58 H20         4.8980   -1.9350   -0.3780 h1        1 13L      0.083200
     59 H21         5.3690    1.1620   -0.3590 h1        1 13L      0.097700
     60 H22        10.3340    0.1360    0.9200 hc        1 13L      0.046700
     61 H23        10.3830   -1.6580    1.1170 hc        1 13L      0.046700
     62 H24        11.4150   -0.8610   -0.1500 hc        1 13L      0.046700
     63 H25       -10.4900   -1.6690   -1.4820 hc        1 13L      0.036367
     64 H26       -11.6380   -0.3730   -2.0250 hc        1 13L      0.036367
     65 H27        -9.9930   -0.5020   -2.7750 hc        1 13L      0.036367
     66 H28         9.4210   -1.9470   -1.1850 hc        1 13L      0.062200
     67 H29         9.3780   -0.1410   -1.3920 hc        1 13L      0.062200
     68 H30       -10.6390    0.1920    0.1720 hc        1 13L      0.048700
     69 H31        -0.8490    1.3670    1.8000 hn        1 13L      0.444800
     70 H32        -0.9830    3.0260    2.1930 hn        1 13L      0.444800
     71 H33        -4.4780   -1.2610    1.4910 hn        1 13L      0.316500
@<TRIPOS>BOND
     1    1    3 ar  
     2    1    5 ar  
     3    1   39 1   
     4    2   16 ar  
     5    2   20 ar  
     6    2   40 1   
     7    3   20 ar  
     8    3   41 1   
     9    4   30 ar  
    10    4   31 ar  
    11    4   42 1   
    12    5   16 ar  
    13    5   29 1   
    14    6    7 1   
    15    6   23 1   
    16    6   43 1   
    17    6   44 1   
    18    7   25 1   
    19    7   45 1   
    20    7   46 1   
    21    8   18 ar  
    22    8   19 ar  
    23    8   47 1   
    24    9   19 1   
    25    9   36 1   
    26    9   37 2   
    27   10   17 ar  
    28   10   30 ar  
    29   10   33 1   
    30   11   28 1   
    31   11   34 1   
    32   11   38 2   
    33   12   29 1   
    34   12   48 1   
    35   12   49 1   
    36   12   50 1   
    37   13   14 ar  
    38   13   15 ar  
    39   13   51 1   
    40   14   18 ar  
    41   14   52 1   
    42   15   19 ar  
    43   15   53 1   
    44   16   54 1   
    45   17   21 1   
    46   17   22 ar  
    47   18   21 1   
    48   20   36 1   
    49   21   32 2   
    50   22   31 ar  
    51   22   35 1   
    52   23   34 1   
    53   23   55 1   
    54   23   56 1   
    55   24   25 1   
    56   24   34 1   
    57   24   57 1   
    58   24   58 1   
    59   25   33 1   
    60   25   59 1   
    61   26   28 1   
    62   26   60 1   
    63   26   61 1   
    64   26   62 1   
    65   27   29 1   
    66   27   63 1   
    67   27   64 1   
    68   27   65 1   
    69   28   66 1   
    70   28   67 1   
    71   29   68 1   
    72   32   33 1   
    73   35   69 1   
    74   35   70 1   
    75   36   71 1   
@<TRIPOS>SUBSTRUCTURE
     1 13L         1 TEMP              0 ****  ****    0 ROOT
