@<TRIPOS>MOLECULE
13L
   71    62     1     0     0
SMALL
bcc


@<TRIPOS>ATOM
      1 C4         -4.3240    6.1980   -1.5670 c1        1 13L     -0.102000
      2 C7         -5.0880    3.7760   -0.4510 c1        1 13L     -0.150000
      3 C6         -3.6350    5.0380   -1.8900 c1        1 13L     -0.180000
      4 C9          0.4280   -5.4390    1.1670 c1        1 13L      0.038000
      5 C13        -5.3940    6.1470   -0.6870 c1        1 13L     -0.089000
      6 C20         5.4030   -1.3450    2.3690 c3        1 13L     -0.184000
      7 C21         4.0900   -1.1500    1.7230 c3        1 13L     -0.168000
      8 C8         -0.7350    0.3430   -1.0930 c1        1 13L     -0.085000
      9 C18        -2.2690    2.0990   -1.2760 c1        1 13L      0.353000
     10 C16         1.3830   -3.3270    0.7350 c1        1 13L      0.086000
     11 C19         6.2130   -4.6940    1.8670 c1        1 13L      0.295000
     12 C26        -7.4800    7.4550   -0.7900 c3        1 13L     -0.206000
     13 C1         -0.4490   -0.0960   -3.8150 c1        1 13L     -0.117500
     14 C2          0.0510   -1.0160   -2.9090 c1        1 13L     -0.081000
     15 C3         -1.0910    1.0440   -3.3610 c1        1 13L     -0.117500
     16 C5         -5.7760    4.9360   -0.1290 c2        1 13L     -0.101000
     17 C10         0.3470   -3.0240   -0.0700 c1        1 13L     -0.282000
     18 C11        -0.0920   -0.7970   -1.5470 c1        1 13L     -0.017000
     19 C12        -1.2350    1.2640   -2.0000 c1        1 13L     -0.130000
     20 C14        -4.0180    3.8260   -1.3310 c1        1 13L      0.068000
     21 C15         0.5470   -1.7430   -0.5610 c1        1 13L     -0.039000
     22 C17        -0.6690   -3.9440   -0.2640 c1        1 13L      0.246000
     23 C22         6.2150   -2.2840    1.7170 c3        1 13L     -0.043000
     24 C23         4.3440   -3.3850    0.8100 c3        1 13L     -0.045000
     25 C24         3.2890   -2.4530    1.5290 c3        1 13L      0.030000
     26 C25         6.3070   -7.1440    2.1300 c3        1 13L     -0.205000
     27 C27        -5.8730    7.8500    1.0360 c3        1 13L     -0.206000
     28 C28         5.5030   -5.9900    1.5730 c3        1 13L     -0.176000
     29 C29        -6.0190    7.5000   -0.4280 c2        1 13L     -0.067000
     30 N30         1.4280   -4.5360    1.3590 n1        1 13L     -0.223000
     31 N31        -0.6210   -5.1340    0.3510 n2        1 13L     -0.273000
     32 N32         1.7020   -1.2770   -0.0500 n2        1 13L     -0.038000
     33 N33         2.2310   -2.2490    0.7560 n2        1 13L     -0.136000
     34 N34         5.6260   -3.4590    1.4840 n2        1 13L     -0.318000
     35 N35        -1.7240   -4.1370   -1.1930 n2        1 13L     -0.350000
     36 N36        -2.9520    3.1330   -1.9680 n2        1 13L     -0.316000
     37 O37        -2.5970    1.8100   -0.1420 o         1 13L     -0.351000
     38 O38         7.2900   -4.7050    2.4290 o         1 13L     -0.358000
     39 H1         -4.0540    7.0520   -1.9610 ha        1 13L      0.132000
     40 H2         -5.3570    2.9220   -0.0580 ha        1 13L      0.171000
     41 H3         -2.8820    5.0730   -2.5090 ha        1 13L      0.128000
     42 H4          0.4620   -6.3040    1.6140 ha        1 13L      0.191000
     43 H5          5.8720   -0.4860    2.3890 hc        1 13L      0.095500
     44 H6          5.2560   -1.6430    3.2900 hc        1 13L      0.095500
     45 H7          3.5610   -0.5380    2.2720 hc        1 13L      0.100000
     46 H8          4.2320   -0.7400    0.8480 hc        1 13L      0.100000
     47 H9         -0.8360    0.4980   -0.1350 ha        1 13L      0.160000
     48 H10        -7.8400    8.3660   -0.8070 hc        1 13L      0.076000
     49 H11        -7.9650    6.9250   -0.1250 hc        1 13L      0.076000
     50 H12        -7.5850    7.0460   -1.6730 hc        1 13L      0.076000
     51 H13        -0.3480   -0.2500   -4.7750 ha        1 13L      0.142500
     52 H14         0.5030   -1.8190   -3.2290 ha        1 13L      0.151000
     53 H15        -1.4430    1.6920   -3.9990 ha        1 13L      0.142500
     54 H16        -6.5300    4.9000    0.4910 ha        1 13L      0.137000
     55 H17         7.0110   -2.4410    2.2690 h1        1 13L      0.108500
     56 H18         6.5020   -1.9040    0.8590 h1        1 13L      0.108500
     57 H19         4.4880   -3.0470   -0.0970 h1        1 13L      0.105500
     58 H20         3.9710   -4.2890    0.7510 h1        1 13L      0.105500
     59 H21         3.0240   -2.8300    2.3920 h1        1 13L      0.134000
     60 H22         7.1140   -7.2710    1.5870 hc        1 13L      0.085667
     61 H23         6.5640   -6.9470    3.0560 hc        1 13L      0.085667
     62 H24         5.7670   -7.9590    2.1080 hc        1 13L      0.085667
     63 H25        -6.4770    7.2890    1.5680 hc        1 13L      0.076000
     64 H26        -6.1010    8.7930    1.1700 hc        1 13L      0.076000
     65 H27        -4.9490    7.6940    1.3180 hc        1 13L      0.076000
     66 H28         5.4070   -6.0960    0.6060 hc        1 13L      0.105500
     67 H29         4.6180   -5.9780    1.9890 hc        1 13L      0.105500
     68 H30        -5.5700    8.1750   -0.9700 ha        1 13L      0.088000
     69 H31        -1.9830   -3.4520   -1.7400 hn        1 13L      0.243000
     70 H32        -2.1480   -4.9460   -1.2420 hn        1 13L      0.243000
     71 H33        -2.6400    3.4220   -2.7690 hn        1 13L      0.234000
@<TRIPOS>BOND
     1    1    5 1   
     2    1   39 1   
     3    2   16 1   
     4    2   40 1   
     5    3   20 1   
     6    3   41 1   
     7    4   31 1   
     8    4   42 1   
     9    5   16 1   
    10    6    7 1   
    11    6   23 1   
    12    6   43 1   
    13    6   44 1   
    14    7   25 1   
    15    7   45 1   
    16    7   46 1   
    17    8   19 1   
    18    8   47 1   
    19    9   19 1   
    20    9   37 1   
    21   10   30 1   
    22   11   28 1   
    23   11   38 1   
    24   12   29 1   
    25   12   48 1   
    26   12   49 1   
    27   12   50 1   
    28   13   15 1   
    29   13   51 1   
    30   14   18 1   
    31   14   52 1   
    32   15   53 1   
    33   16   54 1   
    34   17   22 1   
    35   18   21 1   
    36   20   36 1   
    37   21   32 1   
    38   22   31 1   
    39   23   34 1   
    40   23   55 1   
    41   23   56 1   
    42   24   25 1   
    43   24   34 1   
    44   24   57 1   
    45   24   58 1   
    46   25   33 1   
    47   25   59 1   
    48   26   28 1   
    49   26   60 1   
    50   26   61 1   
    51   26   62 1   
    52   27   29 1   
    53   27   63 1   
    54   27   64 1   
    55   27   65 1   
    56   28   66 1   
    57   28   67 1   
    58   29   68 1   
    59   32   33 1   
    60   35   69 1   
    61   35   70 1   
    62   36   71 1   
@<TRIPOS>SUBSTRUCTURE
     1 13L         1 TEMP              0 ****  ****    0 ROOT
