@<TRIPOS>MOLECULE
13L
   71    75     1     0     0
SMALL
bcc


@<TRIPOS>ATOM
      1 C4         -0.0710   -0.3910    0.1040 ca        1 13L     -0.101000
      2 C7          1.2310    0.0670    2.5310 ca        1 13L     -0.168000
      3 C6          1.3050   -0.5610    0.1870 ca        1 13L     -0.168000
      4 C9          8.4330   -6.1870    5.6800 ca        1 13L      0.698900
      5 C13        -0.8170    0.0070    1.2190 ca        1 13L     -0.098300
      6 C20        12.0260   -1.7900    8.4570 c3        1 13L     -0.104400
      7 C21        10.8390   -1.9240    7.5280 c3        1 13L     -0.098400
      8 C8          6.3900   -1.4410    3.1990 ca        1 13L     -0.077000
      9 C18         4.2180   -0.4430    2.5410 c         1 13L      0.677700
     10 C16         9.2930   -4.1170    5.3500 ca        1 13L      0.479800
     11 C19        14.6860   -2.7850    6.4030 c         1 13L      0.652100
     12 C26        -3.0300   -0.7710    2.0350 c3        1 13L     -0.088100
     13 C1          7.6740   -0.3670    0.9610 ca        1 13L     -0.139000
     14 C2          8.3960   -1.1340    1.8740 ca        1 13L     -0.080000
     15 C3          6.3110   -0.1400    1.1530 ca        1 13L     -0.101000
     16 C5         -0.1470    0.2310    2.4250 ca        1 13L     -0.101000
     17 C10         8.2340   -3.8200    4.3970 ca        1 13L     -0.496500
     18 C11         7.7540   -1.6800    2.9940 ca        1 13L     -0.105900
     19 C12         5.6690   -0.6830    2.2690 ca        1 13L     -0.151600
     20 C14         1.9850   -0.3350    1.4090 ca        1 13L      0.063600
     21 C15         8.5140   -2.4670    3.9570 cc        1 13L      0.417500
     22 C17         7.2830   -4.8560    4.1390 ca        1 13L      0.766200
     23 C22        13.2460   -1.2300    7.7200 c3        1 13L      0.083000
     24 C23        12.4550   -2.1280    5.6060 c3        1 13L      0.074000
     25 C24        11.2250   -2.7780    6.3110 c3        1 13L      0.052000
     26 C25        16.9800   -3.5220    7.0500 c3        1 13L     -0.088100
     27 C27        -2.6970    1.6180    1.4060 c3        1 13L     -0.088100
     28 C28        15.7960   -2.6700    7.4320 c3        1 13L     -0.144400
     29 C29        -2.2980    0.1850    1.1110 c3        1 13L     -0.019400
     30 N30         9.4040   -5.3090    6.0150 nb        1 13L     -0.740000
     31 N31         7.4010   -6.0570    4.8020 nb        1 13L     -0.799000
     32 N32         9.6320   -2.0060    4.5780 nd        1 13L     -0.504100
     33 N33        10.1170   -2.9730    5.3800 na        1 13L      0.006200
     34 N34        13.5710   -1.9510    6.5100 n         1 13L     -0.465800
     35 N35         6.2520   -4.6540    3.2590 nv        1 13L     -0.964500
     36 N36         3.3780   -0.5150    1.4380 ns        1 13L     -0.469100
     37 O37         3.8120   -0.2180    3.6960 o         1 13L     -0.578100
     38 O38        14.7850   -3.5640    5.4340 o         1 13L     -0.597100
     39 H1         -0.5760   -0.5730   -0.8570 ha        1 13L      0.134000
     40 H2          1.7200    0.2540    3.5020 ha        1 13L      0.149500
     41 H3          1.8580   -0.8750   -0.7110 ha        1 13L      0.149500
     42 H4          8.4810   -7.1710    6.1950 h5        1 13L      0.054100
     43 H5         11.7690   -1.0940    9.2970 hc        1 13L      0.053700
     44 H6         12.2740   -2.7870    8.9060 hc        1 13L      0.053700
     45 H7          9.9850   -2.3990    8.0760 hc        1 13L      0.060700
     46 H8         10.5060   -0.9080    7.1900 hc        1 13L      0.060700
     47 H9          5.8820   -1.8230    4.1010 ha        1 13L      0.168000
     48 H10        -2.7640   -0.5700    3.1000 hc        1 13L      0.036367
     49 H11        -2.7600   -1.8270    1.7960 hc        1 13L      0.036367
     50 H12        -4.1330   -0.6470    1.9150 hc        1 13L      0.036367
     51 H13         8.1840    0.0680    0.0880 ha        1 13L      0.143000
     52 H14         9.4730   -1.3060    1.7230 ha        1 13L      0.153000
     53 H15         5.7610    0.4870    0.4350 ha        1 13L      0.139000
     54 H16        -0.7170    0.5440    3.3140 ha        1 13L      0.134000
     55 H17        13.0240   -0.1630    7.4230 h1        1 13L      0.053700
     56 H18        14.1220   -1.2130    8.4220 h1        1 13L      0.053700
     57 H19        12.1660   -1.1090    5.2200 h1        1 13L      0.083200
     58 H20        12.7730   -2.7700    4.7370 h1        1 13L      0.083200
     59 H21        11.5160   -3.8120    6.6670 h1        1 13L      0.097700
     60 H22        17.7770   -3.4320    7.8260 hc        1 13L      0.046700
     61 H23        17.3920   -3.1980    6.0640 hc        1 13L      0.046700
     62 H24        16.6780   -4.5930    6.9600 hc        1 13L      0.046700
     63 H25        -3.8010    1.7390    1.2870 hc        1 13L      0.036367
     64 H26        -2.4200    1.8970    2.4510 hc        1 13L      0.036367
     65 H27        -2.1830    2.3180    0.7050 hc        1 13L      0.036367
     66 H28        15.3980   -3.0000    8.4290 hc        1 13L      0.062200
     67 H29        16.1140   -1.5980    7.5190 hc        1 13L      0.062200
     68 H30        -2.6110   -0.0510    0.0520 hc        1 13L      0.048700
     69 H31         5.6350   -5.3940    3.0290 hn        1 13L      0.444800
     70 H32         6.2520   -3.8300    2.7110 hn        1 13L      0.444800
     71 H33         3.7980   -0.7410    0.5630 hn        1 13L      0.316500
@<TRIPOS>BOND
     1    1    3 ar  
     2    1    5 ar  
     3    1   39 1   
     4    2   16 ar  
     5    2   20 ar  
     6    2   40 1   
     7    3   20 ar  
     8    3   41 1   
     9    4   30 ar  
    10    4   31 ar  
    11    4   42 1   
    12    5   16 ar  
    13    5   29 1   
    14    6    7 1   
    15    6   23 1   
    16    6   43 1   
    17    6   44 1   
    18    7   25 1   
    19    7   45 1   
    20    7   46 1   
    21    8   18 ar  
    22    8   19 ar  
    23    8   47 1   
    24    9   19 1   
    25    9   36 1   
    26    9   37 2   
    27   10   17 ar  
    28   10   30 ar  
    29   10   33 1   
    30   11   28 1   
    31   11   34 1   
    32   11   38 2   
    33   12   29 1   
    34   12   48 1   
    35   12   49 1   
    36   12   50 1   
    37   13   14 ar  
    38   13   15 ar  
    39   13   51 1   
    40   14   18 ar  
    41   14   52 1   
    42   15   19 ar  
    43   15   53 1   
    44   16   54 1   
    45   17   21 1   
    46   17   22 ar  
    47   18   21 1   
    48   20   36 1   
    49   21   32 2   
    50   22   31 ar  
    51   22   35 1   
    52   23   34 1   
    53   23   55 1   
    54   23   56 1   
    55   24   25 1   
    56   24   34 1   
    57   24   57 1   
    58   24   58 1   
    59   25   33 1   
    60   25   59 1   
    61   26   28 1   
    62   26   60 1   
    63   26   61 1   
    64   26   62 1   
    65   27   29 1   
    66   27   63 1   
    67   27   64 1   
    68   27   65 1   
    69   28   66 1   
    70   28   67 1   
    71   29   68 1   
    72   32   33 1   
    73   35   69 1   
    74   35   70 1   
    75   36   71 1   
@<TRIPOS>SUBSTRUCTURE
     1 13L         1 TEMP              0 ****  ****    0 ROOT
