@<TRIPOS>MOLECULE
13L
   71    75     1     0     0
SMALL
bcc


@<TRIPOS>ATOM
      1 C4         -0.0690   -0.3800    0.1030 ca        1 13L     -0.100500
      2 C7          1.2260    0.0600    2.5380 ca        1 13L     -0.168000
      3 C6          1.3070   -0.5460    0.1880 ca        1 13L     -0.168000
      4 C9          8.4400   -6.1900    5.6550 ca        1 13L      0.698900
      5 C13        -0.8190    0.0040    1.2200 ca        1 13L     -0.098300
      6 C20        12.0260   -1.7990    8.4600 c3        1 13L     -0.104400
      7 C21        10.8390   -1.9300    7.5300 c3        1 13L     -0.098400
      8 C8          6.3890   -1.4340    3.2020 ca        1 13L     -0.077000
      9 C18         4.2150   -0.4380    2.5480 c         1 13L      0.677700
     10 C16         9.2960   -4.1170    5.3390 ca        1 13L      0.479800
     11 C19        14.6870   -2.7890    6.4040 c         1 13L      0.652100
     12 C26        -3.0300   -0.7890    2.0240 c3        1 13L     -0.088100
     13 C1          7.6730   -0.3420    0.9740 ca        1 13L     -0.139000
     14 C2          8.3960   -1.1130    1.8820 ca        1 13L     -0.080000
     15 C3          6.3100   -0.1190    1.1650 ca        1 13L     -0.101000
     16 C5         -0.1520    0.2200    2.4300 ca        1 13L     -0.100500
     17 C10         8.2380   -3.8160    4.3880 ca        1 13L     -0.496500
     18 C11         7.7540   -1.6680    2.9980 ca        1 13L     -0.105900
     19 C12         5.6670   -0.6720    2.2770 ca        1 13L     -0.151600
     20 C14         1.9840   -0.3290    1.4130 ca        1 13L      0.063600
     21 C15         8.5160   -2.4590    3.9560 cc        1 13L      0.417500
     22 C17         7.2890   -4.8530    4.1230 ca        1 13L      0.766200
     23 C22        13.2460   -1.2380    7.7240 c3        1 13L      0.083000
     24 C23        12.4570   -2.1280    5.6080 c3        1 13L      0.074000
     25 C24        11.2260   -2.7800    6.3090 c3        1 13L      0.052000
     26 C25        16.9790   -3.5290    7.0500 c3        1 13L     -0.088100
     27 C27        -2.7060    1.6070    1.4190 c3        1 13L     -0.088100
     28 C28        15.7960   -2.6780    7.4340 c3        1 13L     -0.144400
     29 C29        -2.3000    0.1780    1.1110 c3        1 13L     -0.019400
     30 N30         9.4090   -5.3120    5.9970 nb        1 13L     -0.740000
     31 N31         7.4090   -6.0570    4.7780 nb        1 13L     -0.799000
     32 N32         9.6310   -2.0000    4.5810 nd        1 13L     -0.504100
     33 N33        10.1170   -2.9710    5.3770 na        1 13L      0.006200
     34 N34        13.5720   -1.9540    6.5130 n         1 13L     -0.465800
     35 N35         6.2580   -4.6470    3.2420 nh        1 13L     -0.964500
     36 N36         3.3770   -0.5050    1.4430 n         1 13L     -0.469100
     37 O37         3.8070   -0.2220    3.7030 o         1 13L     -0.578100
     38 O38        14.7860   -3.5640    5.4320 o         1 13L     -0.597100
     39 H1         -0.5720   -0.5550   -0.8610 ha        1 13L      0.134000
     40 H2          1.7120    0.2390    3.5110 ha        1 13L      0.149500
     41 H3          1.8630   -0.8500   -0.7120 ha        1 13L      0.149500
     42 H4          8.4900   -7.1770    6.1650 h5        1 13L      0.054100
     43 H5         12.2730   -2.7980    8.9050 hc        1 13L      0.053700
     44 H6         11.7690   -1.1050    9.3010 hc        1 13L      0.053700
     45 H7         10.5070   -0.9120    7.1940 hc        1 13L      0.060700
     46 H8          9.9850   -2.4060    8.0750 hc        1 13L      0.060700
     47 H9          5.8810   -1.8230    4.1010 ha        1 13L      0.168000
     48 H10        -2.7670   -0.5970    3.0920 hc        1 13L      0.036367
     49 H11        -2.7560   -1.8420    1.7760 hc        1 13L      0.036367
     50 H12        -4.1340   -0.6680    1.9040 hc        1 13L      0.036367
     51 H13         8.1830    0.1010    0.1050 ha        1 13L      0.143000
     52 H14         9.4750   -1.2800    1.7310 ha        1 13L      0.153000
     53 H15         5.7590    0.5110    0.4510 ha        1 13L      0.139000
     54 H16        -0.7250    0.5230    3.3210 ha        1 13L      0.134000
     55 H17        13.0250   -0.1690    7.4310 h1        1 13L      0.053700
     56 H18        14.1230   -1.2230    8.4270 h1        1 13L      0.053700
     57 H19        12.7740   -2.7670    4.7360 h1        1 13L      0.083200
     58 H20        12.1680   -1.1080    5.2250 h1        1 13L      0.083200
     59 H21        11.5160   -3.8150    6.6620 h1        1 13L      0.097700
     60 H22        17.3930   -3.2030    6.0650 hc        1 13L      0.046700
     61 H23        17.7770   -3.4410    7.8260 hc        1 13L      0.046700
     62 H24        16.6770   -4.6000    6.9570 hc        1 13L      0.046700
     63 H25        -2.1930    2.3150    0.7260 hc        1 13L      0.036367
     64 H26        -3.8090    1.7250    1.2990 hc        1 13L      0.036367
     65 H27        -2.4320    1.8770    2.4670 hc        1 13L      0.036367
     66 H28        15.3970   -3.0100    8.4290 hc        1 13L      0.062200
     67 H29        16.1150   -1.6060    7.5240 hc        1 13L      0.062200
     68 H30        -2.6100   -0.0490    0.0490 hc        1 13L      0.048700
     69 H31         5.6430   -5.3860    3.0070 hn        1 13L      0.444800
     70 H32         6.2570   -3.8200    2.6990 hn        1 13L      0.444800
     71 H33         3.7990   -0.7230    0.5670 hn        1 13L      0.316500
@<TRIPOS>BOND
     1    1    3 ar  
     2    1    5 ar  
     3    1   39 1   
     4    2   16 ar  
     5    2   20 ar  
     6    2   40 1   
     7    3   20 ar  
     8    3   41 1   
     9    4   30 ar  
    10    4   31 ar  
    11    4   42 1   
    12    5   16 ar  
    13    5   29 1   
    14    6    7 1   
    15    6   23 1   
    16    6   43 1   
    17    6   44 1   
    18    7   25 1   
    19    7   45 1   
    20    7   46 1   
    21    8   18 ar  
    22    8   19 ar  
    23    8   47 1   
    24    9   19 1   
    25    9   36 1   
    26    9   37 2   
    27   10   17 ar  
    28   10   30 ar  
    29   10   33 1   
    30   11   28 1   
    31   11   34 1   
    32   11   38 2   
    33   12   29 1   
    34   12   48 1   
    35   12   49 1   
    36   12   50 1   
    37   13   14 ar  
    38   13   15 ar  
    39   13   51 1   
    40   14   18 ar  
    41   14   52 1   
    42   15   19 ar  
    43   15   53 1   
    44   16   54 1   
    45   17   21 1   
    46   17   22 ar  
    47   18   21 1   
    48   20   36 1   
    49   21   32 2   
    50   22   31 ar  
    51   22   35 1   
    52   23   34 1   
    53   23   55 1   
    54   23   56 1   
    55   24   25 1   
    56   24   34 1   
    57   24   57 1   
    58   24   58 1   
    59   25   33 1   
    60   25   59 1   
    61   26   28 1   
    62   26   60 1   
    63   26   61 1   
    64   26   62 1   
    65   27   29 1   
    66   27   63 1   
    67   27   64 1   
    68   27   65 1   
    69   28   66 1   
    70   28   67 1   
    71   29   68 1   
    72   32   33 1   
    73   35   69 1   
    74   35   70 1   
    75   36   71 1   
@<TRIPOS>SUBSTRUCTURE
     1 13L         1 TEMP              0 ****  ****    0 ROOT
