@<TRIPOS>MOLECULE
13L
   73    77     1     0     0
SMALL
bcc


@<TRIPOS>ATOM
      1 C4          1.2900    0.9940    0.4270 ca        1 13L     -0.107500
      2 C7          1.2600    0.5710    3.1950 ca        1 13L     -0.100000
      3 C6          2.4840    1.0570    1.1360 ca        1 13L     -0.100000
      4 C9          9.6070   -6.9730    5.2850 ca        1 13L      0.693900
      5 C13         0.0750    0.7250    1.0770 ca        1 13L      0.010700
      6 C20        11.7480   -1.6250    8.3550 c3        1 13L     -0.110400
      7 C21        10.4940   -2.0550    7.6180 c3        1 13L     -0.089400
      8 C8          5.9810   -1.8650    4.0930 ca        1 13L     -0.030000
      9 C18         4.0790   -0.3180    4.0090 c         1 13L      0.571700
     10 C16         9.4880   -4.6980    5.3240 ca        1 13L      0.459800
     11 C19        14.1990   -2.1700    5.9450 c         1 13L      0.655100
     12 C26        -1.8530   -0.6870    0.4050 c3        1 13L     -0.095600
     13 C1          5.8420   -2.3250    1.3360 ca        1 13L     -0.117000
     14 C2          6.8250   -2.9550    2.0990 ca        1 13L     -0.103000
     15 C3          4.9350   -1.4510    1.9340 ca        1 13L     -0.073000
     16 C5          0.0790    0.5120    2.4640 ca        1 13L     -0.107500
     17 C10         8.3010   -4.7230    4.4460 ca        1 13L     -0.416500
     18 C11         6.8940   -2.7350    3.4820 ca        1 13L     -0.111900
     19 C12         5.0100   -1.2160    3.3120 ca        1 13L     -0.182600
     20 C14         2.4670    0.8460    2.5270 ca        1 13L     -0.092400
     21 C15         7.9620   -3.3260    4.2780 cc        1 13L      0.349500
     22 C17         7.8750   -6.0120    4.0770 ca        1 13L      0.548200
     23 C22        12.7020   -0.8420    7.4470 c3        1 13L      0.076000
     24 C23        11.8040   -1.9240    5.4760 c3        1 13L      0.075000
     25 C24        10.8950   -2.8360    6.3610 c3        1 13L      0.024000
     26 C25        16.6800   -2.3310    6.0880 c3        1 13L     -0.092100
     27 C27        -2.1550    1.7640    0.7630 c3        1 13L     -0.095600
     28 C28        15.4370   -1.7350    6.6990 c3        1 13L     -0.139400
     29 C29        -1.2020    0.6790    0.2970 c3        1 13L     -0.043400
     30 N30        10.1370   -5.8220    5.7420 nb        1 13L     -0.599000
     31 N31         8.5080   -7.1340    4.4750 nb        1 13L     -0.679000
     32 N32         8.8450   -2.5610    4.9870 nd        1 13L     -0.420100
     33 N33         9.7320   -3.3380    5.6000 na        1 13L      0.065200
     34 N34        12.9820   -1.5040    6.1920 n         1 13L     -0.466800
     35 N35         6.6760   -6.1750    3.2240 n4        1 13L     -0.830300
     36 N36         3.7100    0.9690    3.2970 n4        1 13L     -0.533200
     37 O37         3.5990   -0.4630    5.1240 o         1 13L     -0.405100
     38 O38        14.2260   -3.0550    5.0710 o         1 13L     -0.588100
     39 H1          1.3010    1.1710   -0.6630 ha        1 13L      0.176500
     40 H2          1.2370    0.4070    4.2870 ha        1 13L      0.158500
     41 H3          3.4180    1.2920    0.6000 ha        1 13L      0.158500
     42 H4         10.1120   -7.9220    5.5940 h5        1 13L      0.115100
     43 H5         11.4610   -0.9700    9.2180 hc        1 13L      0.070200
     44 H6         12.2700   -2.5260    8.7730 hc        1 13L      0.070200
     45 H7          9.8950   -1.1510    7.3340 hc        1 13L      0.060700
     46 H8          9.8630   -2.6910    8.2920 hc        1 13L      0.060700
     47 H9          6.0320   -1.6790    5.1800 ha        1 13L      0.182000
     48 H10        -1.1630   -1.4840    0.0390 hc        1 13L      0.051367
     49 H11        -2.7810   -0.7080   -0.2170 hc        1 13L      0.051367
     50 H12        -2.1340   -0.9120    1.4620 hc        1 13L      0.051367
     51 H13         5.7950   -2.5000    0.2470 ha        1 13L      0.177000
     52 H14         7.5840   -3.5820    1.6000 ha        1 13L      0.160000
     53 H15         4.1590   -0.9640    1.3170 ha        1 13L      0.163000
     54 H16        -0.8720    0.3040    2.9860 ha        1 13L      0.176500
     55 H17        13.6580   -0.6440    8.0060 h1        1 13L      0.069200
     56 H18        12.2320    0.1560    7.2060 h1        1 13L      0.069200
     57 H19        12.1070   -2.4770    4.5430 h1        1 13L      0.080700
     58 H20        11.2230   -1.0030    5.1880 h1        1 13L      0.080700
     59 H21        11.4790   -3.7560    6.6650 h1        1 13L      0.115700
     60 H22        16.6200   -3.4470    6.0820 hc        1 13L      0.055033
     61 H23        17.5760   -2.0180    6.6770 hc        1 13L      0.055033
     62 H24        16.8030   -1.9870    5.0320 hc        1 13L      0.055033
     63 H25        -2.4410    1.6110    1.8320 hc        1 13L      0.051367
     64 H26        -3.0840    1.7370    0.1420 hc        1 13L      0.051367
     65 H27        -1.6880    2.7720    0.6580 hc        1 13L      0.051367
     66 H28        15.3390   -2.0700    7.7660 hc        1 13L      0.071700
     67 H29        15.5110   -0.6140    6.6890 hc        1 13L      0.071700
     68 H30        -0.9660    0.8670   -0.7920 hc        1 13L      0.072700
     69 H31         5.9040   -6.5530    3.7910 hn        1 13L      0.476467
     70 H32         6.4130   -5.2590    2.8430 hn        1 13L      0.476467
     71 H33         3.5680    1.7070    4.0050 hn        1 13L      0.468800
     72 H353        6.8720   -6.8340    2.4570 hn        1 13L      0.476467
     73 H362        4.4740    1.2470    2.6710 hn        1 13L      0.468800
@<TRIPOS>BOND
     1    1    3 ar  
     2    1    5 ar  
     3    1   39 1   
     4    2   16 ar  
     5    2   20 ar  
     6    2   40 1   
     7    3   20 ar  
     8    3   41 1   
     9    4   30 ar  
    10    4   31 ar  
    11    4   42 1   
    12    5   16 ar  
    13    5   29 1   
    14    6    7 1   
    15    6   23 1   
    16    6   43 1   
    17    6   44 1   
    18    7   25 1   
    19    7   45 1   
    20    7   46 1   
    21    8   18 ar  
    22    8   19 ar  
    23    8   47 1   
    24    9   19 1   
    25    9   36 1   
    26    9   37 2   
    27   10   17 ar  
    28   10   30 ar  
    29   10   33 1   
    30   11   28 1   
    31   11   34 1   
    32   11   38 2   
    33   12   29 1   
    34   12   48 1   
    35   12   49 1   
    36   12   50 1   
    37   13   14 ar  
    38   13   15 ar  
    39   13   51 1   
    40   14   18 ar  
    41   14   52 1   
    42   15   19 ar  
    43   15   53 1   
    44   16   54 1   
    45   17   21 1   
    46   17   22 ar  
    47   18   21 1   
    48   20   36 1   
    49   21   32 2   
    50   22   31 ar  
    51   22   35 1   
    52   23   34 1   
    53   23   55 1   
    54   23   56 1   
    55   24   25 1   
    56   24   34 1   
    57   24   57 1   
    58   24   58 1   
    59   25   33 1   
    60   25   59 1   
    61   26   28 1   
    62   26   60 1   
    63   26   61 1   
    64   26   62 1   
    65   27   29 1   
    66   27   63 1   
    67   27   64 1   
    68   27   65 1   
    69   28   66 1   
    70   28   67 1   
    71   29   68 1   
    72   32   33 1   
    73   35   69 1   
    74   35   70 1   
    75   35   72 1   
    76   36   71 1   
    77   36   73 1   
@<TRIPOS>SUBSTRUCTURE
     1 13L         1 TEMP              0 ****  ****    0 ROOT
