@<TRIPOS>MOLECULE
13M
   62    66     1     0     0
SMALL
bcc


@<TRIPOS>ATOM
      1 C1          1.4830   -0.2080   -0.0040 c         1 13M      0.908600
      2 O1          1.2510    0.9920    0.2940 o         1 13M     -0.833800
      3 C2          2.8570   -0.5300   -0.6540 c3        1 13M     -0.187700
      4 O2          0.6630   -1.1600    0.1710 o         1 13M     -0.833800
      5 C3          3.8480   -0.8640    0.4460 c3        1 13M     -0.065400
      6 O3         -0.1570   -0.2120   -6.3010 os        1 13M     -0.400900
      7 C4          5.2850   -0.7770    0.0000 c3        1 13M     -0.089100
      8 C5          2.7270   -1.6810   -1.6420 c3        1 13M     -0.033100
      9 C6          1.9640   -1.2860   -2.8580 ca        1 13M     -0.050300
     10 C7          2.6150   -1.0130   -4.0580 ca        1 13M     -0.092000
     11 C8          1.8910   -0.6230   -5.1930 ca        1 13M     -0.239300
     12 C9          0.4880   -0.5330   -5.1140 ca        1 13M      0.116100
     13 C10        -0.1760   -0.8030   -3.9130 ca        1 13M     -0.191000
     14 C11         0.5610   -1.1710   -2.7920 ca        1 13M     -0.031000
     15 C12        -1.4860    0.2910   -6.1650 c3        1 13M      0.121700
     16 C15         2.5940   -0.2580   -6.4440 c3        1 13M      0.211100
     17 C17         5.5790   -0.7600   -9.0010 ca        1 13M      0.066000
     18 C19         6.8960   -1.2740   -8.8410 ca        1 13M     -0.037000
     19 C22         4.7050   -2.8610   -8.1060 ca        1 13M     -0.082000
     20 C85         8.9540    1.6080  -10.0700 ca        1 13M     -0.077000
     21 C86        10.2410    1.1000   -9.9050 ca        1 13M     -0.128000
     22 C87         4.4900   -1.5650   -8.6080 ca        1 13M     -0.211600
     23 C88        10.4380   -0.1810   -9.3960 ca        1 13M     -0.079000
     24 C89         9.3420   -0.9810   -9.0400 ca        1 13M     -0.052000
     25 C91         9.5120   -2.3070   -8.5120 ca        1 13M     -0.065000
     26 C92         8.4420   -3.0710   -8.1700 ca        1 13M     -0.144000
     27 C93         5.4220    0.5640   -9.5390 ca        1 13M     -0.171000
     28 C94         6.4950    1.3210   -9.8840 ca        1 13M     -0.048000
     29 C95         7.8380    0.8340   -9.7250 ca        1 13M     -0.060000
     30 C96         8.0280   -0.4720   -9.2040 ca        1 13M     -0.006000
     31 C97         3.1200   -1.0640   -8.7500 c         1 13M      0.575700
     32 C98         7.1010   -2.5780   -8.3220 ca        1 13M      0.037000
     33 C99         5.9880   -3.3620   -7.9690 ca        1 13M     -0.128000
     34 N99         2.2360   -1.2320   -7.5430 ny        1 13M     -0.682800
     35 O99         2.5890   -0.5210   -9.7120 o         1 13M     -0.444100
     36 H2          3.2050    0.3920   -1.1930 hc        1 13M      0.040700
     37 H3          3.6800   -0.1410    1.2900 hc        1 13M      0.050700
     38 H3A         3.6320   -1.8920    0.8410 hc        1 13M      0.050700
     39 H4          5.5130    0.2420   -0.3950 hc        1 13M      0.017033
     40 H4A         5.9700   -0.9830    0.8580 hc        1 13M      0.017033
     41 H4B         5.5040   -1.5200   -0.8050 hc        1 13M      0.017033
     42 H5          3.7440   -2.0520   -1.9380 hc        1 13M      0.051200
     43 H5A         2.1810   -2.5160   -1.1210 hc        1 13M      0.051200
     44 H7          3.7130   -1.0780   -4.1110 ha        1 13M      0.132000
     45 H10        -1.2700   -0.7120   -3.8400 ha        1 13M      0.151000
     46 H11         0.0640   -1.3490   -1.8080 ha        1 13M      0.237000
     47 H12        -1.7260    0.6840   -7.1850 h1        1 13M      0.053700
     48 H12A       -2.1780   -0.5420   -5.8900 h1        1 13M      0.053700
     49 H12B       -1.5270    1.1050   -5.4030 h1        1 13M      0.053700
     50 H15         3.7120   -0.2810   -6.3120 hx        1 13M      0.100200
     51 H15A        2.2710    0.7620   -6.8030 hx        1 13M      0.100200
     52 H88        11.4600   -0.5720   -9.2680 ha        1 13M      0.146000
     53 H91        10.5400   -2.6850   -8.3910 ha        1 13M      0.148000
     54 H92         8.5730   -4.0860   -7.7640 ha        1 13M      0.150000
     55 H93         4.4010    0.9530   -9.6860 ha        1 13M      0.147000
     56 H94         6.3610    2.3340  -10.2980 ha        1 13M      0.149000
     57 H99         6.1440   -4.3810   -7.5800 ha        1 13M      0.158000
     58 HN99        2.3240   -2.1830   -7.1720 hn        1 13M      0.461800
     59 H22         3.8550   -3.5080   -7.8400 ha        1 13M      0.132000
     60 H85         8.8090    2.6230  -10.4740 ha        1 13M      0.146000
     61 H992        1.2490   -1.0710   -7.7970 hn        1 13M      0.461800
     62 H86        11.1110    1.7190  -10.1780 ha        1 13M      0.149000
@<TRIPOS>BOND
     1    1    2 1   
     2    1    3 1   
     3    1    4 1   
     4    3    5 1   
     5    3    8 1   
     6    3   36 1   
     7    5    7 1   
     8    5   37 1   
     9    5   38 1   
    10    6   12 1   
    11    6   15 1   
    12    7   39 1   
    13    7   40 1   
    14    7   41 1   
    15    8    9 1   
    16    8   42 1   
    17    8   43 1   
    18    9   10 ar  
    19    9   14 ar  
    20   10   11 ar  
    21   10   44 1   
    22   11   12 ar  
    23   11   16 1   
    24   12   13 ar  
    25   13   14 ar  
    26   13   45 1   
    27   14   46 1   
    28   15   47 1   
    29   15   48 1   
    30   15   49 1   
    31   16   34 1   
    32   16   50 1   
    33   16   51 1   
    34   17   18 ar  
    35   17   22 ar  
    36   17   27 ar  
    37   18   30 ar  
    38   18   32 ar  
    39   19   22 ar  
    40   19   33 ar  
    41   19   59 1   
    42   20   21 ar  
    43   20   29 ar  
    44   20   60 1   
    45   21   23 ar  
    46   21   62 1   
    47   22   31 1   
    48   23   24 ar  
    49   23   52 1   
    50   24   25 ar  
    51   24   30 ar  
    52   25   26 ar  
    53   25   53 1   
    54   26   32 ar  
    55   26   54 1   
    56   27   28 ar  
    57   27   55 1   
    58   28   29 ar  
    59   28   56 1   
    60   29   30 ar  
    61   31   34 1   
    62   31   35 2   
    63   32   33 ar  
    64   33   57 1   
    65   34   58 1   
    66   34   61 1   
@<TRIPOS>SUBSTRUCTURE
     1 13M         1 TEMP              0 ****  ****    0 ROOT
