@<TRIPOS>MOLECULE
13M
   62    66     1     0     0
SMALL
bcc


@<TRIPOS>ATOM
      1 C1          1.4720   -0.2120   -0.0090 c         1 13M      0.908600
      2 O1          1.2140    0.9850    0.2810 o         1 13M     -0.833800
      3 C2          2.8530   -0.5080   -0.6570 c3        1 13M     -0.187700
      4 O2          0.6730   -1.1800    0.1740 o         1 13M     -0.833800
      5 C3          3.8510   -0.8100    0.4450 c3        1 13M     -0.065400
      6 O3         -0.1690   -0.3090   -6.3060 os        1 13M     -0.400900
      7 C4          5.2860   -0.6950   -0.0040 c3        1 13M     -0.089100
      8 C5          2.7480   -1.6710   -1.6340 c3        1 13M     -0.033100
      9 C6          1.9750   -1.3050   -2.8540 ca        1 13M     -0.050300
     10 C7          2.6210   -1.0290   -4.0570 ca        1 13M     -0.092000
     11 C8          1.8870   -0.6650   -5.1950 ca        1 13M     -0.239300
     12 C9          0.4830   -0.6050   -5.1160 ca        1 13M      0.116100
     13 C10        -0.1750   -0.8780   -3.9120 ca        1 13M     -0.191000
     14 C11         0.5710   -1.2200   -2.7880 ca        1 13M     -0.031000
     15 C12        -1.5090    0.1650   -6.1740 c3        1 13M      0.121700
     16 C15         2.5820   -0.2960   -6.4500 c3        1 13M      0.211100
     17 C17         5.5790   -0.7640   -9.0000 ca        1 13M      0.066000
     18 C19         6.9060   -1.2520   -8.8370 ca        1 13M     -0.037000
     19 C22         4.7440   -2.8750   -8.0940 ca        1 13M     -0.082000
     20 C85         8.9100    1.6610  -10.0810 ca        1 13M     -0.077000
     21 C86        10.2060    1.1780   -9.9120 ca        1 13M     -0.128000
     22 C87         4.5050   -1.5870   -8.6030 ca        1 13M     -0.211600
     23 C88        10.4270   -0.0960   -9.3960 ca        1 13M     -0.079000
     24 C89         9.3460   -0.9150   -9.0370 ca        1 13M     -0.052000
     25 C91         9.5400   -2.2340   -8.5020 ca        1 13M     -0.065000
     26 C92         8.4830   -3.0160   -8.1560 ca        1 13M     -0.144000
     27 C93         5.3970    0.5550   -9.5450 ca        1 13M     -0.171000
     28 C94         6.4570    1.3300   -9.8930 ca        1 13M     -0.048000
     29 C95         7.8080    0.8680   -9.7320 ca        1 13M     -0.060000
     30 C96         8.0220   -0.4310   -9.2040 ca        1 13M     -0.006000
     31 C97         3.1260   -1.1120   -8.7480 c         1 13M      0.575700
     32 C98         7.1340   -2.5500   -8.3110 ca        1 13M      0.037000
     33 C99         6.0350   -3.3520   -7.9540 ca        1 13M     -0.128000
     34 N99         2.2460   -1.2880   -7.5390 n4        1 13M     -0.682800
     35 O99         2.5840   -0.5850   -9.7130 o         1 13M     -0.444100
     36 H2          3.1790    0.4160   -1.2050 hc        1 13M      0.040700
     37 H3          3.6600   -1.8390    0.8490 hc        1 13M      0.050700
     38 H3A         3.6680   -0.0840    1.2830 hc        1 13M      0.050700
     39 H4          5.5210   -1.4390   -0.8020 hc        1 13M      0.017033
     40 H4A         5.9760   -0.8780    0.8550 hc        1 13M      0.017033
     41 H4B         5.4910    0.3260   -0.4080 hc        1 13M      0.017033
     42 H5          2.2200   -2.5140   -1.1050 hc        1 13M      0.051200
     43 H5A         3.7720   -2.0230   -1.9280 hc        1 13M      0.051200
     44 H7          3.7200   -1.0700   -4.1090 ha        1 13M      0.132000
     45 H10        -1.2700   -0.8100   -3.8400 ha        1 13M      0.151000
     46 H11         0.0780   -1.3990   -1.8020 ha        1 13M      0.237000
     47 H12        -2.1820   -0.6800   -5.8910 h1        1 13M      0.053700
     48 H12A       -1.5670    0.9860   -5.4200 h1        1 13M      0.053700
     49 H12B       -1.7570    0.5440   -7.1980 h1        1 13M      0.053700
     50 H15         2.2380    0.7130   -6.8170 hx        1 13M      0.100200
     51 H15A        3.7010   -0.2940   -6.3180 hx        1 13M      0.100200
     52 H88        11.4550   -0.4680   -9.2660 ha        1 13M      0.146000
     53 H91        10.5750   -2.5930   -8.3790 ha        1 13M      0.148000
     54 H92         8.6340   -4.0270   -7.7450 ha        1 13M      0.150000
     55 H93         4.3700    0.9240   -9.6940 ha        1 13M      0.147000
     56 H94         6.3040    2.3380  -10.3130 ha        1 13M      0.149000
     57 H99         6.2100   -4.3660   -7.5600 ha        1 13M      0.158000
     58 HN99        1.2550   -1.1510   -7.7940 hn        1 13M      0.461800
     59 H22         3.9050   -3.5370   -7.8250 ha        1 13M      0.132000
     60 H85         8.7460    2.6710  -10.4890 ha        1 13M      0.146000
     61 H992        2.3540   -2.2340   -7.1600 hn        1 13M      0.461800
     62 H86        11.0640    1.8110  -10.1880 ha        1 13M      0.149000
@<TRIPOS>BOND
     1    1    2 1   
     2    1    3 1   
     3    1    4 1   
     4    3    5 1   
     5    3    8 1   
     6    3   36 1   
     7    5    7 1   
     8    5   37 1   
     9    5   38 1   
    10    6   12 1   
    11    6   15 1   
    12    7   39 1   
    13    7   40 1   
    14    7   41 1   
    15    8    9 1   
    16    8   42 1   
    17    8   43 1   
    18    9   10 ar  
    19    9   14 ar  
    20   10   11 ar  
    21   10   44 1   
    22   11   12 ar  
    23   11   16 1   
    24   12   13 ar  
    25   13   14 ar  
    26   13   45 1   
    27   14   46 1   
    28   15   47 1   
    29   15   48 1   
    30   15   49 1   
    31   16   34 1   
    32   16   50 1   
    33   16   51 1   
    34   17   18 ar  
    35   17   22 ar  
    36   17   27 ar  
    37   18   30 ar  
    38   18   32 ar  
    39   19   22 ar  
    40   19   33 ar  
    41   19   59 1   
    42   20   21 ar  
    43   20   29 ar  
    44   20   60 1   
    45   21   23 ar  
    46   21   62 1   
    47   22   31 1   
    48   23   24 ar  
    49   23   52 1   
    50   24   25 ar  
    51   24   30 ar  
    52   25   26 ar  
    53   25   53 1   
    54   26   32 ar  
    55   26   54 1   
    56   27   28 ar  
    57   27   55 1   
    58   28   29 ar  
    59   28   56 1   
    60   29   30 ar  
    61   31   34 1   
    62   31   35 2   
    63   32   33 ar  
    64   33   57 1   
    65   34   58 1   
    66   34   61 1   
@<TRIPOS>SUBSTRUCTURE
     1 13M         1 TEMP              0 ****  ****    0 ROOT
