@<TRIPOS>MOLECULE
13M
   62    66     1     0     0
SMALL
bcc


@<TRIPOS>ATOM
      1 C1          1.4970   -0.2960    0.0100 c         1 13M      0.908600
      2 O1          1.2680    0.9000    0.3280 o         1 13M     -0.833800
      3 C2          2.8690   -0.6090   -0.6470 c3        1 13M     -0.187700
      4 O2          0.6750   -1.2480    0.1720 o         1 13M     -0.833800
      5 C3          3.8610   -0.9640    0.4450 c3        1 13M     -0.065400
      6 O3         -0.1570   -0.1950   -6.2820 os        1 13M     -0.400900
      7 C4          5.2980   -0.8730   -0.0030 c3        1 13M     -0.089100
      8 C5          2.7340   -1.7440   -1.6530 c3        1 13M     -0.033100
      9 C6          1.9690   -1.3290   -2.8610 ca        1 13M     -0.050300
     10 C7          2.6190   -1.0380   -4.0580 ca        1 13M     -0.092000
     11 C8          1.8920   -0.6280   -5.1850 ca        1 13M     -0.239300
     12 C9          0.4900   -0.5360   -5.1010 ca        1 13M      0.116100
     13 C10        -0.1720   -0.8250   -3.9030 ca        1 13M     -0.191000
     14 C11         0.5670   -1.2120   -2.7900 ca        1 13M     -0.031000
     15 C12        -1.4850    0.3070   -6.1350 c3        1 13M      0.121700
     16 C15         2.5930   -0.2450   -6.4320 c3        1 13M      0.211100
     17 C17         5.5710   -0.7100   -9.0040 ca        1 13M      0.066000
     18 C19         6.8890   -1.2280   -8.8550 ca        1 13M     -0.037000
     19 C22         4.6980   -2.8220   -8.1380 ca        1 13M     -0.082000
     20 C85         8.9460    1.6700  -10.0460 ca        1 13M     -0.077000
     21 C86        10.2340    1.1590   -9.8910 ca        1 13M     -0.128000
     22 C87         4.4830   -1.5200   -8.6210 ca        1 13M     -0.211600
     23 C88        10.4300   -0.1300   -9.4010 ca        1 13M     -0.079000
     24 C89         9.3350   -0.9340   -9.0550 ca        1 13M     -0.052000
     25 C91         9.5040   -2.2670   -8.5470 ca        1 13M     -0.065000
     26 C92         8.4340   -3.0350   -8.2140 ca        1 13M     -0.144000
     27 C93         5.4140    0.6220   -9.5220 ca        1 13M     -0.171000
     28 C94         6.4880    1.3830   -9.8580 ca        1 13M     -0.048000
     29 C95         7.8310    0.8930   -9.7100 ca        1 13M     -0.060000
     30 C96         8.0200   -0.4210   -9.2080 ca        1 13M     -0.006000
     31 C97         3.1130   -1.0150   -8.7520 c         1 13M      0.575700
     32 C98         7.0930   -2.5390   -8.3560 ca        1 13M      0.037000
     33 C99         5.9800   -3.3270   -8.0110 ca        1 13M     -0.128000
     34 N99         2.2320   -1.2000   -7.5450 n4        1 13M     -0.682800
     35 O99         2.5800   -0.4560   -9.7040 o         1 13M     -0.444100
     36 H2          3.2180    0.3200   -1.1720 hc        1 13M      0.040700
     37 H3          3.6970   -0.2540    1.3010 hc        1 13M      0.050700
     38 H3A         3.6430   -1.9970    0.8240 hc        1 13M      0.050700
     39 H4          5.9840   -1.0940    0.8510 hc        1 13M      0.017033
     40 H4A         5.5280    0.1520   -0.3820 hc        1 13M      0.017033
     41 H4B         5.5130   -1.6040   -0.8190 hc        1 13M      0.017033
     42 H5          3.7490   -2.1130   -1.9580 hc        1 13M      0.051200
     43 H5A         2.1870   -2.5870   -1.1440 hc        1 13M      0.051200
     44 H7          3.7160   -1.1040   -4.1140 ha        1 13M      0.132000
     45 H10        -1.2650   -0.7320   -3.8270 ha        1 13M      0.151000
     46 H11         0.0710   -1.4040   -1.8080 ha        1 13M      0.237000
     47 H12        -1.5230    1.1100   -5.3600 h1        1 13M      0.053700
     48 H12A       -1.7260    0.7170   -7.1480 h1        1 13M      0.053700
     49 H12B       -2.1780   -0.5290   -5.8710 h1        1 13M      0.053700
     50 H15         3.7120   -0.2720   -6.3030 hx        1 13M      0.100200
     51 H15A        2.2720    0.7810   -6.7740 hx        1 13M      0.100200
     52 H88        11.4520   -0.5240   -9.2820 ha        1 13M      0.146000
     53 H91        10.5320   -2.6480   -8.4340 ha        1 13M      0.148000
     54 H92         8.5650   -4.0570   -7.8230 ha        1 13M      0.150000
     55 H93         4.3940    1.0150   -9.6600 ha        1 13M      0.147000
     56 H94         6.3540    2.4030  -10.2570 ha        1 13M      0.149000
     57 H99         6.1360   -4.3520   -7.6380 ha        1 13M      0.158000
     58 HN99        1.2440   -1.0340   -7.7940 hn        1 13M      0.461800
     59 H22         3.8470   -3.4730   -7.8800 ha        1 13M      0.132000
     60 H85         8.8020    2.6910  -10.4340 ha        1 13M      0.146000
     61 H992        2.3180   -2.1580   -7.1900 hn        1 13M      0.461800
     62 H86        11.1030    1.7810  -10.1570 ha        1 13M      0.149000
@<TRIPOS>BOND
     1    1    2 1   
     2    1    3 1   
     3    1    4 1   
     4    3    5 1   
     5    3    8 1   
     6    3   36 1   
     7    5    7 1   
     8    5   37 1   
     9    5   38 1   
    10    6   12 1   
    11    6   15 1   
    12    7   39 1   
    13    7   40 1   
    14    7   41 1   
    15    8    9 1   
    16    8   42 1   
    17    8   43 1   
    18    9   10 ar  
    19    9   14 ar  
    20   10   11 ar  
    21   10   44 1   
    22   11   12 ar  
    23   11   16 1   
    24   12   13 ar  
    25   13   14 ar  
    26   13   45 1   
    27   14   46 1   
    28   15   47 1   
    29   15   48 1   
    30   15   49 1   
    31   16   34 1   
    32   16   50 1   
    33   16   51 1   
    34   17   18 ar  
    35   17   22 ar  
    36   17   27 ar  
    37   18   30 ar  
    38   18   32 ar  
    39   19   22 ar  
    40   19   33 ar  
    41   19   59 1   
    42   20   21 ar  
    43   20   29 ar  
    44   20   60 1   
    45   21   23 ar  
    46   21   62 1   
    47   22   31 1   
    48   23   24 ar  
    49   23   52 1   
    50   24   25 ar  
    51   24   30 ar  
    52   25   26 ar  
    53   25   53 1   
    54   26   32 ar  
    55   26   54 1   
    56   27   28 ar  
    57   27   55 1   
    58   28   29 ar  
    59   28   56 1   
    60   29   30 ar  
    61   31   34 1   
    62   31   35 2   
    63   32   33 ar  
    64   33   57 1   
    65   34   58 1   
    66   34   61 1   
@<TRIPOS>SUBSTRUCTURE
     1 13M         1 TEMP              0 ****  ****    0 ROOT
