@<TRIPOS>MOLECULE
13N
   62    64     1     0     0
SMALL
bcc


@<TRIPOS>ATOM
      1 CAL         0.3860    0.5190    0.1580 ca        1 13N     -0.098000
      2 CAJ         1.6920    0.9130    0.4400 ca        1 13N     -0.117500
      3 CAI         2.0160    1.4090    1.7050 ca        1 13N     -0.069000
      4 CAK         1.0320    1.5120    2.6910 ca        1 13N     -0.117500
      5 CAM        -0.2770    1.1200    2.4140 ca        1 13N     -0.098000
      6 CBC        -0.6020    0.6220    1.1460 ca        1 13N     -0.202300
      7 CAT        -2.0100    0.2670    0.8280 c3        1 13N      0.183100
      8 NAW        -2.2970   -1.1590    1.2330 ny        1 13N     -0.678800
      9 CAZ        -3.6970   -1.6020    0.9200 c         1 13N      0.541100
     10 OAC        -4.5000   -0.7270    0.6360 o         1 13N     -0.386100
     11 CBG        -3.9780   -3.0950    0.9530 c3        1 13N     -0.236700
     12 CAS        -5.4930   -3.3270    0.9130 c3        1 13N     -0.094400
     13 CAQ        -5.8970   -4.4680   -0.0070 c3        1 13N     -0.081400
     14 CAO        -7.1970   -5.0820    0.4850 c3        1 13N     -0.065200
     15 CAG        -7.5350   -6.3530   -0.2000 c2        1 13N     -0.127200
     16 CAH        -7.2590   -7.5840    0.2430 c2        1 13N     -0.195200
     17 CAP        -6.4440   -7.9130    1.4390 c3        1 13N     -0.058200
     18 CAR        -7.2560   -7.7680    2.7250 c3        1 13N      0.105800
     19 NAV        -6.3980   -7.6500    3.9450 ny        1 13N     -0.666800
     20 CAY        -5.5410   -6.3960    3.9310 c         1 13N      0.600700
     21 OAB        -6.1310   -5.3520    3.6770 o         1 13N     -0.443100
     22 CBF        -4.1200   -6.5870    4.2230 ca        1 13N     -0.276600
     23 CBB        -3.7300   -7.3100    5.3770 ca        1 13N      0.226100
     24 OAE        -4.7360   -7.8900    6.1070 oh        1 13N     -0.539100
     25 CAN        -2.3920   -7.4280    5.7450 ca        1 13N     -0.232000
     26 CBA        -1.4080   -6.8430    4.9310 ca        1 13N      0.263100
     27 OAD        -0.1330   -7.0110    5.3540 oh        1 13N     -0.437100
     28 CBD        -1.7800   -6.1460    3.7500 ca        1 13N     -0.102600
     29 Cl1        -0.5540   -5.5170    2.7550 cl        1 13N     -0.048400
     30 CBE        -3.1260   -5.9930    3.4100 ca        1 13N      0.067700
     31 CAU        -3.5060   -5.2890    2.1500 c3        1 13N     -0.152100
     32 CAX        -3.3740   -3.7920    2.1680 c         1 13N      0.587100
     33 OAA        -2.8220   -3.1530    3.0660 o         1 13N     -0.517100
     34 HAL         0.1310    0.1530   -0.8480 ha        1 13N      0.138500
     35 HAJ         2.4670    0.8460   -0.3400 ha        1 13N      0.164000
     36 HAI         3.0490    1.7310    1.9230 ha        1 13N      0.167000
     37 HAK         1.2860    1.9150    3.6840 ha        1 13N      0.164000
     38 HAM        -1.0540    1.2270    3.1860 ha        1 13N      0.138500
     39 HAT1       -2.7370    0.9270    1.3850 hx        1 13N      0.116700
     40 HAT2       -2.2200    0.3540   -0.2760 hx        1 13N      0.116700
     41 HAW        -2.1530   -1.2520    2.2550 hn        1 13N      0.467800
     42 HBG        -3.5100   -3.5330    0.0210 hc        1 13N      0.124700
     43 HAS1       -6.0200   -2.3950    0.5650 hc        1 13N      0.091700
     44 HAS2       -5.8540   -3.5210    1.9610 hc        1 13N      0.091700
     45 HAQ1       -5.0990   -5.2540   -0.0550 hc        1 13N      0.057200
     46 HAQ2       -6.0340   -4.0840   -1.0520 hc        1 13N      0.057200
     47 HAO1       -8.0330   -4.3470    0.3240 hc        1 13N      0.058700
     48 HAO2       -7.1240   -5.2520    1.5960 hc        1 13N      0.058700
     49 HAG        -8.0970   -6.2330   -1.1460 ha        1 13N      0.160000
     50 HAH        -7.6120   -8.4630   -0.3270 ha        1 13N      0.161000
     51 HAP1       -5.5450   -7.2370    1.4670 hc        1 13N      0.059700
     52 HAP2       -6.0640   -8.9680    1.3530 hc        1 13N      0.059700
     53 HAR1       -7.9210   -8.6700    2.8620 hx        1 13N      0.121200
     54 HAR2       -7.9080   -6.8470    2.6780 hx        1 13N      0.121200
     55 HAV        -5.7840   -8.4690    4.0280 hn        1 13N      0.470300
     56 HAE        -4.3690   -8.2460    6.9370 ho        1 13N      0.484000
     57 HAN        -2.0860   -7.9690    6.6570 ha        1 13N      0.201000
     58 HAD         0.4890   -6.5850    4.7340 ho        1 13N      0.464000
     59 HAU1       -4.5740   -5.5280    1.8820 hc        1 13N      0.106200
     60 HAU2       -2.8630   -5.6780    1.3060 hc        1 13N      0.106200
     61 HAW2       -1.6270   -1.7810    0.7710 hn        1 13N      0.467800
     62 HAV2       -6.9970   -7.6190    4.7820 hn        1 13N      0.470300
@<TRIPOS>BOND
     1    1    2 ar  
     2    1    6 ar  
     3    1   34 1   
     4    2    3 ar  
     5    2   35 1   
     6    3    4 ar  
     7    3   36 1   
     8    4    5 ar  
     9    4   37 1   
    10    5    6 ar  
    11    5   38 1   
    12    6    7 1   
    13    7    8 1   
    14    7   39 1   
    15    7   40 1   
    16    8    9 1   
    17    8   41 1   
    18    8   61 1   
    19    9   10 2   
    20    9   11 1   
    21   11   12 1   
    22   11   32 1   
    23   11   42 1   
    24   12   13 1   
    25   12   43 1   
    26   12   44 1   
    27   13   14 1   
    28   13   45 1   
    29   13   46 1   
    30   14   15 1   
    31   14   47 1   
    32   14   48 1   
    33   15   16 2   
    34   15   49 1   
    35   16   17 1   
    36   16   50 1   
    37   17   18 1   
    38   17   51 1   
    39   17   52 1   
    40   18   19 1   
    41   18   53 1   
    42   18   54 1   
    43   19   20 1   
    44   19   55 1   
    45   19   62 1   
    46   20   21 2   
    47   20   22 1   
    48   22   23 ar  
    49   22   30 ar  
    50   23   24 1   
    51   23   25 ar  
    52   24   56 1   
    53   25   26 ar  
    54   25   57 1   
    55   26   27 1   
    56   26   28 ar  
    57   27   58 1   
    58   28   29 1   
    59   28   30 ar  
    60   30   31 1   
    61   31   32 1   
    62   31   59 1   
    63   31   60 1   
    64   32   33 2   
@<TRIPOS>SUBSTRUCTURE
     1 13N         1 TEMP              0 ****  ****    0 ROOT
