@<TRIPOS>MOLECULE
13N
   60    56     1     0     0
SMALL
bcc


@<TRIPOS>ATOM
      1 CAL         1.4860    5.6670   -3.0360 c1        1 13N     -0.117000
      2 CAJ         0.9410    6.3660   -4.0970 c1        1 13N     -0.125750
      3 CAI        -0.4260    6.5800   -4.1560 c1        1 13N     -0.125750
      4 CAK        -1.2470    6.0950   -3.1520 c1        1 13N     -0.125750
      5 CAM        -0.7010    5.3960   -2.0910 c1        1 13N     -0.125750
      6 CBC         0.6650    5.1810   -2.0310 c1        1 13N     -0.115000
      7 CAT         1.2600    4.3170   -0.9000 c3        1 13N      0.002000
      8 NAW         0.8660    2.9370   -1.0890 n         1 13N     -0.343000
      9 CAZ         0.5700    2.1230    0.0430 c2        1 13N      0.303000
     10 OAC         0.7140    2.5660    1.1580 o         1 13N     -0.377000
     11 CBG         0.0640    0.7380   -0.1450 c3        1 13N     -0.178000
     12 CAS        -1.4640    0.7700   -0.3200 c3        1 13N     -0.159000
     13 CAQ        -1.9030   -0.2670   -1.4470 c3        1 13N     -0.154000
     14 CAO        -3.3310   -0.8240   -1.1130 c3        1 13N     -0.132000
     15 CAG        -3.5090   -2.1770   -1.7520 c2        1 13N     -0.168000
     16 CAH        -2.8920   -3.4040   -1.1130 c1        1 13N     -0.157000
     17 CAP        -1.9730   -3.2540    0.1120 c2        1 13N     -0.153000
     18 CAR        -1.6580   -4.6730    0.7110 c3        1 13N     -0.012000
     19 NAV        -0.7200   -4.5350    1.8430 n         1 13N     -0.360000
     20 CAY        -0.3810   -3.0960    2.0310 c2        1 13N      0.359000
     21 OAB        -0.8680   -2.2530    1.2950 o         1 13N     -0.369000
     22 CBF         1.1320   -2.9520    2.5160 c2        1 13N     -0.168000
     23 CBB         1.6070   -3.7450    3.5430 c2        1 13N      0.142000
     24 OAE         0.8020   -4.7630    4.0740 oh        1 13N     -0.253000
     25 CAN         2.9010   -3.5520    4.0340 c1        1 13N     -0.300000
     26 CBA         3.7080   -2.5650    3.4910 c1        1 13N      0.146000
     27 OAD         5.0350   -2.3890    3.9710 oh        1 13N     -0.227000
     28 CBD         3.2320   -1.7670    2.4590 c1        1 13N     -0.118000
     29 CL1         4.2710   -0.5550    1.7390 cl        1 13N      0.024000
     30 CBE         1.9460   -1.9580    1.9690 c2        1 13N      0.056000
     31 CAU         1.4800   -1.1900    0.7000 c3        1 13N     -0.189000
     32 CAX         0.4220   -0.1160    1.0940 c2        1 13N      0.255000
     33 OAA         0.4580    0.3980    2.1990 o         1 13N     -0.272000
     34 HAL         2.4540    5.5150   -2.9940 ha        1 13N      0.129000
     35 HAJ         1.5240    6.7110   -4.8100 ha        1 13N      0.135500
     36 HAI        -0.8140    7.0780   -4.9110 ha        1 13N      0.135500
     37 HAK        -2.2210    6.2480   -3.1940 ha        1 13N      0.135500
     38 HAM        -1.2840    5.0500   -1.3770 ha        1 13N      0.135500
     39 HAT1        2.2360    4.3840   -0.9170 h1        1 13N      0.106500
     40 HAT2        0.9230    4.6380   -0.0280 h1        1 13N      0.106500
     41 HAW         0.9020    2.5620   -1.9250 hn        1 13N      0.240000
     42 HBG         0.4740    0.3490   -0.9360 hc        1 13N      0.139000
     43 HAS1       -1.7420    1.6710   -0.5830 hc        1 13N      0.112000
     44 HAS2       -1.8920    0.5330    0.5250 hc        1 13N      0.112000
     45 HAQ1       -1.9230    0.1900   -2.3240 hc        1 13N      0.083000
     46 HAQ2       -1.2690   -1.0000   -1.4790 hc        1 13N      0.083000
     47 HAO1       -3.4290   -0.9060   -0.1480 hc        1 13N      0.089500
     48 HAO2       -4.0120   -0.2090   -1.4600 hc        1 13N      0.089500
     49 HAG        -4.0960   -2.2750   -2.5340 ha        1 13N      0.117000
     50 HAH        -3.0090   -4.2830   -1.5300 ha        1 13N      0.115000
     51 HAP1       -1.1340   -2.8210   -0.1600 ha        1 13N      0.107500
     52 HAP2       -2.4180   -2.7060    0.7880 ha        1 13N      0.107500
     53 HAR1       -2.4950   -5.0920    1.0270 h1        1 13N      0.082500
     54 HAR2       -1.2580   -5.2300    0.0250 h1        1 13N      0.082500
     55 HAV        -0.7990   -5.0860    2.5720 hn        1 13N      0.230000
     56 HAE         0.7020   -4.6360    4.9530 ho        1 13N      0.230000
     57 HAN         3.2380   -4.1150    4.7630 ha        1 13N      0.144000
     58 HAD         5.5220   -3.1000    3.7610 ho        1 13N      0.226000
     59 HAU1        1.0850   -1.8180    0.0700 hc        1 13N      0.133000
     60 HAU2        2.2480   -0.7520    0.2840 hc        1 13N      0.133000
@<TRIPOS>BOND
     1    1    6 1   
     2    1   34 1   
     3    2    3 1   
     4    2   35 1   
     5    3   36 1   
     6    4    5 1   
     7    4   37 1   
     8    5   38 1   
     9    6    7 1   
    10    7    8 1   
    11    7   39 1   
    12    7   40 1   
    13    8    9 1   
    14    8   41 1   
    15    9   10 1   
    16    9   11 1   
    17   11   12 1   
    18   11   32 1   
    19   11   42 1   
    20   12   13 1   
    21   12   43 1   
    22   12   44 1   
    23   13   14 1   
    24   13   45 1   
    25   13   46 1   
    26   14   15 1   
    27   14   47 1   
    28   14   48 1   
    29   15   16 1   
    30   15   49 1   
    31   16   50 1   
    32   17   18 1   
    33   17   51 1   
    34   17   52 1   
    35   18   19 1   
    36   18   53 1   
    37   18   54 1   
    38   19   20 1   
    39   19   55 1   
    40   20   21 1   
    41   20   22 1   
    42   22   23 1   
    43   22   30 1   
    44   23   24 1   
    45   23   25 1   
    46   24   56 1   
    47   25   57 1   
    48   26   27 1   
    49   26   28 1   
    50   27   58 1   
    51   28   30 1   
    52   30   31 1   
    53   31   32 1   
    54   31   59 1   
    55   31   60 1   
    56   32   33 1   
@<TRIPOS>SUBSTRUCTURE
     1 13N         1 TEMP              0 ****  ****    0 ROOT
