@<TRIPOS>MOLECULE
13N
   62    64     1     0     0
SMALL
bcc


@<TRIPOS>ATOM
      1 CAL         0.4270    0.4400    0.1020 ca        1 13N     -0.098000
      2 CAJ         1.7420    0.8030    0.3880 ca        1 13N     -0.117500
      3 CAI         2.0710    1.3060    1.6490 ca        1 13N     -0.069000
      4 CAK         1.0830    1.4470    2.6260 ca        1 13N     -0.117500
      5 CAM        -0.2340    1.0870    2.3450 ca        1 13N     -0.098000
      6 CBC        -0.5640    0.5820    1.0810 ca        1 13N     -0.201300
      7 CAT        -1.9780    0.2580    0.7590 c3        1 13N      0.183100
      8 NAW        -2.3010   -1.1570    1.1750 n4        1 13N     -0.678800
      9 CAZ        -3.7090   -1.5710    0.8540 c         1 13N      0.541100
     10 OAC        -4.4920   -0.6810    0.5610 o         1 13N     -0.387100
     11 CBG        -4.0190   -3.0580    0.8920 c3        1 13N     -0.237700
     12 CAS        -5.5390   -3.2590    0.8420 c3        1 13N     -0.092400
     13 CAQ        -5.9560   -4.4460   -0.0110 c3        1 13N     -0.082400
     14 CAO        -7.1920   -5.1000    0.5840 c3        1 13N     -0.065200
     15 CAG        -7.5540   -6.3700   -0.0900 c2        1 13N     -0.128200
     16 CAH        -7.2760   -7.6010    0.3500 c2        1 13N     -0.194200
     17 CAP        -6.4390   -7.9340    1.5300 c3        1 13N     -0.059200
     18 CAR        -7.2260   -7.7760    2.8300 c3        1 13N      0.104800
     19 NAV        -6.3450   -7.6530    4.0340 n4        1 13N     -0.667800
     20 CAY        -5.4990   -6.3910    3.9980 c         1 13N      0.600700
     21 OAB        -6.1120   -5.3490    3.8030 o         1 13N     -0.439100
     22 CBF        -4.0620   -6.5770    4.1980 ca        1 13N     -0.274600
     23 CBB        -3.5930   -7.3090    5.3110 ca        1 13N      0.236100
     24 OAE        -4.5420   -7.9140    6.0940 oh        1 13N     -0.537100
     25 CAN        -2.2290   -7.4100    5.5910 ca        1 13N     -0.294000
     26 CBA        -1.3080   -6.8040    4.7280 ca        1 13N      0.263100
     27 OAD         0.0310   -6.8640    4.9390 oh        1 13N     -0.436100
     28 CBD        -1.7580   -6.1000    3.5730 ca        1 13N     -0.039600
     29 CL1        -0.6220   -5.4480    2.4970 cl        1 13N     -0.025400
     30 CBE        -3.1250   -5.9640    3.3280 ca        1 13N      0.049700
     31 CAU        -3.5940   -5.2520    2.1030 c3        1 13N     -0.151100
     32 CAX        -3.4390   -3.7560    2.1160 c         1 13N      0.586100
     33 OAA        -2.8990   -3.1200    3.0220 o         1 13N     -0.514100
     34 HAL         0.1700    0.0670   -0.9020 ha        1 13N      0.138500
     35 HAJ         2.5200    0.7030   -0.3860 ha        1 13N      0.164000
     36 HAI         3.1100    1.6010    1.8700 ha        1 13N      0.167000
     37 HAK         1.3420    1.8560    3.6160 ha        1 13N      0.164000
     38 HAM        -1.0130    1.2240    3.1110 ha        1 13N      0.138500
     39 HAT1       -2.1800    0.3400   -0.3470 hx        1 13N      0.116700
     40 HAT2       -2.6920    0.9400    1.3050 hx        1 13N      0.116700
     41 HAW        -2.1680   -1.2440    2.1980 hn        1 13N      0.467800
     42 HBG        -3.5530   -3.5100   -0.0340 hc        1 13N      0.124700
     43 HAS1       -5.9180   -3.3780    1.8950 hc        1 13N      0.090700
     44 HAS2       -6.0350   -2.3380    0.4280 hc        1 13N      0.090700
     45 HAQ1       -6.1790   -4.1030   -1.0560 hc        1 13N      0.058700
     46 HAQ2       -5.1310   -5.2010   -0.0920 hc        1 13N      0.058700
     47 HAO1       -7.0220   -5.2760    1.6820 hc        1 13N      0.056200
     48 HAO2       -8.0590   -4.3860    0.5010 hc        1 13N      0.056200
     49 HAG        -8.1340   -6.2480   -1.0240 ha        1 13N      0.160000
     50 HAH        -7.6450   -8.4790   -0.2120 ha        1 13N      0.161000
     51 HAP1       -6.0710   -8.9930    1.4410 hc        1 13N      0.060700
     52 HAP2       -5.5320   -7.2680    1.5380 hc        1 13N      0.060700
     53 HAR1       -7.8910   -8.6750    2.9860 hx        1 13N      0.120700
     54 HAR2       -7.8740   -6.8520    2.7890 hx        1 13N      0.120700
     55 HAV        -5.7240   -8.4680    4.1040 hn        1 13N      0.469800
     56 HAE        -4.1220   -8.2730    6.8960 ho        1 13N      0.481000
     57 HAN        -1.8800   -7.9600    6.4810 ha        1 13N      0.182000
     58 HAD         0.2130   -7.3720    5.7510 ho        1 13N      0.463000
     59 HAU1       -4.6840   -5.4650    1.9180 hc        1 13N      0.106200
     60 HAU2       -3.0260   -5.6500    1.2110 hc        1 13N      0.106200
     61 HAW2       -1.6410   -1.7980    0.7250 hn        1 13N      0.467800
     62 HAV2       -6.9290   -7.6250    4.8800 hn        1 13N      0.469800
@<TRIPOS>BOND
     1    1    2 ar  
     2    1    6 ar  
     3    1   34 1   
     4    2    3 ar  
     5    2   35 1   
     6    3    4 ar  
     7    3   36 1   
     8    4    5 ar  
     9    4   37 1   
    10    5    6 ar  
    11    5   38 1   
    12    6    7 1   
    13    7    8 1   
    14    7   39 1   
    15    7   40 1   
    16    8    9 1   
    17    8   41 1   
    18    8   61 1   
    19    9   10 2   
    20    9   11 1   
    21   11   12 1   
    22   11   32 1   
    23   11   42 1   
    24   12   13 1   
    25   12   43 1   
    26   12   44 1   
    27   13   14 1   
    28   13   45 1   
    29   13   46 1   
    30   14   15 1   
    31   14   47 1   
    32   14   48 1   
    33   15   16 2   
    34   15   49 1   
    35   16   17 1   
    36   16   50 1   
    37   17   18 1   
    38   17   51 1   
    39   17   52 1   
    40   18   19 1   
    41   18   53 1   
    42   18   54 1   
    43   19   20 1   
    44   19   55 1   
    45   19   62 1   
    46   20   21 2   
    47   20   22 1   
    48   22   23 ar  
    49   22   30 ar  
    50   23   24 1   
    51   23   25 ar  
    52   24   56 1   
    53   25   26 ar  
    54   25   57 1   
    55   26   27 1   
    56   26   28 ar  
    57   27   58 1   
    58   28   29 1   
    59   28   30 ar  
    60   30   31 1   
    61   31   32 1   
    62   31   59 1   
    63   31   60 1   
    64   32   33 2   
@<TRIPOS>SUBSTRUCTURE
     1 13N         1 TEMP              0 ****  ****    0 ROOT
