@<TRIPOS>MOLECULE
13N
   60    62     1     0     0
SMALL
bcc


@<TRIPOS>ATOM
      1 CAL        -5.2590    0.8360    0.6880 ca        1 13N     -0.114000
      2 CAJ        -6.1820   -0.1610    0.9990 ca        1 13N     -0.134500
      3 CAI        -6.7740   -0.9090   -0.0200 ca        1 13N     -0.125000
      4 CAK        -6.4400   -0.6600   -1.3510 ca        1 13N     -0.134500
      5 CAM        -5.5150    0.3360   -1.6650 ca        1 13N     -0.114000
      6 CBC        -4.9240    1.0890   -0.6470 ca        1 13N     -0.122300
      7 CAT        -3.9520    2.1880   -0.9740 c3        1 13N      0.127300
      8 NAW        -2.5680    1.8820   -0.7160 n         1 13N     -0.538900
      9 CAZ        -2.0030    2.1110    0.5230 c         1 13N      0.659100
     10 OAC        -2.6110    2.7220    1.4270 o         1 13N     -0.617100
     11 CBG        -0.5550    1.6820    0.7540 c3        1 13N     -0.238700
     12 CAS         0.4150    2.5550   -0.0360 c3        1 13N     -0.080400
     13 CAQ         0.7400    3.8440    0.6930 c3        1 13N     -0.073400
     14 CAO         2.0020    4.4840    0.1410 c3        1 13N     -0.046200
     15 CAG         3.2250    3.7870    0.6170 c2        1 13N     -0.181200
     16 CAH         3.8760    2.8710   -0.1070 c2        1 13N     -0.166200
     17 CAP         5.1040    2.1800    0.3500 c3        1 13N     -0.063200
     18 CAR         5.2900    0.8170   -0.3280 c3        1 13N      0.098000
     19 NAV         4.4510   -0.2370    0.1750 n         1 13N     -0.555900
     20 CAY         3.2030   -0.5010   -0.3520 c         1 13N      0.686700
     21 OAB         2.6620    0.2660   -1.1730 o         1 13N     -0.603100
     22 CBF         2.5230   -1.7420    0.1330 ca        1 13N     -0.193600
     23 CBB         3.0610   -2.9980   -0.2070 ca        1 13N      0.185100
     24 OAE         4.2630   -3.0020   -0.8740 oh        1 13N     -0.497100
     25 CAN         2.4090   -4.1860    0.1360 ca        1 13N     -0.245000
     26 CBA         1.2080   -4.1110    0.8530 ca        1 13N      0.195100
     27 OAD         0.6270   -5.3150    1.1520 oh        1 13N     -0.485100
     28 CBD         0.6790   -2.8620    1.2390 ca        1 13N     -0.097600
     29 CL1        -0.7630   -2.8170    2.1460 cl        1 13N     -0.078400
     30 CBE         1.3320   -1.6750    0.8720 ca        1 13N      0.055700
     31 CAU         0.8070   -0.3520    1.3100 c3        1 13N     -0.152100
     32 CAX        -0.2870    0.2230    0.4450 c         1 13N      0.595100
     33 OAA        -0.8900   -0.4160   -0.4170 o         1 13N     -0.514100
     34 HAL        -4.7840    1.4320    1.4850 ha        1 13N      0.142000
     35 HAJ        -6.4440   -0.3570    2.0490 ha        1 13N      0.130500
     36 HAI        -7.5030   -1.6950    0.2270 ha        1 13N      0.129000
     37 HAK        -6.9040   -1.2500   -2.1540 ha        1 13N      0.130500
     38 HAM        -5.2530    0.5280   -2.7160 ha        1 13N      0.142000
     39 HAT1       -4.0330    2.4430   -2.0710 h1        1 13N      0.067200
     40 HAT2       -4.2310    3.1030   -0.3730 h1        1 13N      0.067200
     41 HAW        -2.1600    1.1660   -1.2790 hn        1 13N      0.327500
     42 HBG        -0.3700    1.8360    1.8590 hc        1 13N      0.095700
     43 HAS1        1.3700    1.9820   -0.2120 hc        1 13N      0.071200
     44 HAS2       -0.0090    2.7870   -1.0470 hc        1 13N      0.071200
     45 HAQ1       -0.1180    4.5580    0.5880 hc        1 13N      0.047700
     46 HAQ2        0.8750    3.6480    1.7890 hc        1 13N      0.047700
     47 HAO1        1.9590    4.4830   -0.9810 hc        1 13N      0.047700
     48 HAO2        2.0410    5.5560    0.4740 hc        1 13N      0.047700
     49 HAG         3.5650    4.0690    1.6260 ha        1 13N      0.116000
     50 HAH         3.5120    2.5750   -1.1090 ha        1 13N      0.145000
     51 HAP1        5.9950    2.8100    0.0740 hc        1 13N      0.051700
     52 HAP2        5.1090    2.0690    1.4660 hc        1 13N      0.051700
     53 HAR1        5.1010    0.9420   -1.4340 h1        1 13N      0.052700
     54 HAR2        6.3630    0.5000   -0.1860 h1        1 13N      0.052700
     55 HAV         4.8830   -0.9420    0.7250 hn        1 13N      0.314500
     56 HAE         4.4460   -3.9090   -1.1610 ho        1 13N      0.433000
     57 HAN         2.8130   -5.1670   -0.1470 ha        1 13N      0.163000
     58 HAD        -0.2210   -5.1500    1.5970 ho        1 13N      0.439000
     59 HAU1        0.4010   -0.4330    2.3580 hc        1 13N      0.092700
     60 HAU2        1.6490    0.3960    1.3390 hc        1 13N      0.092700
@<TRIPOS>BOND
     1    1    2 ar  
     2    1    6 ar  
     3    1   34 1   
     4    2    3 ar  
     5    2   35 1   
     6    3    4 ar  
     7    3   36 1   
     8    4    5 ar  
     9    4   37 1   
    10    5    6 ar  
    11    5   38 1   
    12    6    7 1   
    13    7    8 1   
    14    7   39 1   
    15    7   40 1   
    16    8    9 1   
    17    8   41 1   
    18    9   10 2   
    19    9   11 1   
    20   11   12 1   
    21   11   32 1   
    22   11   42 1   
    23   12   13 1   
    24   12   43 1   
    25   12   44 1   
    26   13   14 1   
    27   13   45 1   
    28   13   46 1   
    29   14   15 1   
    30   14   47 1   
    31   14   48 1   
    32   15   16 2   
    33   15   49 1   
    34   16   17 1   
    35   16   50 1   
    36   17   18 1   
    37   17   51 1   
    38   17   52 1   
    39   18   19 1   
    40   18   53 1   
    41   18   54 1   
    42   19   20 1   
    43   19   55 1   
    44   20   21 2   
    45   20   22 1   
    46   22   23 ar  
    47   22   30 ar  
    48   23   24 1   
    49   23   25 ar  
    50   24   56 1   
    51   25   26 ar  
    52   25   57 1   
    53   26   27 1   
    54   26   28 ar  
    55   27   58 1   
    56   28   29 1   
    57   28   30 ar  
    58   30   31 1   
    59   31   32 1   
    60   31   59 1   
    61   31   60 1   
    62   32   33 2   
@<TRIPOS>SUBSTRUCTURE
     1 13N         1 TEMP              0 ****  ****    0 ROOT
