@<TRIPOS>MOLECULE
13P
   15    13     1     0     0
SMALL
bcc


@<TRIPOS>ATOM
      1 P           2.0680    1.9320    0.8020 p4        1 13P      1.680200
      2 O1P         3.5430    1.7950    1.0970 o         1 13P     -0.924500
      3 O2P         1.3490    2.4110    2.0400 os        1 13P     -1.249000
      4 O3P         1.8690    2.9290   -0.3140 o         1 13P     -0.973300
      5 O1          1.4870    0.5290    0.3640 os        1 13P     -0.556200
      6 C1          0.1390    0.4570   -0.0410 c3        1 13P      0.145400
      7 C2         -0.2810   -0.9930   -0.1400 c         1 13P      0.529100
      8 O2          0.4910   -1.8730    0.1860 o         1 13P     -0.682100
      9 C3         -1.6640   -1.3470   -0.6420 c3        1 13P     -0.008600
     10 O3         -1.8760   -2.7340   -0.4960 oh        1 13P     -0.651800
     11 H11        -0.4240    0.9170    0.6160 h1        1 13P      0.026200
     12 H12         0.0380    0.8870   -0.9150 h1        1 13P      0.026200
     13 H31        -2.3350   -0.8580   -0.1220 h1        1 13P      0.124200
     14 H32        -1.7410   -1.1020   -1.5870 h1        1 13P      0.124200
     15 HO3        -2.6630   -2.9520   -0.8480 ho        1 13P      0.391000
@<TRIPOS>BOND
     1    1    2 1   
     2    1    4 2   
     3    1    5 1   
     4    5    6 1   
     5    6    7 1   
     6    6   11 1   
     7    6   12 1   
     8    7    8 2   
     9    7    9 1   
    10    9   10 1   
    11    9   13 1   
    12    9   14 1   
    13   10   15 1   
@<TRIPOS>SUBSTRUCTURE
     1 13P         1 TEMP              0 ****  ****    0 ROOT
