@<TRIPOS>MOLECULE
13P
   15    14     1     0     0
SMALL
bcc


@<TRIPOS>ATOM
      1 P           0.8350    0.2670   -0.7280 p5        1 13P      1.312900
      2 O1P         1.8770    0.9170   -1.6040 o         1 13P     -0.921833
      3 O2P         1.0830    0.2670    0.7500 o         1 13P     -0.921833
      4 O3P         0.1970   -0.9650   -1.3140 o         1 13P     -0.921833
      5 O1         -0.4510    1.4400   -0.9000 os        1 13P     -0.551200
      6 C1         -1.2830    1.2540   -1.9680 c3        1 13P      0.132400
      7 C2         -1.0500    2.3050   -3.0470 c         1 13P      0.521100
      8 O2         -1.9030    3.1480   -3.3810 o         1 13P     -0.664100
      9 C3          0.3030    2.2820   -3.7010 c3        1 13P     -0.035600
     10 O3          0.5270    3.3860   -4.5710 oh        1 13P     -0.641800
     11 H11        -2.3600    1.3550   -1.6370 h1        1 13P      0.021700
     12 H12        -1.1290    0.2340   -2.4340 h1        1 13P      0.021700
     13 H31         1.1050    2.2120   -2.8860 h1        1 13P      0.129200
     14 H32         0.3980    1.3670   -4.3450 h1        1 13P      0.129200
     15 HO3         0.0100    4.1200   -4.2210 ho        1 13P      0.389000
@<TRIPOS>BOND
     1    1    2 1   
     2    1    3 1   
     3    1    4 1   
     4    1    5 1   
     5    5    6 1   
     6    6    7 1   
     7    6   11 1   
     8    6   12 1   
     9    7    8 2   
    10    7    9 1   
    11    9   10 1   
    12    9   13 1   
    13    9   14 1   
    14   10   15 1   
@<TRIPOS>SUBSTRUCTURE
     1 13P         1 TEMP              0 ****  ****    0 ROOT
