@<TRIPOS>MOLECULE
13P
   15    14     1     0     0
SMALL
bcc


@<TRIPOS>ATOM
      1 P          -0.0410   -0.3430   -1.0080 p5        1 13P      1.311900
      2 O1P         1.3290   -0.2840   -0.3900 o         1 13P     -0.926167
      3 O2P        -1.1360   -0.9740   -0.2030 o         1 13P     -0.926167
      4 O3P        -0.0550   -0.5670   -2.5000 o         1 13P     -0.926167
      5 O1         -0.4790    1.3600   -1.0140 os        1 13P     -0.556200
      6 C1          0.5040    2.1600   -1.5200 c3        1 13P      0.145400
      7 C2          0.1600    2.7530   -2.8740 c         1 13P      0.529100
      8 O2          0.7580    3.7420   -3.3500 o         1 13P     -0.682100
      9 C3         -0.9150    2.0720   -3.6720 c3        1 13P     -0.008600
     10 O3         -1.2300    2.7480   -4.8860 oh        1 13P     -0.651800
     11 H11         1.4740    1.5880   -1.6450 h1        1 13P      0.026200
     12 H12         0.6900    3.0380   -0.8280 h1        1 13P      0.026200
     13 H31        -0.5920    1.0060   -3.8850 h1        1 13P      0.124200
     14 H32        -1.8640    2.0380   -3.0740 h1        1 13P      0.124200
     15 HO3        -0.4450    3.2490   -5.1390 ho        1 13P      0.391000
@<TRIPOS>BOND
     1    1    2 1   
     2    1    3 1   
     3    1    4 1   
     4    1    5 1   
     5    5    6 1   
     6    6    7 1   
     7    6   11 1   
     8    6   12 1   
     9    7    8 2   
    10    7    9 1   
    11    9   10 1   
    12    9   13 1   
    13    9   14 1   
    14   10   15 1   
@<TRIPOS>SUBSTRUCTURE
     1 13P         1 TEMP              0 ****  ****    0 ROOT
