@<TRIPOS>MOLECULE
13P
   15    14     1     0     0
SMALL
bcc


@<TRIPOS>ATOM
      1 P           0.7930    0.3930   -1.3020 p5        1 13P      1.311900
      2 O1P         0.9880   -0.9730   -1.9010 o         1 13P     -0.926167
      3 O2P         0.2180    1.4590   -2.1850 o         1 13P     -0.926167
      4 O3P         1.8490    0.8070   -0.3070 o         1 13P     -0.926167
      5 O1         -0.5050    0.0760   -0.1600 os        1 13P     -0.556200
      6 C1         -0.2750   -1.0220    0.6160 c3        1 13P      0.145400
      7 C2          0.0180   -0.6840    2.0670 c         1 13P      0.529100
      8 O2         -0.0640   -1.5260    2.9860 o         1 13P     -0.682100
      9 C3          0.4700    0.7160    2.3700 c3        1 13P     -0.008600
     10 O3          0.6360    0.9660    3.7630 oh        1 13P     -0.651800
     11 H11         0.6080   -1.6190    0.2300 h1        1 13P      0.026200
     12 H12        -1.1870   -1.6940    0.6260 h1        1 13P      0.026200
     13 H31        -0.3000    1.4470    2.0070 h1        1 13P      0.124200
     14 H32         1.4380    0.9160    1.8140 h1        1 13P      0.124200
     15 HO3         0.8180    0.1140    4.1800 ho        1 13P      0.391000
@<TRIPOS>BOND
     1    1    2 1   
     2    1    3 1   
     3    1    4 1   
     4    1    5 1   
     5    5    6 1   
     6    6    7 1   
     7    6   11 1   
     8    6   12 1   
     9    7    8 2   
    10    7    9 1   
    11    9   10 1   
    12    9   13 1   
    13    9   14 1   
    14   10   15 1   
@<TRIPOS>SUBSTRUCTURE
     1 13P         1 TEMP              0 ****  ****    0 ROOT
