@<TRIPOS>MOLECULE
13Q
   51    48     1     0     0
SMALL
bcc


@<TRIPOS>ATOM
      1 C1          1.6730    0.2630   -1.6770 c1        1 13Q     -0.124000
      2 C2          3.0520    0.1000   -1.8090 c1        1 13Q     -0.148000
      3 C3          3.7700   -0.5740   -0.8260 c1        1 13Q     -0.064000
      4 C4          3.1120   -1.0860    0.2910 c2        1 13Q     -0.125000
      5 C5          1.7350   -0.9230    0.4240 c1        1 13Q     -0.091000
      6 C6          1.0140   -0.2480   -0.5610 c1        1 13Q     -0.095000
      7 C7         -0.4570    0.0590   -0.3460 c3        1 13Q      0.095000
      8 N1         -1.2090   -1.2430   -0.3150 n         1 13Q     -0.329000
      9 O1         -3.2910   -1.9770   -0.4200 o         1 13Q     -0.408000
     10 C8         -2.5030   -1.1310   -0.0290 c2        1 13Q      0.313000
     11 O2         -4.3500   -1.1670    4.1240 o         1 13Q     -0.577500
     12 C9         -2.8310   -0.3030    1.1800 c3        1 13Q     -0.083000
     13 C10        -2.1450    1.0160    1.1150 c3        1 13Q     -0.149000
     14 C11        -0.5830    0.9300    0.9010 c3        1 13Q     -0.105000
     15 C12        -0.0250    2.2390    0.6710 c2        1 13Q     -0.037000
     16 C13        -0.4280    2.9810   -0.4370 c2        1 13Q     -0.135000
     17 C14         0.8180    2.8100    1.6210 c1        1 13Q     -0.101000
     18 C15         1.2570    4.1220    1.4630 c1        1 13Q     -0.062000
     19 O3         -4.2620   -2.7520    2.6190 o         1 13Q     -0.577500
     20 C16         0.8540    4.8620    0.3560 c1        1 13Q     -0.141000
     21 C17         0.0110    4.2920   -0.5940 c1        1 13Q     -0.134000
     22 C18        -0.7280   -2.3940   -1.1030 c3        1 13Q      0.012000
     23 C19         0.6830   -2.1030   -1.6280 cx        1 13Q     -0.185000
     24 C20         0.9280   -2.4490   -3.0900 cx        1 13Q     -0.211000
     25 C21         1.5160   -3.3240   -1.9930 cx        1 13Q     -0.211000
     26 C22        -2.5020   -1.0910    2.5630 c3        1 13Q     -0.226000
     27 C23        -3.7890   -1.6940    3.1230 c2        1 13Q      0.328000
     28 CL1         5.4770   -0.8730   -1.0450 cl        1 13Q     -0.045000
     29 CL2         1.7580    5.2300    2.7150 cl        1 13Q     -0.045000
     30 H1          1.1660    0.7390   -2.3720 ha        1 13Q      0.125000
     31 H2          3.5210    0.4910   -2.5780 ha        1 13Q      0.132000
     32 H3          3.6200   -1.5610    0.9850 ha        1 13Q      0.152000
     33 H4          1.2830   -1.2230    1.2410 ha        1 13Q      0.220000
     34 H5         -0.7780    0.5790   -1.1160 h1        1 13Q      0.074000
     35 H6         -3.8040   -0.1810    1.2610 hc        1 13Q      0.113000
     36 H8         -2.5330    1.5320    0.3730 hc        1 13Q      0.101000
     37 H7         -2.3180    1.4980    1.9560 hc        1 13Q      0.101000
     38 H9         -0.1510    0.4970    1.6710 hc        1 13Q      0.182000
     39 H10        -1.0580    2.5960   -1.0820 ha        1 13Q      0.134000
     40 H11         1.0520    2.3090    2.4320 ha        1 13Q      0.178000
     41 H12         1.1800    5.7800    0.2340 ha        1 13Q      0.132000
     42 H13        -0.1840    4.8620   -1.3690 ha        1 13Q      0.123000
     43 H15        -0.7070   -3.1960   -0.5320 h1        1 13Q      0.086500
     44 H14        -1.3360   -2.5480   -1.8630 h1        1 13Q      0.086500
     45 H16         1.1780   -1.3440   -1.2860 hc        1 13Q      0.128000
     46 H18         1.5680   -1.8720   -3.5630 hc        1 13Q      0.109500
     47 H17         0.1610   -2.8280   -3.5740 hc        1 13Q      0.109500
     48 H20         1.0770   -4.1950   -1.8610 hc        1 13Q      0.109500
     49 H19         2.4840   -3.2380   -1.8500 hc        1 13Q      0.109500
     50 H22        -2.1240   -0.4620    3.2160 hc        1 13Q      0.078000
     51 H21        -1.8550   -1.8080    2.3850 hc        1 13Q      0.078000
@<TRIPOS>BOND
     1    1    6 1   
     2    1   30 1   
     3    2    3 1   
     4    2   31 1   
     5    3    4 1   
     6    4    5 1   
     7    4   32 1   
     8    5   33 1   
     9    6    7 1   
    10    7    8 1   
    11    7   14 1   
    12    7   34 1   
    13    8   10 1   
    14    8   22 1   
    15    9   10 1   
    16   10   12 1   
    17   11   27 1   
    18   12   13 1   
    19   12   26 1   
    20   12   35 1   
    21   13   14 1   
    22   13   36 1   
    23   13   37 1   
    24   14   15 1   
    25   14   38 1   
    26   15   16 1   
    27   15   17 1   
    28   16   21 1   
    29   16   39 1   
    30   17   40 1   
    31   18   20 1   
    32   19   27 1   
    33   20   41 1   
    34   21   42 1   
    35   22   23 1   
    36   22   43 1   
    37   22   44 1   
    38   23   24 1   
    39   23   25 1   
    40   23   45 1   
    41   24   25 1   
    42   24   46 1   
    43   24   47 1   
    44   25   48 1   
    45   25   49 1   
    46   26   27 1   
    47   26   50 1   
    48   26   51 1   
@<TRIPOS>SUBSTRUCTURE
     1 13Q         1 TEMP              0 ****  ****    0 ROOT
