@<TRIPOS>MOLECULE
13Q
   51    68     1     0     0
SMALL
bcc


@<TRIPOS>ATOM
      1 C1          0.0000    0.0000    0.0000 c3        1 13Q     -0.082000
      2 C2          1.3820    0.0000    0.0000 c2        1 13Q     -0.310000
      3 C3          2.0750    0.0000    1.1980 c2        1 13Q      0.029000
      4 C4          1.3820   -0.0000    2.3960 c3        1 13Q     -0.274000
      5 C5         -0.0000    0.0010    2.3950 c2        1 13Q     -0.355000
      6 C6         -0.6900    0.0010    1.1970 DU        1 13Q     -0.026000
      7 C7         -2.1980    0.0080    1.1970 c3        1 13Q     -0.388000
      8 N1         -2.6840   -1.0070    2.1240 nx        1 13Q      0.284000
      9 C8         -3.7220   -0.8340    2.9440 c2        1 13Q      0.156000
     10 O2         -5.0230   -0.6620    5.3940 o         1 13Q     -0.566000
     11 C9         -4.4920    0.4510    3.0470 DU        1 13Q      0.234000
     12 C10        -4.2140    1.3250    1.8220 DU        1 13Q     -0.208000
     13 C11        -2.6970    1.3930    1.6100 c3        1 13Q     -0.554000
     14 C12        -2.3830    2.3880    0.5220 c3        1 13Q     -0.038000
     15 C13        -1.5750    3.4760    0.7940 c2        1 13Q     -0.260000
     16 C14        -2.8980    2.2090   -0.7480 c2        1 13Q     -0.270000
     17 C15        -2.6090    3.1220   -1.7470 c2        1 13Q     -0.084000
     18 O3         -4.1820    0.8610    6.7560 o         1 13Q     -0.566000
     19 C16        -1.8050    4.2140   -1.4730 c3        1 13Q     -0.289000
     20 C17        -1.2860    4.3890   -0.2050 c2        1 13Q     -0.273000
     21 C18        -1.9900   -2.2970    2.1570 DU        1 13Q     -0.227000
     22 C19        -2.7120   -3.2870    1.2420 DU        1 13Q     -0.431000
     23 C20        -2.2010   -4.7290    1.2180 DU        1 13Q     -0.430000
     24 C21        -1.9490   -3.8070    0.0220 cx        1 13Q     -0.555000
     25 C22        -4.0650    1.1990    4.3130 c3        1 13Q     -0.112000
     26 C23        -4.4590    0.3970    5.5270 c2        1 13Q      0.362000
     27 Cl1         3.8100   -0.0010    1.1980 cl        1 13Q      0.202000
     28 Cl2        -3.2560    2.8970   -3.3420 cl        1 13Q      0.163000
     29 H1         -0.7490   -0.3650    0.6920 DU        1 13Q      0.239000
     30 H2          0.4090   -0.0230   -0.4760 DU        1 13Q      0.184000
     31 H3          1.5560   -0.0000    1.3260 hc        1 13Q      0.258000
     32 H4          0.9730    0.0000    2.8710 DU        1 13Q      0.202000
     33 H5         -1.5350    0.0050    2.0540 DU        1 13Q      0.277000
     34 H6         -3.8960    0.2440    2.1670 DU        1 13Q      0.107500
     35 H8         -4.8910    0.7730    2.4630 DU        1 13Q      0.107500
     36 H7         -4.6020    2.3220    1.9920 ha        1 13Q      0.164000
     37 H9         -3.6950    1.1380    1.2760 DU        1 13Q      0.232000
     38 H10        -1.8430    2.7260    1.5270 DU        1 13Q      0.335000
     39 H11        -2.3430    2.6590    0.0660 ha        1 13Q      0.130000
     40 H12        -2.3680    3.3040   -1.3060 hc        1 13Q      0.159000
     41 H13        -1.4460    4.6720   -1.2380 DU        1 13Q      0.257000
     42 H15        -1.8080   -1.2690    1.8650 DU        1 13Q      0.202000
     43 H14        -0.9700   -2.1670    1.8160 hx        1 13Q      0.148000
     44 H16        -2.3470   -2.9820    2.2150 DU        1 13Q      0.261000
     45 H18        -2.9750   -3.9730    1.1580 DU        1 13Q      0.214000
     46 H17        -2.9570   -5.4900    1.0700 ha        1 13Q      0.101000
     47 H20        -1.6510   -4.3540    0.9080 DU        1 13Q      0.242000
     48 H19        -2.5510   -4.0060   -0.8570 hc        1 13Q      0.060000
     49 H22        -3.5880    0.4920    3.6440 DU        1 13Q     -0.049000
     50 H21        -3.0240    1.4980    4.3190 hc        1 13Q      0.149000
     51 O1         -4.0620   -1.7650    3.6430 o         1 13Q     -0.115000
@<TRIPOS>BOND
     1    1    2 1   
     2    1    6 1   
     3    1   29 1   
     4    1   30 1   
     5    2    3 1   
     6    2   30 1   
     7    3    4 1   
     8    3   27 1   
     9    4    5 1   
    10    4   31 1   
    11    4   32 1   
    12    5    6 1   
    13    5   32 1   
    14    6    7 1   
    15    6   29 1   
    16    6   33 1   
    17    7    8 1   
    18    7   13 1   
    19    7   33 1   
    20    8    9 1   
    21    8   21 1   
    22    8   42 1   
    23    9   11 1   
    24    9   51 1   
    25   10   26 1   
    26   11   12 1   
    27   11   25 1   
    28   11   34 1   
    29   11   35 1   
    30   11   49 1   
    31   12   13 1   
    32   12   34 1   
    33   12   35 1   
    34   12   36 1   
    35   12   37 1   
    36   13   14 1   
    37   13   37 1   
    38   14   15 1   
    39   14   16 1   
    40   14   38 1   
    41   15   20 1   
    42   15   38 1   
    43   16   17 1   
    44   16   39 1   
    45   17   19 1   
    46   17   28 1   
    47   18   26 1   
    48   19   20 1   
    49   19   40 1   
    50   19   41 1   
    51   20   41 1   
    52   21   22 1   
    53   21   42 1   
    54   21   43 1   
    55   21   44 1   
    56   22   23 1   
    57   22   24 1   
    58   22   44 1   
    59   22   45 1   
    60   23   24 1   
    61   23   45 1   
    62   23   46 1   
    63   23   47 1   
    64   24   47 1   
    65   24   48 1   
    66   25   26 1   
    67   25   49 1   
    68   25   50 1   
@<TRIPOS>SUBSTRUCTURE
     1 13Q         1 TEMP              0 ****  ****    0 ROOT
