@<TRIPOS>MOLECULE
13Q
   51    54     1     0     0
SMALL
bcc


@<TRIPOS>ATOM
      1 C1          1.1970    2.1440    0.0600 ca        1 13Q     -0.107500
      2 C2          1.7480    3.1930   -0.6720 ca        1 13Q     -0.136000
      3 C3          1.2690    3.4530   -1.9580 ca        1 13Q      0.014400
      4 C4          0.2560    2.6680   -2.5120 ca        1 13Q     -0.136000
      5 C5         -0.2890    1.6170   -1.7730 ca        1 13Q     -0.107500
      6 C6          0.1770    1.3510   -0.4800 ca        1 13Q     -0.098300
      7 C7         -0.3940    0.2230    0.3640 c3        1 13Q      0.176000
      8 N1         -1.6720    0.5920    0.9520 n         1 13Q     -0.468800
      9 C8         -2.8550   -0.1120    0.7580 c         1 13Q      0.702500
     10 O2         -2.8450   -2.6360   -3.0610 o         1 13Q     -0.843800
     11 C9         -2.8750   -1.2640   -0.2340 c3        1 13Q     -0.092700
     12 C10        -1.5560   -2.0090   -0.1600 c3        1 13Q     -0.071400
     13 C11        -0.3810   -1.0920   -0.4570 c3        1 13Q     -0.060400
     14 C12         0.9100   -1.8240   -0.2530 ca        1 13Q     -0.044300
     15 C13         1.7080   -2.1230   -1.3670 ca        1 13Q     -0.105000
     16 C14         1.3210   -2.2420    1.0180 ca        1 13Q     -0.129000
     17 C15         2.5270   -2.9320    1.1630 ca        1 13Q      0.011400
     18 O3         -1.6300   -0.7900   -3.3780 o         1 13Q     -0.843800
     19 C16         3.3280   -3.2220    0.0570 ca        1 13Q     -0.139000
     20 C17         2.9060   -2.8160   -1.2080 ca        1 13Q     -0.129000
     21 C18        -1.6410    1.6570    1.9290 c3        1 13Q      0.117000
     22 C19        -1.3730    1.2100    3.3480 cx        1 13Q     -0.133700
     23 C20        -0.8600    2.2280    4.3290 cx        1 13Q     -0.138900
     24 C21         0.0370    1.1190    3.8620 cx        1 13Q     -0.138900
     25 C22        -3.2540   -0.7440   -1.6120 c3        1 13Q     -0.196400
     26 C23        -2.5260   -1.4530   -2.7670 c         1 13Q      0.908600
     27 CL1         1.9350    4.7420   -2.8580 cl        1 13Q     -0.131400
     28 CL2         3.0280   -3.4300    2.7180 cl        1 13Q     -0.130400
     29 H1          1.5760    1.9380    1.0730 ha        1 13Q      0.171500
     30 H2          2.5510    3.8070   -0.2400 ha        1 13Q      0.141500
     31 H3         -0.1120    2.8620   -3.5310 ha        1 13Q      0.141500
     32 H4         -1.0710    0.9780   -2.2430 ha        1 13Q      0.171500
     33 H5          0.3130    0.0820    1.2460 h1        1 13Q      0.038700
     34 H6         -3.6850   -1.9710    0.1080 hc        1 13Q      0.072700
     35 H8         -1.4420   -2.4660    0.8580 hc        1 13Q      0.062200
     36 H7         -1.5710   -2.8390   -0.9200 hc        1 13Q      0.062200
     37 H9         -0.4690   -0.8260   -1.5600 hc        1 13Q      0.143700
     38 H10         1.3710   -1.8170   -2.3720 ha        1 13Q      0.169000
     39 H11         0.6910   -2.0340    1.8960 ha        1 13Q      0.146000
     40 H12         4.2750   -3.7670    0.1800 ha        1 13Q      0.133000
     41 H13         3.5240   -3.0470   -2.0880 ha        1 13Q      0.130000
     42 H15        -0.8560    2.4060    1.6180 h1        1 13Q      0.060200
     43 H14        -2.6470    2.1720    1.9180 h1        1 13Q      0.060200
     44 H16        -2.1110    0.4620    3.7020 hc        1 13Q      0.094700
     45 H18        -0.6650    3.2570    3.9800 hc        1 13Q      0.064450
     46 H17        -1.2440    2.2100    5.3640 hc        1 13Q      0.064450
     47 H20         0.3000    0.3070    4.5620 hc        1 13Q      0.064450
     48 H19         0.8730    1.3590    3.1800 hc        1 13Q      0.064450
     49 H22        -4.3550   -0.8810   -1.7580 hc        1 13Q      0.038200
     50 H21        -3.0370    0.3530   -1.6840 hc        1 13Q      0.038200
     51 O1         -3.8780    0.2150    1.4000 o         1 13Q     -0.680500
@<TRIPOS>BOND
     1    1    2 ar  
     2    1    6 ar  
     3    1   29 1   
     4    2    3 ar  
     5    2   30 1   
     6    3    4 ar  
     7    3   27 1   
     8    4    5 ar  
     9    4   31 1   
    10    5    6 ar  
    11    5   32 1   
    12    6    7 1   
    13    7    8 1   
    14    7   13 1   
    15    7   33 1   
    16    8    9 1   
    17    8   21 1   
    18    9   11 1   
    19    9   51 2   
    20   10   26 1   
    21   11   12 1   
    22   11   25 1   
    23   11   34 1   
    24   12   13 1   
    25   12   35 1   
    26   12   36 1   
    27   13   14 1   
    28   13   37 1   
    29   14   15 ar  
    30   14   16 ar  
    31   15   20 ar  
    32   15   38 1   
    33   16   17 ar  
    34   16   39 1   
    35   17   19 ar  
    36   17   28 1   
    37   18   26 1   
    38   19   20 ar  
    39   19   40 1   
    40   20   41 1   
    41   21   22 1   
    42   21   42 1   
    43   21   43 1   
    44   22   23 1   
    45   22   24 1   
    46   22   44 1   
    47   23   24 1   
    48   23   45 1   
    49   23   46 1   
    50   24   47 1   
    51   24   48 1   
    52   25   26 1   
    53   25   49 1   
    54   25   50 1   
@<TRIPOS>SUBSTRUCTURE
     1 13Q         1 TEMP              0 ****  ****    0 ROOT
