@<TRIPOS>MOLECULE
13Q
   51    49     1     0     0
SMALL
bcc


@<TRIPOS>ATOM
      1 C1          2.3700   -1.8150    0.6090 c2        1 13Q     -0.452000
      2 C2          2.1020   -3.0120    0.1300 c1        1 13Q      0.190000
      3 C3          3.9790    0.7790    0.0260 c2        1 13Q     -0.174000
      4 C4          3.0610    1.1380    0.9330 c2        1 13Q     -0.103000
      5 C5          1.7480    0.5400    1.0430 c2        1 13Q     -0.158000
      6 C6          1.4280   -0.7550    0.8930 c2        1 13Q     -0.066000
      7 C7         -3.1110    0.0250    2.2780 c1        1 13Q     -0.276000
      8 N1         -2.2110   -0.8850    2.3980 n2        1 13Q     -0.061000
      9 C8         -5.3600   -1.9310    3.9050 c2        1 13Q      0.244000
     10 O2         -6.1300   -1.3560    4.9110 os        1 13Q     -0.302000
     11 C9         -5.5620    1.2140    3.1150 c3        1 13Q     -0.136000
     12 C10        -4.5490    2.0450    2.3560 c3        1 13Q     -0.066000
     13 C11        -3.2780    1.3450    2.0320 c2        1 13Q     -0.263000
     14 C12        -2.2090    2.1350    1.4830 c2        1 13Q      0.001000
     15 C13        -2.2760    3.4520    1.1740 c2        1 13Q     -0.223000
     16 C14        -5.7210    1.7190   -0.7160 c1        1 13Q      0.180000
     17 C15        -4.8630    0.7340   -0.8630 c2        1 13Q     -0.466000
     18 O3         -6.7460    0.2760    6.1790 o         1 13Q     -0.322000
     19 C16        -0.2940    4.8130    0.1890 c1        1 13Q     -0.316000
     20 C17        -1.2020    4.1730    0.6430 c1        1 13Q     -0.066000
     21 C18        -1.8310   -1.8990    1.6790 c2        1 13Q     -0.286000
     22 C19        -2.2020   -2.2110    0.2910 cx        1 13Q     -0.095000
     23 C20        -2.4110   -3.6530   -0.1030 cx        1 13Q     -0.224500
     24 C21        -1.2000   -2.9150   -0.5920 cx        1 13Q     -0.224500
     25 C22        -5.0750    0.8940    4.5140 c3        1 13Q     -0.201000
     26 C23        -6.0080   -0.0210    5.2370 c2        1 13Q      0.317000
     27 CL1         5.5070    1.5130   -0.0750 cl        1 13Q     -0.059000
     28 CL2        -4.6520   -0.3120   -2.1650 cl        1 13Q      0.014000
     29 H1         -0.2100   -3.1800   -0.1750 hc        1 13Q      0.098000
     30 H2          3.4360   -1.5860    0.8360 ha        1 13Q      0.189000
     31 H3          3.8300    0.0080   -0.7390 h4        1 13Q      0.154000
     32 H4          3.2600    1.9560    1.6500 ha        1 13Q      0.139000
     33 H5          0.9450    1.2590    1.3000 ha        1 13Q      0.155000
     34 H6         -5.7600    0.2640    2.5500 hc        1 13Q      0.079500
     35 H8         -6.5300    1.7780    3.1790 hc        1 13Q      0.079500
     36 H7         -4.3220    2.9720    2.9510 hc        1 13Q      0.061500
     37 H9         -5.0340    2.3900    1.3950 hc        1 13Q      0.061500
     38 H10        -3.2020    4.0310    1.3270 ha        1 13Q      0.129000
     39 H11        -1.2610    1.5930    1.3040 ha        1 13Q      0.105000
     40 H12        -4.1550    0.5460   -0.0100 h4        1 13Q      0.248000
     41 H13         0.5060    5.3730   -0.2150 ha        1 13Q      0.205000
     42 H15        -4.6140   -1.3110    3.3590 h5        1 13Q      0.229000
     43 H14         0.3700   -1.0740    1.0130 ha        1 13Q      0.176000
     44 H16        -1.1910   -2.6390    2.1900 h4        1 13Q      0.120000
     45 H18        -2.8580   -1.4540   -0.1880 hc        1 13Q      0.114000
     46 H17        -3.2150   -3.8990   -0.8180 hc        1 13Q      0.098000
     47 H20        -2.2860   -4.4360    0.6650 hc        1 13Q      0.098000
     48 H19        -1.1350   -2.6330   -1.6560 hc        1 13Q      0.098000
     49 H22        -4.0500    0.4320    4.4580 hc        1 13Q      0.131000
     50 H21        -4.9890    1.8420    5.1090 hc        1 13Q      0.131000
     51 O1         -5.6450   -3.1160    3.7640 o         1 13Q     -0.305000
@<TRIPOS>BOND
     1    1    2 1   
     2    1    6 1   
     3    1   30 1   
     4    3    4 1   
     5    3   27 1   
     6    3   31 1   
     7    4    5 1   
     8    4   32 1   
     9    5    6 1   
    10    5   33 1   
    11    6   43 1   
    12    7    8 1   
    13    7   13 1   
    14    8   21 1   
    15    9   10 1   
    16    9   42 1   
    17    9   51 1   
    18   10   26 1   
    19   11   12 1   
    20   11   25 1   
    21   11   34 1   
    22   11   35 1   
    23   12   13 1   
    24   12   36 1   
    25   12   37 1   
    26   13   14 1   
    27   14   15 1   
    28   14   39 1   
    29   15   20 1   
    30   15   38 1   
    31   16   17 1   
    32   17   28 1   
    33   17   40 1   
    34   18   26 1   
    35   19   20 1   
    36   19   41 1   
    37   21   22 1   
    38   21   44 1   
    39   22   23 1   
    40   22   24 1   
    41   22   45 1   
    42   23   24 1   
    43   23   46 1   
    44   23   47 1   
    45   24   29 1   
    46   24   48 1   
    47   25   26 1   
    48   25   49 1   
    49   25   50 1   
@<TRIPOS>SUBSTRUCTURE
     1 13Q         1 TEMP              0 ****  ****    0 ROOT
