@<TRIPOS>MOLECULE
13R
   53    52     1     0     0
SMALL
bcc


@<TRIPOS>ATOM
      1 C1         -0.3190    0.7860   -0.2350 c         1 13R      0.907600
      2 C2          1.1710    1.0750    0.0170 c3        1 13R     -0.194400
      3 C3          1.6910    0.2890    1.1950 c3        1 13R     -0.065400
      4 C4          3.1950    0.4080    1.3350 c3        1 13R     -0.078400
      5 C5          3.7040   -0.3700    2.5290 c3        1 13R     -0.078400
      6 C6          5.2100   -0.2700    2.6540 c3        1 13R     -0.079400
      7 C7          5.7190   -1.0540    3.8450 c3        1 13R     -0.078400
      8 C8          7.2280   -0.9640    3.9540 c3        1 13R     -0.061200
      9 C9          7.7550   -1.7330    5.1050 c2        1 13R     -0.124200
     10 C10         9.0560   -1.9360    5.3620 ce        1 13R     -0.178000
     11 C11        10.1390   -1.4190    4.5530 ce        1 13R     -0.080000
     12 C12        11.4100   -1.8400    4.6150 c2        1 13R     -0.193200
     13 C13        11.8910   -2.9430    5.4940 c3        1 13R      0.139300
     14 C14        13.3040   -3.3990    5.1520 c3        1 13R     -0.100400
     15 C15        13.3380   -4.1470    3.8380 c3        1 13R     -0.078400
     16 C16        14.7470   -4.5790    3.4900 c3        1 13R     -0.078400
     17 C17        14.7820   -5.3310    2.1770 c3        1 13R     -0.081400
     18 C18        16.1830   -5.7630    1.8250 c3        1 13R     -0.092100
     19 O19        -0.7120   -0.4170   -0.2240 o         1 13R     -0.852800
     20 O20        -1.0790    1.7710   -0.4620 o         1 13R     -0.852800
     21 O21        11.8870   -2.4110    6.8590 os        1 13R     -0.212800
     22 O22        11.8170   -3.3520    7.7350 oh        1 13R     -0.399000
     23 H21         1.7350    0.7940   -0.9090 hc        1 13R      0.018700
     24 H22         1.3130    2.1710    0.1860 hc        1 13R      0.018700
     25 H31         1.4000   -0.7880    1.0660 hc        1 13R      0.044200
     26 H32         1.1980    0.6530    2.1340 hc        1 13R      0.044200
     27 H41         3.4780    1.4880    1.4430 hc        1 13R      0.025700
     28 H42         3.6890    0.0290    0.4020 hc        1 13R      0.025700
     29 H51         3.4060   -1.4470    2.4270 hc        1 13R      0.037200
     30 H52         3.2220    0.0190    3.4640 hc        1 13R      0.037200
     31 H61         5.5070    0.8070    2.7570 hc        1 13R      0.034700
     32 H62         5.6900   -0.6570    1.7160 hc        1 13R      0.034700
     33 H71         5.2480   -0.6590    4.7840 hc        1 13R      0.040700
     34 H72         5.4120   -2.1280    3.7470 hc        1 13R      0.040700
     35 H81         7.5300    0.1150    4.0600 hc        1 13R      0.050700
     36 H82         7.6910   -1.3390    3.0010 hc        1 13R      0.050700
     37 H91         6.9950   -2.1580    5.7830 ha        1 13R      0.125000
     38 H101        9.3630   -2.5190    6.2500 ha        1 13R      0.137000
     39 H111        9.8690   -0.6170    3.8410 ha        1 13R      0.125000
     40 H121       12.1830   -1.3780    3.9820 ha        1 13R      0.126000
     41 H131       11.1860   -3.8200    5.4630 h1        1 13R      0.070700
     42 H141       13.6750   -4.0640    5.9760 hc        1 13R      0.043700
     43 H142       13.9850   -2.5100    5.1080 hc        1 13R      0.043700
     44 H151       12.6730   -5.0490    3.8990 hc        1 13R      0.046700
     45 H152       12.9310   -3.4910    3.0230 hc        1 13R      0.046700
     46 H161       15.1540   -5.2310    4.3080 hc        1 13R      0.037700
     47 H162       15.4120   -3.6770    3.4250 hc        1 13R      0.037700
     48 H171       14.1160   -6.2310    2.2440 hc        1 13R      0.041200
     49 H172       14.3730   -4.6780    1.3620 hc        1 13R      0.041200
     50 H181       16.5990   -6.4340    2.6140 hc        1 13R      0.031700
     51 H182       16.8560   -4.8770    1.7290 hc        1 13R      0.031700
     52 H183       16.1860   -6.3150    0.8540 hc        1 13R      0.031700
     53 H221       12.7320   -3.5460    8.0410 ho        1 13R      0.389000
@<TRIPOS>BOND
     1    1    2 1   
     2    1   19 1   
     3    1   20 1   
     4    2    3 1   
     5    2   23 1   
     6    2   24 1   
     7    3    4 1   
     8    3   25 1   
     9    3   26 1   
    10    4    5 1   
    11    4   27 1   
    12    4   28 1   
    13    5    6 1   
    14    5   29 1   
    15    5   30 1   
    16    6    7 1   
    17    6   31 1   
    18    6   32 1   
    19    7    8 1   
    20    7   33 1   
    21    7   34 1   
    22    8    9 1   
    23    8   35 1   
    24    8   36 1   
    25    9   10 2   
    26    9   37 1   
    27   10   11 1   
    28   10   38 1   
    29   11   12 2   
    30   11   39 1   
    31   12   13 1   
    32   12   40 1   
    33   13   14 1   
    34   13   21 1   
    35   13   41 1   
    36   14   15 1   
    37   14   42 1   
    38   14   43 1   
    39   15   16 1   
    40   15   44 1   
    41   15   45 1   
    42   16   17 1   
    43   16   46 1   
    44   16   47 1   
    45   17   18 1   
    46   17   48 1   
    47   17   49 1   
    48   18   50 1   
    49   18   51 1   
    50   18   52 1   
    51   21   22 1   
    52   22   53 1   
@<TRIPOS>SUBSTRUCTURE
     1 13R         1 TEMP              0 ****  ****    0 ROOT
