@<TRIPOS>MOLECULE
13R
   53    52     1     0     0
SMALL
bcc


@<TRIPOS>ATOM
      1 C1          1.2770    1.5460   -8.6230 c         1 13R      0.907600
      2 C2          1.5490    1.0360   -7.1960 c3        1 13R     -0.194400
      3 C3          0.2680    0.8900   -6.4130 c3        1 13R     -0.065400
      4 C4          0.5290    0.5760   -4.9550 c3        1 13R     -0.078400
      5 C5         -0.7640    0.4190   -4.1830 c3        1 13R     -0.079400
      6 C6         -0.5060    0.1190   -2.7220 c3        1 13R     -0.079400
      7 C7         -1.8020   -0.0330   -1.9540 c3        1 13R     -0.078400
      8 C8         -1.5410   -0.3290   -0.4910 c3        1 13R     -0.061200
      9 C9         -2.7960   -0.4760    0.2830 c2        1 13R     -0.120200
     10 C10        -2.8650   -0.7180    1.6000 ce        1 13R     -0.177000
     11 C11        -1.7180   -0.8740    2.4690 ce        1 13R     -0.097000
     12 C12        -1.8230   -1.0950    3.7860 c2        1 13R     -0.222200
     13 C13        -0.6420   -1.2320    4.6860 c3        1 13R      0.134300
     14 C14        -0.3560    0.0670    5.4320 c3        1 13R     -0.073400
     15 C15         1.0030    0.0350    6.0950 c3        1 13R     -0.081400
     16 C16         1.2560    1.3030    6.8830 c3        1 13R     -0.078400
     17 C17         2.6220    1.2800    7.5360 c3        1 13R     -0.080400
     18 C18         2.8780    2.5370    8.3260 c3        1 13R     -0.092100
     19 O19         0.4830    2.5190   -8.7750 o         1 13R     -0.852800
     20 O20         1.8800    0.9740   -9.5760 o         1 13R     -0.852800
     21 O21        -0.9430   -2.2150    5.7270 os        1 13R     -0.217800
     22 O22        -0.7850   -3.4220    5.3120 oh        1 13R     -0.394000
     23 H21         2.2240    1.7740   -6.6920 hc        1 13R      0.018700
     24 H22         2.0880    0.0570   -7.2480 hc        1 13R      0.018700
     25 H31        -0.3560    0.0750   -6.8650 hc        1 13R      0.044200
     26 H32        -0.3190    1.8430   -6.5040 hc        1 13R      0.044200
     27 H41         1.1410    1.3970   -4.4980 hc        1 13R      0.026700
     28 H42         1.1310   -0.3670   -4.8740 hc        1 13R      0.026700
     29 H51        -1.3730   -0.4080   -4.6350 hc        1 13R      0.037700
     30 H52        -1.3690    1.3600   -4.2730 hc        1 13R      0.037700
     31 H61         0.1040    0.9460   -2.2710 hc        1 13R      0.035200
     32 H62         0.0970   -0.8230   -2.6330 hc        1 13R      0.035200
     33 H71        -2.4100   -0.8610   -2.4040 hc        1 13R      0.041200
     34 H72        -2.4050    0.9080   -2.0470 hc        1 13R      0.041200
     35 H81        -0.9210    0.4990   -0.0490 hc        1 13R      0.052700
     36 H82        -0.9340   -1.2710   -0.4050 hc        1 13R      0.052700
     37 H91        -3.7280   -0.3730   -0.2990 ha        1 13R      0.125000
     38 H101       -3.8520   -0.8100    2.0870 ha        1 13R      0.119000
     39 H111       -0.7260   -0.7980    1.9860 ha        1 13R      0.127000
     40 H121       -2.8000   -1.1780    4.2870 ha        1 13R      0.130000
     41 H131        0.2660   -1.5830    4.1240 h1        1 13R      0.069700
     42 H141       -1.1530    0.2300    6.2040 hc        1 13R      0.055700
     43 H142       -0.4090    0.9140    4.6990 hc        1 13R      0.055700
     44 H151        1.8010   -0.0890    5.3160 hc        1 13R      0.048700
     45 H152        1.0610   -0.8560    6.7750 hc        1 13R      0.048700
     46 H161        0.4660    1.4210    7.6700 hc        1 13R      0.038700
     47 H162        1.1810    2.1910    6.2020 hc        1 13R      0.038700
     48 H171        3.4110    1.1630    6.7470 hc        1 13R      0.039700
     49 H172        2.6970    0.3870    8.2120 hc        1 13R      0.039700
     50 H181        3.8900    2.5000    8.7980 hc        1 13R      0.031367
     51 H182        2.8310    3.4350    7.6630 hc        1 13R      0.031367
     52 H183        2.1160    2.6580    9.1330 hc        1 13R      0.031367
     53 H221       -1.6280   -3.7160    4.8960 ho        1 13R      0.392000
@<TRIPOS>BOND
     1    1    2 1   
     2    1   19 1   
     3    1   20 1   
     4    2    3 1   
     5    2   23 1   
     6    2   24 1   
     7    3    4 1   
     8    3   25 1   
     9    3   26 1   
    10    4    5 1   
    11    4   27 1   
    12    4   28 1   
    13    5    6 1   
    14    5   29 1   
    15    5   30 1   
    16    6    7 1   
    17    6   31 1   
    18    6   32 1   
    19    7    8 1   
    20    7   33 1   
    21    7   34 1   
    22    8    9 1   
    23    8   35 1   
    24    8   36 1   
    25    9   10 2   
    26    9   37 1   
    27   10   11 1   
    28   10   38 1   
    29   11   12 2   
    30   11   39 1   
    31   12   13 1   
    32   12   40 1   
    33   13   14 1   
    34   13   21 1   
    35   13   41 1   
    36   14   15 1   
    37   14   42 1   
    38   14   43 1   
    39   15   16 1   
    40   15   44 1   
    41   15   45 1   
    42   16   17 1   
    43   16   46 1   
    44   16   47 1   
    45   17   18 1   
    46   17   48 1   
    47   17   49 1   
    48   18   50 1   
    49   18   51 1   
    50   18   52 1   
    51   21   22 1   
    52   22   53 1   
@<TRIPOS>SUBSTRUCTURE
     1 13R         1 TEMP              0 ****  ****    0 ROOT
