@<TRIPOS>MOLECULE
13R
   53    49     1     0     0
SMALL
bcc


@<TRIPOS>ATOM
      1 C1         -4.2830   -1.3600   -9.2380 c1        1 13R      0.327000
      2 C2         -3.1210   -1.0300   -8.3280 c2        1 13R     -0.223000
      3 C3         -3.6010   -0.9840   -6.8940 c3        1 13R     -0.144000
      4 C4         -2.4920   -0.4600   -6.0080 c3        1 13R     -0.157000
      5 C5         -2.8580   -0.6850   -4.5570 c3        1 13R     -0.158000
      6 C6         -1.7260   -0.2110   -3.6720 c3        1 13R     -0.158000
      7 C7         -2.0700   -0.4800   -2.2240 c3        1 13R     -0.157000
      8 C8         -0.9310   -0.0210   -1.3410 c3        1 13R     -0.144000
      9 C9         -1.2430   -0.3580    0.1010 c2        1 13R     -0.114000
     10 C10        -0.3510   -0.0700    1.0690 c1        1 13R     -0.179000
     11 C11         0.9630    0.5910    0.7140 c1        1 13R     -0.151500
     12 C12         1.8300    0.9330    1.6870 c1        1 13R     -0.151500
     13 C13         1.4890    0.6560    3.1340 c2        1 13R      0.026000
     14 C14         2.7570    0.6500    3.9590 c3        1 13R     -0.171000
     15 C15         2.4250    0.3050    5.3930 c3        1 13R     -0.158000
     16 C16         3.6960    0.2830    6.2140 c3        1 13R     -0.156000
     17 C17         3.3480    0.1220    7.6780 c3        1 13R     -0.159000
     18 C18         4.6140    0.1670    8.5050 c3        1 13R     -0.210000
     19 O19        -4.6010   -2.5610   -9.4430 o         1 13R     -0.587500
     20 O20        -4.9280   -0.4340   -9.7970 o         1 13R     -0.587500
     21 O21         0.6240    1.6560    3.6120 os        1 13R     -0.146000
     22 O22         1.1310    2.9440    3.1200 oh        1 13R     -0.196000
     23 H21        -2.7500   -0.1600   -8.5750 ha        1 13R      0.058000
     24 H22        -2.4300   -1.7170   -8.4190 ha        1 13R      0.058000
     25 H31        -4.3770   -0.3930   -6.8290 hc        1 13R      0.083500
     26 H32        -3.8510   -1.8840   -6.6050 hc        1 13R      0.083500
     27 H41        -1.6610   -0.9330   -6.2110 hc        1 13R      0.066000
     28 H42        -2.3710    0.4970   -6.1690 hc        1 13R      0.066000
     29 H51        -3.6700   -0.1840   -4.3440 hc        1 13R      0.077000
     30 H52        -3.0130   -1.6390   -4.4040 hc        1 13R      0.077000
     31 H61        -1.5910    0.7490   -3.8020 hc        1 13R      0.074500
     32 H62        -0.9060   -0.6900   -3.9070 hc        1 13R      0.074500
     33 H71        -2.8840    0.0080   -1.9860 hc        1 13R      0.080500
     34 H72        -2.2160   -1.4390   -2.0960 hc        1 13R      0.080500
     35 H81        -0.1070   -0.4730   -1.6100 hc        1 13R      0.092000
     36 H82        -0.8170    0.9460   -1.4320 hc        1 13R      0.092000
     37 H91        -2.0910   -0.7840    0.3300 ha        1 13R      0.125000
     38 H101       -0.5530   -0.2870    1.9990 ha        1 13R      0.119000
     39 H111        1.1820    0.7700   -0.2200 ha        1 13R      0.123500
     40 H121        2.6770    1.3590    1.4580 ha        1 13R      0.123500
     41 H131        1.0510   -0.2150    3.2050 h4        1 13R      0.125000
     42 H141        3.1720    1.5360    3.9240 hc        1 13R      0.097500
     43 H142        3.3780   -0.0150    3.5980 hc        1 13R      0.097500
     44 H151        2.0000   -0.5760    5.4270 hc        1 13R      0.085000
     45 H152        1.8130    0.9760    5.7570 hc        1 13R      0.085000
     46 H161        4.1820    1.1220    6.0850 hc        1 13R      0.079000
     47 H162        4.2560   -0.4660    5.9280 hc        1 13R      0.079000
     48 H171        2.9000   -0.7370    7.8140 hc        1 13R      0.077500
     49 H172        2.7520    0.8480    7.9530 hc        1 13R      0.077500
     50 H181        4.3820    0.1710    9.4570 hc        1 13R      0.070667
     51 H182        5.1620   -0.6200    8.3060 hc        1 13R      0.070667
     52 H183        5.1170    0.9800    8.2880 hc        1 13R      0.070667
     53 H221        0.5950    3.5980    3.3960 ho        1 13R      0.189000
@<TRIPOS>BOND
     1    1   19 1   
     2    1   20 1   
     3    2    3 1   
     4    2   23 1   
     5    2   24 1   
     6    3    4 1   
     7    3   25 1   
     8    3   26 1   
     9    4    5 1   
    10    4   27 1   
    11    4   28 1   
    12    5    6 1   
    13    5   29 1   
    14    5   30 1   
    15    6    7 1   
    16    6   31 1   
    17    6   32 1   
    18    7    8 1   
    19    7   33 1   
    20    7   34 1   
    21    8    9 1   
    22    8   35 1   
    23    8   36 1   
    24    9   10 1   
    25    9   37 1   
    26   10   38 1   
    27   11   12 1   
    28   11   39 1   
    29   12   40 1   
    30   13   14 1   
    31   13   21 1   
    32   13   41 1   
    33   14   15 1   
    34   14   42 1   
    35   14   43 1   
    36   15   16 1   
    37   15   44 1   
    38   15   45 1   
    39   16   17 1   
    40   16   46 1   
    41   16   47 1   
    42   17   18 1   
    43   17   48 1   
    44   17   49 1   
    45   18   50 1   
    46   18   51 1   
    47   18   52 1   
    48   21   22 1   
    49   22   53 1   
@<TRIPOS>SUBSTRUCTURE
     1 13R         1 TEMP              0 ****  ****    0 ROOT
