@<TRIPOS>MOLECULE
13R
   53    52     1     0     0
SMALL
bcc


@<TRIPOS>ATOM
      1 C1         -0.3260    1.1120   -0.0940 c         1 13R      0.907600
      2 C2          1.2120    1.0920   -0.0390 c3        1 13R     -0.194400
      3 C3          1.7090    0.2870    1.1370 c3        1 13R     -0.065400
      4 C4          3.2090    0.4050    1.3080 c3        1 13R     -0.078400
      5 C5          3.7010   -0.4220    2.4770 c3        1 13R     -0.078400
      6 C6          5.2000   -0.3060    2.6460 c3        1 13R     -0.079400
      7 C7          5.6920   -1.1410    3.8080 c3        1 13R     -0.078400
      8 C8          7.1960   -1.0330    3.9630 c3        1 13R     -0.061200
      9 C9          7.7070   -1.8550    5.0850 c2        1 13R     -0.124200
     10 C10         9.0040   -2.0560    5.3610 ce        1 13R     -0.178000
     11 C11        10.0990   -1.4860    4.6040 ce        1 13R     -0.080000
     12 C12        11.3730   -1.8950    4.6750 c2        1 13R     -0.193200
     13 C13        11.8470   -3.0360    5.5080 c3        1 13R      0.139300
     14 C14        13.2760   -3.4530    5.1810 c3        1 13R     -0.100400
     15 C15        13.3580   -4.1310    3.8320 c3        1 13R     -0.078400
     16 C16        14.7820   -4.5220    3.5010 c3        1 13R     -0.078400
     17 C17        14.8650   -5.2050    2.1520 c3        1 13R     -0.081400
     18 C18        16.2810   -5.5960    1.8160 c3        1 13R     -0.092100
     19 O19        -0.9650    1.3450    0.9730 o         1 13R     -0.852800
     20 O20        -0.8770    0.9110   -1.2140 o         1 13R     -0.852800
     21 O21        11.7980   -2.5780    6.8980 os        1 13R     -0.212800
     22 O22        11.7210   -3.5660    7.7210 oh        1 13R     -0.399000
     23 H21         1.5650    2.1510    0.0460 hc        1 13R      0.018700
     24 H22         1.6120    0.6720   -0.9960 hc        1 13R      0.018700
     25 H31         1.4330   -0.7900    0.9950 hc        1 13R      0.044200
     26 H32         1.1840    0.6430    2.0630 hc        1 13R      0.044200
     27 H41         3.7230    0.0710    0.3690 hc        1 13R      0.025700
     28 H42         3.4850    1.4810    1.4690 hc        1 13R      0.025700
     29 H51         3.4220   -1.4970    2.3170 hc        1 13R      0.037700
     30 H52         3.1880   -0.0850    3.4160 hc        1 13R      0.037700
     31 H61         5.7110   -0.6360    1.7030 hc        1 13R      0.034700
     32 H62         5.4770    0.7690    2.8120 hc        1 13R      0.034700
     33 H71         5.1900   -0.8040    4.7530 hc        1 13R      0.041200
     34 H72         5.4070   -2.2140    3.6470 hc        1 13R      0.041200
     35 H81         7.6910   -1.3470    3.0040 hc        1 13R      0.050700
     36 H82         7.4750    0.0430    4.1360 hc        1 13R      0.050700
     37 H91         6.9360   -2.3230    5.7220 ha        1 13R      0.125000
     38 H101        9.2980   -2.6810    6.2240 ha        1 13R      0.137000
     39 H111        9.8340   -0.6510    3.9290 ha        1 13R      0.125000
     40 H121       12.1550   -1.3920    4.0850 ha        1 13R      0.126000
     41 H131       11.1580   -3.9210    5.4110 h1        1 13R      0.070700
     42 H141       13.6360   -4.1540    5.9800 hc        1 13R      0.044200
     43 H142       13.9440   -2.5530    5.2020 hc        1 13R      0.044200
     44 H151       12.9630   -3.4390    3.0410 hc        1 13R      0.046200
     45 H152       12.7060   -5.0440    3.8280 hc        1 13R      0.046200
     46 H161       15.4340   -3.6090    3.5000 hc        1 13R      0.037700
     47 H162       15.1780   -5.2100    4.2950 hc        1 13R      0.037700
     48 H171       14.2120   -6.1170    2.1540 hc        1 13R      0.040700
     49 H172       14.4660   -4.5160    1.3610 hc        1 13R      0.040700
     50 H181       16.9420   -4.6960    1.7850 hc        1 13R      0.031700
     51 H182       16.3190   -6.0960    0.8190 hc        1 13R      0.031700
     52 H183       16.6870   -6.3010    2.5810 hc        1 13R      0.031700
     53 H221       12.6300   -3.7610    8.0430 ho        1 13R      0.389000
@<TRIPOS>BOND
     1    1    2 1   
     2    1   19 1   
     3    1   20 1   
     4    2    3 1   
     5    2   23 1   
     6    2   24 1   
     7    3    4 1   
     8    3   25 1   
     9    3   26 1   
    10    4    5 1   
    11    4   27 1   
    12    4   28 1   
    13    5    6 1   
    14    5   29 1   
    15    5   30 1   
    16    6    7 1   
    17    6   31 1   
    18    6   32 1   
    19    7    8 1   
    20    7   33 1   
    21    7   34 1   
    22    8    9 1   
    23    8   35 1   
    24    8   36 1   
    25    9   10 2   
    26    9   37 1   
    27   10   11 1   
    28   10   38 1   
    29   11   12 2   
    30   11   39 1   
    31   12   13 1   
    32   12   40 1   
    33   13   14 1   
    34   13   21 1   
    35   13   41 1   
    36   14   15 1   
    37   14   42 1   
    38   14   43 1   
    39   15   16 1   
    40   15   44 1   
    41   15   45 1   
    42   16   17 1   
    43   16   46 1   
    44   16   47 1   
    45   17   18 1   
    46   17   48 1   
    47   17   49 1   
    48   18   50 1   
    49   18   51 1   
    50   18   52 1   
    51   21   22 1   
    52   22   53 1   
@<TRIPOS>SUBSTRUCTURE
     1 13R         1 TEMP              0 ****  ****    0 ROOT
