@<TRIPOS>MOLECULE
13S
   53    52     1     0     0
SMALL
bcc


@<TRIPOS>ATOM
      1 C1          0.4980    3.0890    1.0360 c         1 13S      0.907600
      2 C2          1.4820    1.9530    0.7040 c3        1 13S     -0.194400
      3 C3          2.2780    1.5450    1.9190 c3        1 13S     -0.065400
      4 C4          3.3800    0.5660    1.5710 c3        1 13S     -0.078400
      5 C5          4.1620    0.1530    2.7990 c3        1 13S     -0.079400
      6 C6          5.2720   -0.8160    2.4500 c3        1 13S     -0.079400
      7 C7          6.0520   -1.2260    3.6800 c3        1 13S     -0.078400
      8 C8          7.1630   -2.1940    3.3260 c3        1 13S     -0.061200
      9 C9          7.9450   -2.6120    4.5130 c2        1 13S     -0.118200
     10 C10         8.9880   -3.4540    4.4930 ce        1 13S     -0.179000
     11 C11         9.5070   -4.0860    3.2990 ce        1 13S     -0.100000
     12 C12        10.5510   -4.9250    3.2560 c2        1 13S     -0.215200
     13 C13        11.3630   -5.3560    4.4280 c3        1 13S      0.134300
     14 C14        12.4520   -4.3570    4.8010 c3        1 13S     -0.069400
     15 C15        13.4020   -4.0730    3.6590 c3        1 13S     -0.079400
     16 C16        14.4590   -3.0680    4.0660 c3        1 13S     -0.078400
     17 C17        15.4120   -2.7810    2.9250 c3        1 13S     -0.079400
     18 C18        16.4670   -1.7820    3.3240 c3        1 13S     -0.092100
     19 O19         0.9170    4.0710    1.7150 o         1 13S     -0.852800
     20 O20        -0.6830    2.9910    0.5940 o         1 13S     -0.852800
     21 O21        12.0630   -6.5980    4.1020 os        1 13S     -0.217800
     22 O22        11.2960   -7.6260    4.2120 oh        1 13S     -0.394000
     23 H21         0.9150    1.0780    0.2970 hc        1 13S      0.018700
     24 H22         2.1700    2.3210   -0.0990 hc        1 13S      0.018700
     25 H31         1.5920    1.0820    2.6760 hc        1 13S      0.044200
     26 H32         2.7140    2.4670    2.3890 hc        1 13S      0.044200
     27 H41         2.9380   -0.3430    1.0840 hc        1 13S      0.026700
     28 H42         4.0750    1.0340    0.8250 hc        1 13S      0.026700
     29 H51         4.5970    1.0640    3.2890 hc        1 13S      0.037700
     30 H52         3.4690   -0.3220    3.5430 hc        1 13S      0.037700
     31 H61         4.8350   -1.7260    1.9600 hc        1 13S      0.035200
     32 H62         5.9640   -0.3400    1.7070 hc        1 13S      0.035200
     33 H71         6.4870   -0.3160    4.1700 hc        1 13S      0.041200
     34 H72         5.3600   -1.7030    4.4230 hc        1 13S      0.041200
     35 H81         6.7220   -3.1010    2.8290 hc        1 13S      0.052700
     36 H82         7.8490   -1.7140    2.5750 hc        1 13S      0.052700
     37 H91         7.6180   -2.1770    5.4740 ha        1 13S      0.125000
     38 H101        9.5070   -3.6980    5.4360 ha        1 13S      0.118000
     39 H111        8.9790   -3.8360    2.3590 ha        1 13S      0.127000
     40 H121       10.8790   -5.3550    2.2940 ha        1 13S      0.127000
     41 H131       10.7040   -5.5580    5.3190 h1        1 13S      0.068700
     42 H141       11.9470   -3.4100    5.1270 hc        1 13S      0.053700
     43 H142       13.0260   -4.7660    5.6740 hc        1 13S      0.053700
     44 H151       12.8250   -3.6810    2.7800 hc        1 13S      0.048700
     45 H152       13.8910   -5.0300    3.3370 hc        1 13S      0.048700
     46 H161       15.0340   -3.4620    4.9460 hc        1 13S      0.038700
     47 H162       13.9660   -2.1140    4.3930 hc        1 13S      0.038700
     48 H171       15.9010   -3.7360    2.5980 hc        1 13S      0.039200
     49 H172       14.8340   -2.3880    2.0470 hc        1 13S      0.039200
     50 H181       15.9980   -0.8150    3.6300 hc        1 13S      0.031367
     51 H182       17.0690   -2.1660    4.1830 hc        1 13S      0.031367
     52 H183       17.1580   -1.5840    2.4700 hc        1 13S      0.031367
     53 H221       10.8310   -7.7540    3.3530 ho        1 13S      0.392000
@<TRIPOS>BOND
     1    1    2 1   
     2    1   19 1   
     3    1   20 1   
     4    2    3 1   
     5    2   23 1   
     6    2   24 1   
     7    3    4 1   
     8    3   25 1   
     9    3   26 1   
    10    4    5 1   
    11    4   27 1   
    12    4   28 1   
    13    5    6 1   
    14    5   29 1   
    15    5   30 1   
    16    6    7 1   
    17    6   31 1   
    18    6   32 1   
    19    7    8 1   
    20    7   33 1   
    21    7   34 1   
    22    8    9 1   
    23    8   35 1   
    24    8   36 1   
    25    9   10 2   
    26    9   37 1   
    27   10   11 1   
    28   10   38 1   
    29   11   12 2   
    30   11   39 1   
    31   12   13 1   
    32   12   40 1   
    33   13   14 1   
    34   13   21 1   
    35   13   41 1   
    36   14   15 1   
    37   14   42 1   
    38   14   43 1   
    39   15   16 1   
    40   15   44 1   
    41   15   45 1   
    42   16   17 1   
    43   16   46 1   
    44   16   47 1   
    45   17   18 1   
    46   17   48 1   
    47   17   49 1   
    48   18   50 1   
    49   18   51 1   
    50   18   52 1   
    51   21   22 1   
    52   22   53 1   
@<TRIPOS>SUBSTRUCTURE
     1 13S         1 TEMP              0 ****  ****    0 ROOT
