@<TRIPOS>MOLECULE
13S
   53    52     1     0     0
SMALL
bcc


@<TRIPOS>ATOM
      1 C1          0.5030    3.2320    1.3770 c         1 13S      0.907600
      2 C2          1.5340    2.1810    0.9280 c3        1 13S     -0.194400
      3 C3          2.2690    1.5950    2.1080 c3        1 13S     -0.065400
      4 C4          3.4150    0.7040    1.6750 c3        1 13S     -0.078400
      5 C5          4.1350    0.1100    2.8670 c3        1 13S     -0.079400
      6 C6          5.2880   -0.7710    2.4350 c3        1 13S     -0.079400
      7 C7          6.0050   -1.3630    3.6290 c3        1 13S     -0.078400
      8 C8          7.1600   -2.2430    3.1930 c3        1 13S     -0.061200
      9 C9          7.8810   -2.8350    4.3430 c2        1 13S     -0.118200
     10 C10         8.9450   -3.6470    4.2510 ce        1 13S     -0.179000
     11 C11         9.5480   -4.0690    3.0060 ce        1 13S     -0.100000
     12 C12        10.6110   -4.8760    2.8920 c2        1 13S     -0.215200
     13 C13        11.3610   -5.4830    4.0280 c3        1 13S      0.134300
     14 C14        12.4030   -4.5450    4.6260 c3        1 13S     -0.069400
     15 C15        13.4150   -4.0680    3.6070 c3        1 13S     -0.079400
     16 C16        14.4220   -3.1300    4.2370 c3        1 13S     -0.078400
     17 C17        15.4360   -2.6510    3.2200 c3        1 13S     -0.079400
     18 C18        16.4430   -1.7170    3.8410 c3        1 13S     -0.092100
     19 O19         0.8570    4.0990    2.2280 o         1 13S     -0.852800
     20 O20        -0.6480    3.1870    0.8550 o         1 13S     -0.852800
     21 O21        12.1070   -6.6470    3.5490 os        1 13S     -0.217800
     22 O22        11.3570   -7.6880    3.4430 oh        1 13S     -0.394000
     23 H21         2.2570    2.6850    0.2380 hc        1 13S      0.018700
     24 H22         1.0150    1.3750    0.3520 hc        1 13S      0.018700
     25 H31         1.5530    1.0040    2.7380 hc        1 13S      0.044200
     26 H32         2.6530    2.4360    2.7450 hc        1 13S      0.044200
     27 H41         3.0250   -0.1210    1.0220 hc        1 13S      0.026700
     28 H42         4.1390    1.2980    1.0580 hc        1 13S      0.026700
     29 H51         3.4120   -0.4900    3.4800 hc        1 13S      0.037700
     30 H52         4.5160    0.9360    3.5220 hc        1 13S      0.037700
     31 H61         4.9040   -1.5960    1.7790 hc        1 13S      0.035200
     32 H62         6.0100   -0.1700    1.8220 hc        1 13S      0.035200
     33 H71         6.3870   -0.5370    4.2850 hc        1 13S      0.041200
     34 H72         5.2830   -1.9660    4.2410 hc        1 13S      0.041200
     35 H81         7.8760   -1.6350    2.5730 hc        1 13S      0.052700
     36 H82         6.7720   -3.0630    2.5290 hc        1 13S      0.052700
     37 H91         7.4870   -2.5670    5.3390 ha        1 13S      0.125000
     38 H101        9.4140   -4.0330    5.1730 ha        1 13S      0.118000
     39 H111        9.0720   -3.6750    2.0880 ha        1 13S      0.127000
     40 H121       11.0060   -5.1390    1.8970 ha        1 13S      0.127000
     41 H131       10.6550   -5.8350    4.8310 h1        1 13S      0.068700
     42 H141       11.8590   -3.6700    5.0680 hc        1 13S      0.053700
     43 H142       12.9330   -5.0840    5.4550 hc        1 13S      0.053700
     44 H151       12.8830   -3.5450    2.7680 hc        1 13S      0.048700
     45 H152       13.9430   -4.9540    3.1650 hc        1 13S      0.048700
     46 H161       13.8900   -2.2480    4.6810 hc        1 13S      0.038700
     47 H162       14.9510   -3.6550    5.0750 hc        1 13S      0.038700
     48 H171       14.9050   -2.1270    2.3810 hc        1 13S      0.039200
     49 H172       15.9650   -3.5340    2.7750 hc        1 13S      0.039200
     50 H181       15.9360   -0.8180    4.2680 hc        1 13S      0.031367
     51 H182       17.1800   -1.3760    3.0750 hc        1 13S      0.031367
     52 H183       17.0000   -2.2280    4.6630 hc        1 13S      0.031367
     53 H221       10.9480   -7.6790    2.5470 ho        1 13S      0.392000
@<TRIPOS>BOND
     1    1    2 1   
     2    1   19 1   
     3    1   20 1   
     4    2    3 1   
     5    2   23 1   
     6    2   24 1   
     7    3    4 1   
     8    3   25 1   
     9    3   26 1   
    10    4    5 1   
    11    4   27 1   
    12    4   28 1   
    13    5    6 1   
    14    5   29 1   
    15    5   30 1   
    16    6    7 1   
    17    6   31 1   
    18    6   32 1   
    19    7    8 1   
    20    7   33 1   
    21    7   34 1   
    22    8    9 1   
    23    8   35 1   
    24    8   36 1   
    25    9   10 2   
    26    9   37 1   
    27   10   11 1   
    28   10   38 1   
    29   11   12 2   
    30   11   39 1   
    31   12   13 1   
    32   12   40 1   
    33   13   14 1   
    34   13   21 1   
    35   13   41 1   
    36   14   15 1   
    37   14   42 1   
    38   14   43 1   
    39   15   16 1   
    40   15   44 1   
    41   15   45 1   
    42   16   17 1   
    43   16   46 1   
    44   16   47 1   
    45   17   18 1   
    46   17   48 1   
    47   17   49 1   
    48   18   50 1   
    49   18   51 1   
    50   18   52 1   
    51   21   22 1   
    52   22   53 1   
@<TRIPOS>SUBSTRUCTURE
     1 13S         1 TEMP              0 ****  ****    0 ROOT
