@<TRIPOS>MOLECULE
13S
   53    52     1     0     0
SMALL
bcc


@<TRIPOS>ATOM
      1 C1          0.7210    1.2660   -8.9580 c         1 13S      0.907600
      2 C2          1.1260    0.9260   -7.5120 c3        1 13S     -0.194400
      3 C3         -0.0850    0.6670   -6.6510 c3        1 13S     -0.065400
      4 C4          0.2810    0.5140   -5.1890 c3        1 13S     -0.078400
      5 C5         -0.9420    0.2410   -4.3400 c3        1 13S     -0.078400
      6 C6         -0.5810    0.0910   -2.8770 c3        1 13S     -0.079400
      7 C7         -1.8080   -0.1810   -2.0340 c3        1 13S     -0.078400
      8 C8         -1.4480   -0.3370   -0.5700 c3        1 13S     -0.060200
      9 C9         -2.6360   -0.6090    0.2710 c2        1 13S     -0.123200
     10 C10        -2.6110   -0.8460    1.5910 ce        1 13S     -0.173000
     11 C11        -1.4120   -0.8730    2.4000 ce        1 13S     -0.107000
     12 C12        -1.4250   -1.1190    3.7170 c2        1 13S     -0.213200
     13 C13        -0.2160   -1.1650    4.5870 c3        1 13S      0.135300
     14 C14        -0.1580    0.0410    5.5190 c3        1 13S     -0.073400
     15 C15         0.8110   -0.1900    6.6580 c3        1 13S     -0.082400
     16 C16         0.9180    1.0340    7.5410 c3        1 13S     -0.078400
     17 C17         1.8770    0.8020    8.6890 c3        1 13S     -0.080400
     18 C18         1.9910    2.0190    9.5700 c3        1 13S     -0.092100
     19 O19        -0.2120    2.1010   -9.1430 o         1 13S     -0.853300
     20 O20         1.3570    0.7030   -9.8950 o         1 13S     -0.853300
     21 O21         1.0180   -1.1120    3.8070 os        1 13S     -0.212800
     22 O22         1.3650   -2.2730    3.3740 oh        1 13S     -0.397000
     23 H21         1.7060    1.7940   -7.1070 hc        1 13S      0.018700
     24 H22         1.8000    0.0340   -7.5160 hc        1 13S      0.018700
     25 H31        -0.6040   -0.2620   -7.0060 hc        1 13S      0.044200
     26 H32        -0.8060    1.5180   -6.7810 hc        1 13S      0.044200
     27 H41         0.7870    1.4480   -4.8290 hc        1 13S      0.026700
     28 H42         1.0160   -0.3260   -5.0710 hc        1 13S      0.026700
     29 H51        -1.4470   -0.6930   -4.7000 hc        1 13S      0.037200
     30 H52        -1.6750    1.0810   -4.4620 hc        1 13S      0.037200
     31 H61        -0.0760    1.0260   -2.5170 hc        1 13S      0.035700
     32 H62         0.1530   -0.7480   -2.7550 hc        1 13S      0.035700
     33 H71        -2.3150   -1.1130   -2.3990 hc        1 13S      0.040700
     34 H72        -2.5390    0.6620   -2.1540 hc        1 13S      0.040700
     35 H81        -0.9400    0.6000   -0.2090 hc        1 13S      0.051700
     36 H82        -0.7050   -1.1730   -0.4580 hc        1 13S      0.051700
     37 H91        -3.6040   -0.6080   -0.2600 ha        1 13S      0.125000
     38 H101       -3.5570   -1.0370    2.1280 ha        1 13S      0.118000
     39 H111       -0.4590   -0.6700    1.8780 ha        1 13S      0.130000
     40 H121       -2.3680   -1.3070    4.2560 ha        1 13S      0.125000
     41 H131       -0.2140   -2.1270    5.1730 h1        1 13S      0.067700
     42 H141       -1.1870    0.2310    5.9200 hc        1 13S      0.055700
     43 H142        0.1550    0.9430    4.9310 hc        1 13S      0.055700
     44 H151        1.8200   -0.4460    6.2360 hc        1 13S      0.047700
     45 H152        0.4750   -1.0680    7.2700 hc        1 13S      0.047700
     46 H161       -0.0950    1.2980    7.9450 hc        1 13S      0.039200
     47 H162        1.2680    1.9090    6.9310 hc        1 13S      0.039200
     48 H171        2.8880    0.5350    8.2820 hc        1 13S      0.038700
     49 H172        1.5260   -0.0730    9.2980 hc        1 13S      0.038700
     50 H181        2.7020    1.8260   10.4090 hc        1 13S      0.031367
     51 H182        2.3640    2.8950    8.9850 hc        1 13S      0.031367
     52 H183        0.9970    2.2870   10.0040 hc        1 13S      0.031367
     53 H221        0.9740   -2.3930    2.4780 ho        1 13S      0.397000
@<TRIPOS>BOND
     1    1    2 1   
     2    1   19 1   
     3    1   20 1   
     4    2    3 1   
     5    2   23 1   
     6    2   24 1   
     7    3    4 1   
     8    3   25 1   
     9    3   26 1   
    10    4    5 1   
    11    4   27 1   
    12    4   28 1   
    13    5    6 1   
    14    5   29 1   
    15    5   30 1   
    16    6    7 1   
    17    6   31 1   
    18    6   32 1   
    19    7    8 1   
    20    7   33 1   
    21    7   34 1   
    22    8    9 1   
    23    8   35 1   
    24    8   36 1   
    25    9   10 2   
    26    9   37 1   
    27   10   11 1   
    28   10   38 1   
    29   11   12 2   
    30   11   39 1   
    31   12   13 1   
    32   12   40 1   
    33   13   14 1   
    34   13   21 1   
    35   13   41 1   
    36   14   15 1   
    37   14   42 1   
    38   14   43 1   
    39   15   16 1   
    40   15   44 1   
    41   15   45 1   
    42   16   17 1   
    43   16   46 1   
    44   16   47 1   
    45   17   18 1   
    46   17   48 1   
    47   17   49 1   
    48   18   50 1   
    49   18   51 1   
    50   18   52 1   
    51   21   22 1   
    52   22   53 1   
@<TRIPOS>SUBSTRUCTURE
     1 13S         1 TEMP              0 ****  ****    0 ROOT
