@<TRIPOS>MOLECULE
13S
   53    49     1     0     0
SMALL
bcc


@<TRIPOS>ATOM
      1 C1         -8.5500   -1.5290   -5.3790 c1        1 13S      0.327000
      2 C2         -7.0820   -1.1610   -5.3230 c2        1 13S     -0.223000
      3 C3         -6.5730   -1.3300   -3.9090 c3        1 13S     -0.144000
      4 C4         -5.1240   -0.8940   -3.8390 c3        1 13S     -0.157000
      5 C5         -4.5820   -1.1650   -2.4520 c3        1 13S     -0.158000
      6 C6         -3.1610   -0.6510   -2.3560 c3        1 13S     -0.158000
      7 C7         -2.5610   -1.0720   -1.0310 c3        1 13S     -0.158000
      8 C8         -1.1660   -0.4980   -0.9030 c3        1 13S     -0.146000
      9 C9         -0.4590   -1.1440    0.2690 c2        1 13S     -0.110000
     10 C10         0.8010   -0.7790    0.5820 c1        1 13S     -0.192000
     11 C11         1.5080    0.2760   -0.2400 c1        1 13S     -0.154500
     12 C12         2.6600    0.8180    0.2060 c1        1 13S     -0.154500
     13 C13         3.2450    0.3700    1.5280 c2        1 13S      0.017000
     14 C14         3.9580    1.5320    2.1820 c3        1 13S     -0.153000
     15 C15         4.9060    1.0110    3.2400 c3        1 13S     -0.160000
     16 C16         5.4460    2.1700    4.0480 c3        1 13S     -0.157000
     17 C17         6.4990    1.6670    5.0100 c3        1 13S     -0.159000
     18 C18         6.9670    2.8080    5.8870 c3        1 13S     -0.210000
     19 O19        -9.4270   -0.6250   -5.3740 o         1 13S     -0.587500
     20 O20        -8.8930   -2.7390   -5.4610 o         1 13S     -0.587500
     21 O21         4.1580   -0.6760    1.3070 os        1 13S     -0.142000
     22 O22         3.3950   -1.9310    1.3160 oh        1 13S     -0.197000
     23 H21        -6.9690   -0.2310   -5.6010 ha        1 13S      0.058000
     24 H22        -6.5770   -1.7440   -5.9240 ha        1 13S      0.058000
     25 H31        -7.1080   -0.7810   -3.3020 hc        1 13S      0.083500
     26 H32        -6.6440   -2.2700   -3.6470 hc        1 13S      0.083500
     27 H41        -5.0620    0.0640   -4.0320 hc        1 13S      0.066000
     28 H42        -4.6000   -1.3940   -4.4970 hc        1 13S      0.066000
     29 H51        -5.1390   -0.7090   -1.7900 hc        1 13S      0.077000
     30 H52        -4.5930   -2.1270   -2.2800 hc        1 13S      0.077000
     31 H61        -2.6290   -1.0230   -3.0870 hc        1 13S      0.074500
     32 H62        -3.1620    0.3250   -2.4170 hc        1 13S      0.074500
     33 H71        -2.5170   -2.0480   -0.9880 hc        1 13S      0.080500
     34 H72        -3.1180   -0.7380   -0.3000 hc        1 13S      0.080500
     35 H81        -0.6640   -0.6750   -1.7240 hc        1 13S      0.092500
     36 H82        -1.2220    0.4680   -0.7580 hc        1 13S      0.092500
     37 H91        -0.9160   -1.8250    0.7990 ha        1 13S      0.126000
     38 H101        1.2560   -1.1960    1.3370 ha        1 13S      0.127000
     39 H111        1.1310    0.5650   -1.0930 ha        1 13S      0.127000
     40 H121        3.1160    1.4990   -0.3240 ha        1 13S      0.127000
     41 H131        2.5270    0.0580    2.1120 h4        1 13S      0.109000
     42 H141        4.4630    2.0260    1.5070 hc        1 13S      0.092000
     43 H142        3.3010    2.1260    2.5970 hc        1 13S      0.092000
     44 H151        5.6470    0.5390    2.8100 hc        1 13S      0.088500
     45 H152        4.4280    0.3960    3.8320 hc        1 13S      0.088500
     46 H161        4.7170    2.5860    4.5500 hc        1 13S      0.077500
     47 H162        5.8440    2.8300    3.4450 hc        1 13S      0.077500
     48 H171        7.2570    1.3100    4.5070 hc        1 13S      0.079000
     49 H172        6.1180    0.9610    5.5700 hc        1 13S      0.079000
     50 H181        7.3540    3.5130    5.3270 hc        1 13S      0.070000
     51 H182        7.6460    2.4810    6.5150 hc        1 13S      0.070000
     52 H183        6.2060    3.1690    6.3880 hc        1 13S      0.070000
     53 H221        3.9440   -2.6140    1.1590 ho        1 13S      0.197000
@<TRIPOS>BOND
     1    1   19 1   
     2    1   20 1   
     3    2    3 1   
     4    2   23 1   
     5    2   24 1   
     6    3    4 1   
     7    3   25 1   
     8    3   26 1   
     9    4    5 1   
    10    4   27 1   
    11    4   28 1   
    12    5    6 1   
    13    5   29 1   
    14    5   30 1   
    15    6    7 1   
    16    6   31 1   
    17    6   32 1   
    18    7    8 1   
    19    7   33 1   
    20    7   34 1   
    21    8    9 1   
    22    8   35 1   
    23    8   36 1   
    24    9   10 1   
    25    9   37 1   
    26   10   38 1   
    27   11   12 1   
    28   11   39 1   
    29   12   40 1   
    30   13   14 1   
    31   13   21 1   
    32   13   41 1   
    33   14   15 1   
    34   14   42 1   
    35   14   43 1   
    36   15   16 1   
    37   15   44 1   
    38   15   45 1   
    39   16   17 1   
    40   16   46 1   
    41   16   47 1   
    42   17   18 1   
    43   17   48 1   
    44   17   49 1   
    45   18   50 1   
    46   18   51 1   
    47   18   52 1   
    48   21   22 1   
    49   22   53 1   
@<TRIPOS>SUBSTRUCTURE
     1 13S         1 TEMP              0 ****  ****    0 ROOT
