@<TRIPOS>MOLECULE
13U
   65    61     1     0     0
SMALL
bcc


@<TRIPOS>ATOM
      1 C14        -1.2800   -0.3490    0.0930 c1        1 13U      0.266000
      2 O32        -0.0680   -0.3980    0.1160 o         1 13U     -0.395000
      3 C5         -2.0820   -0.2950    1.4260 c3        1 13U     -0.074000
      4 N21        -1.1910    0.0890    2.5110 n3        1 13U     -0.291000
      5 C49        -1.7270   -0.3680    3.7590 c3        1 13U     -0.021000
      6 C48        -1.9580    0.8190    4.6670 c3        1 13U     -0.170500
      7 C47        -2.9880    0.4930    5.7310 c3        1 13U     -0.149500
      8 C46        -2.3180    0.2270    7.0680 c3        1 13U     -0.154500
      9 C45        -2.3560   -1.2560    7.4070 c3        1 13U     -0.154000
     10 C44        -1.1880   -1.9860    6.7710 c3        1 13U     -0.154500
     11 C43        -1.4810   -2.3120    5.3190 c3        1 13U     -0.149500
     12 C42        -0.7540   -1.3530    4.3910 c3        1 13U     -0.170500
     13 N1         -1.9920   -0.4030   -1.1920 n2        1 13U     -0.318000
     14 C1         -1.3430   -0.5250   -2.6290 c3        1 13U      0.005000
     15 C7         -0.6470    0.7820   -2.9920 c1        1 13U      0.294000
     16 O22        -1.1480    1.8380   -2.6840 o         1 13U     -0.384000
     17 C2         -2.4110   -0.8120   -3.3830 c3        1 13U     -0.167000
     18 C3         -3.6800   -0.1820   -2.6530 c3        1 13U     -0.169000
     19 C4         -3.5090   -0.3560   -1.4010 c3        1 13U     -0.029000
     20 N23         0.6260    0.7580   -3.7380 n2        1 13U     -0.361000
     21 C24         1.6450    1.7770   -3.4800 c3        1 13U      0.007000
     22 C25         2.9310    1.4410   -4.2850 c2        1 13U     -0.102000
     23 C30         3.5490    2.4240   -5.0380 c2        1 13U     -0.113000
     24 C29         4.7710    2.1660   -5.6510 c1        1 13U     -0.118000
     25 C28         5.3700    0.9240   -5.5090 c1        1 13U     -0.101000
     26 C21         6.6920    0.6310   -6.2090 c1        1 13U      0.118000
     27 N46         7.8270    0.8260   -5.5770 n1        1 13U     -0.306000
     28 N47         6.6970    0.1470   -7.5510 n3        1 13U     -0.334000
     29 C27         4.7520   -0.0610   -4.7550 c1        1 13U     -0.109000
     30 C26         3.5320    0.1960   -4.1420 c1        1 13U     -0.119000
     31 H5         -2.8030    0.3620    1.3460 h1        1 13U      0.113000
     32 H5A        -2.4600   -1.1690    1.6120 h1        1 13U      0.113000
     33 HN21       -1.1090    0.9910    2.5290 hn        1 13U      0.179000
     34 H49        -2.5740   -0.8160    3.5970 h1        1 13U      0.092000
     35 H48        -1.1110    1.0630    5.1010 hc        1 13U      0.086750
     36 H48A       -2.2780    1.5820    4.1290 hc        1 13U      0.086750
     37 H47        -3.6040    1.2480    5.8240 hc        1 13U      0.078000
     38 H47A       -3.4900   -0.3000    5.4600 hc        1 13U      0.078000
     39 H46        -1.3890    0.5240    7.0270 hc        1 13U      0.078250
     40 H46A       -2.7890    0.7320    7.7720 hc        1 13U      0.078250
     41 H45        -3.1890   -1.6380    7.0800 hc        1 13U      0.077000
     42 H45A       -2.3120   -1.3650    8.3770 hc        1 13U      0.077000
     43 H44        -1.0220   -2.8180    7.2610 hc        1 13U      0.078250
     44 H44A       -0.3880   -1.4180    6.8190 hc        1 13U      0.078250
     45 H43        -1.1850   -3.2350    5.1270 hc        1 13U      0.078000
     46 H43A       -2.4480   -2.2440    5.1600 hc        1 13U      0.078000
     47 H42        -0.0790   -0.8560    4.9040 hc        1 13U      0.086750
     48 H42A       -0.3100   -1.8630    3.6860 hc        1 13U      0.086750
     49 H1         -0.6210   -1.1760   -2.7630 h1        1 13U      0.125000
     50 H2         -2.3080   -0.4170   -4.2740 hc        1 13U      0.115000
     51 H2A        -2.5170   -1.7850   -3.4580 hc        1 13U      0.115000
     52 H3         -3.7410    0.7770   -2.8530 hc        1 13U      0.097500
     53 H3A        -4.5000   -0.6410   -2.9480 hc        1 13U      0.097500
     54 H4         -3.9240   -1.2200   -1.1130 h1        1 13U      0.087500
     55 H4A        -3.8990    0.3950   -0.8960 h1        1 13U      0.087500
     56 HN23        0.7850    0.1000   -4.3450 hn        1 13U      0.250000
     57 H24         1.8540    1.7950   -2.5250 h1        1 13U      0.107000
     58 H24A        1.3070    2.6550   -3.7560 h1        1 13U      0.107000
     59 H30         3.1280    3.2990   -5.1390 ha        1 13U      0.160000
     60 H29         5.2060    2.8600   -6.1820 ha        1 13U      0.133000
     61 HN46        7.8240    1.1350   -4.7210 DU        1 13U      0.149000
     62 HN47        5.9100    0.0490   -8.0050 hn        1 13U      0.195500
     63 HN4A        7.4920   -0.0550   -7.9630 hn        1 13U      0.195500
     64 H27         5.1740   -0.9360   -4.6550 ha        1 13U      0.142000
     65 H26         3.0950   -0.5000   -3.6090 ha        1 13U      0.135000
@<TRIPOS>BOND
     1    1    2 1   
     2    1    3 1   
     3    3    4 1   
     4    3   31 1   
     5    3   32 1   
     6    4    5 1   
     7    4   33 1   
     8    5    6 1   
     9    5   12 1   
    10    5   34 1   
    11    6    7 1   
    12    6   35 1   
    13    6   36 1   
    14    7    8 1   
    15    7   37 1   
    16    7   38 1   
    17    8    9 1   
    18    8   39 1   
    19    8   40 1   
    20    9   10 1   
    21    9   41 1   
    22    9   42 1   
    23   10   11 1   
    24   10   43 1   
    25   10   44 1   
    26   11   12 1   
    27   11   45 1   
    28   11   46 1   
    29   12   47 1   
    30   12   48 1   
    31   13   14 1   
    32   13   19 1   
    33   14   15 1   
    34   14   17 1   
    35   14   49 1   
    36   15   16 1   
    37   17   18 1   
    38   17   50 1   
    39   17   51 1   
    40   18   19 1   
    41   18   52 1   
    42   18   53 1   
    43   19   54 1   
    44   19   55 1   
    45   20   21 1   
    46   20   56 1   
    47   21   22 1   
    48   21   57 1   
    49   21   58 1   
    50   22   23 1   
    51   22   30 1   
    52   23   24 1   
    53   23   59 1   
    54   24   60 1   
    55   25   29 1   
    56   26   27 1   
    57   26   28 1   
    58   28   62 1   
    59   28   63 1   
    60   29   64 1   
    61   30   65 1   
@<TRIPOS>SUBSTRUCTURE
     1 13U         1 TEMP              0 ****  ****    0 ROOT
