@<TRIPOS>MOLECULE
13U
   68    70     1     0     0
SMALL
bcc


@<TRIPOS>ATOM
      1 C14         0.2770   -0.3960    0.0810 c         1 13U      0.663100
      2 O32         1.4500   -0.8340    0.1660 o         1 13U     -0.667100
      3 C5         -0.5320   -0.0550    1.3370 c3        1 13U      0.035800
      4 N21         0.2230   -0.3110    2.5880 n4        1 13U     -0.766000
      5 C49        -0.6280   -0.0860    3.8420 c3        1 13U      0.139500
      6 C48         0.2780    0.1900    5.0500 c3        1 13U     -0.099400
      7 C47        -0.1220    1.4630    5.7720 c3        1 13U     -0.080400
      8 C46        -1.4160    1.3860    6.5540 c3        1 13U     -0.092400
      9 C45        -2.6660    1.3670    5.7000 c3        1 13U     -0.084400
     10 C44        -3.2900    0.0060    5.4630 c3        1 13U     -0.092400
     11 C43        -2.3610   -1.1800    5.3480 c3        1 13U     -0.080400
     12 C42        -1.5620   -1.2770    4.0630 c3        1 13U     -0.099400
     13 N1         -0.2980   -0.1840   -1.1450 n         1 13U     -0.445800
     14 C1          0.2600   -0.7430   -2.3650 c3        1 13U      0.053700
     15 C7          1.5320    0.0100   -2.8070 c         1 13U      0.521100
     16 O22         1.5870    1.0640   -3.4140 o         1 13U     -0.384100
     17 C2         -0.8230   -0.6130   -3.4670 c3        1 13U     -0.085400
     18 C3         -2.0140    0.0910   -2.8250 c3        1 13U     -0.093400
     19 C4         -1.6530    0.3270   -1.3530 c3        1 13U      0.075000
     20 N23         2.8370   -0.6590   -2.4340 n4        1 13U     -0.684800
     21 C24         4.0740    0.1270   -2.7530 c3        1 13U      0.159100
     22 C25         4.6500   -0.1520   -4.1060 ca        1 13U     -0.135300
     23 C30         5.6300   -1.1410   -4.2600 ca        1 13U     -0.089500
     24 C29         6.2560   -1.3230   -5.4940 ca        1 13U     -0.084000
     25 C28         5.9010   -0.5140   -6.5790 ca        1 13U     -0.210900
     26 C21         6.5290   -0.7420   -7.9060 ce        1 13U      0.564800
     27 N46         6.1870   -1.5010   -8.8710 n2        1 13U     -0.666100
     28 N47         7.7750    0.0760   -8.1080 n4        1 13U     -0.819600
     29 C27         4.9140    0.4680   -6.4350 ca        1 13U     -0.084000
     30 C26         4.2900    0.6460   -5.1990 ca        1 13U     -0.089500
     31 H5         -0.8340    1.0350    1.3080 hx        1 13U      0.142700
     32 H5A        -1.4730   -0.6850    1.3520 hx        1 13U      0.142700
     33 HN21        0.5700   -1.2790    2.5850 hn        1 13U      0.458800
     34 H49        -1.2480    0.8350    3.6190 hx        1 13U      0.114700
     35 H48         0.2330   -0.6810    5.7580 hc        1 13U      0.064450
     36 H48A        1.3560    0.2920    4.7460 hc        1 13U      0.064450
     37 H47        -0.1740    2.3120    5.0400 hc        1 13U      0.068950
     38 H47A        0.7060    1.7040    6.4980 hc        1 13U      0.068950
     39 H46        -1.4550    2.3010    7.2110 hc        1 13U      0.068200
     40 H46A       -1.3980    0.5060    7.2480 hc        1 13U      0.068200
     41 H45        -3.4470    2.0000    6.2110 hc        1 13U      0.045200
     42 H45A       -2.4660    1.8780    4.7210 hc        1 13U      0.045200
     43 H44        -3.9810   -0.2100    6.3260 hc        1 13U      0.068200
     44 H44A       -3.9330    0.0640    4.5440 hc        1 13U      0.068200
     45 H43        -2.9920   -2.1140    5.3990 hc        1 13U      0.068950
     46 H43A       -1.6730   -1.2190    6.2330 hc        1 13U      0.068950
     47 H42        -2.2810   -1.3520    3.2040 hc        1 13U      0.064450
     48 H42A       -0.9650   -2.2290    4.1040 hc        1 13U      0.064450
     49 H1          0.5220   -1.8310   -2.1960 h1        1 13U      0.098700
     50 H2         -0.4440   -0.0300   -4.3440 hc        1 13U      0.098200
     51 H2A        -1.1060   -1.6370   -3.8230 hc        1 13U      0.098200
     52 H3         -2.9390   -0.5360   -2.9050 hc        1 13U      0.103700
     53 H3A        -2.2230    1.0670   -3.3340 hc        1 13U      0.103700
     54 H4         -2.3730   -0.2120   -0.6750 h1        1 13U      0.080200
     55 H4A        -1.6700    1.4250   -1.1030 h1        1 13U      0.080200
     56 HN23        2.8790   -1.5680   -2.9100 hn        1 13U      0.478300
     57 H24         4.8380   -0.1290   -1.9580 hx        1 13U      0.126700
     58 H24A        3.8220    1.2260   -2.6640 hx        1 13U      0.126700
     59 H30         5.9340   -1.7700   -3.4060 ha        1 13U      0.171500
     60 H29         7.0240   -2.1090   -5.6010 ha        1 13U      0.175000
     61 HN46        5.3690   -2.0710   -8.7990 hn        1 13U      0.498400
     62 HN47        8.1970   -0.0960   -9.0360 hn        1 13U      0.480467
     63 HN4A        7.5360    1.0700   -8.0290 hn        1 13U      0.480467
     64 H27         4.6190    1.1020   -7.2880 ha        1 13U      0.175000
     65 H26         3.5190    1.4290   -5.0870 ha        1 13U      0.171500
     66 H212        1.0410    0.3110    2.6230 hn        1 13U      0.458800
     67 H232        2.8030   -0.8310   -1.4120 hn        1 13U      0.478300
     68 H473        8.4550   -0.1720   -7.3810 hn        1 13U      0.480467
@<TRIPOS>BOND
     1    1    2 2   
     2    1    3 1   
     3    1   13 1   
     4    3    4 1   
     5    3   31 1   
     6    3   32 1   
     7    4    5 1   
     8    4   33 1   
     9    4   66 1   
    10    5    6 1   
    11    5   12 1   
    12    5   34 1   
    13    6    7 1   
    14    6   35 1   
    15    6   36 1   
    16    7    8 1   
    17    7   37 1   
    18    7   38 1   
    19    8    9 1   
    20    8   39 1   
    21    8   40 1   
    22    9   10 1   
    23    9   41 1   
    24    9   42 1   
    25   10   11 1   
    26   10   43 1   
    27   10   44 1   
    28   11   12 1   
    29   11   45 1   
    30   11   46 1   
    31   12   47 1   
    32   12   48 1   
    33   13   14 1   
    34   13   19 1   
    35   14   15 1   
    36   14   17 1   
    37   14   49 1   
    38   15   16 2   
    39   15   20 1   
    40   17   18 1   
    41   17   50 1   
    42   17   51 1   
    43   18   19 1   
    44   18   52 1   
    45   18   53 1   
    46   19   54 1   
    47   19   55 1   
    48   20   21 1   
    49   20   56 1   
    50   20   67 1   
    51   21   22 1   
    52   21   57 1   
    53   21   58 1   
    54   22   23 ar  
    55   22   30 ar  
    56   23   24 ar  
    57   23   59 1   
    58   24   25 ar  
    59   24   60 1   
    60   25   26 1   
    61   25   29 ar  
    62   26   27 2   
    63   26   28 1   
    64   27   61 1   
    65   28   62 1   
    66   28   63 1   
    67   28   68 1   
    68   29   30 ar  
    69   29   64 1   
    70   30   65 1   
@<TRIPOS>SUBSTRUCTURE
     1 13U         1 TEMP              0 ****  ****    0 ROOT
