@<TRIPOS>MOLECULE
13U
   68    70     1     0     0
SMALL
bcc


@<TRIPOS>ATOM
      1 C14         0.2630   -0.3760    0.0690 c         1 13U      0.663100
      2 O32         1.4160   -0.8680    0.1430 o         1 13U     -0.667100
      3 C5         -0.5330   -0.0350    1.3330 c3        1 13U      0.035800
      4 N21         0.2060   -0.3630    2.5770 n4        1 13U     -0.766000
      5 C49        -0.6340   -0.1280    3.8370 c3        1 13U      0.139500
      6 C48         0.2830    0.0640    5.0530 c3        1 13U     -0.099900
      7 C47        -0.0480    1.3360    5.8110 c3        1 13U     -0.080400
      8 C46        -1.3470    1.3080    6.5900 c3        1 13U     -0.092400
      9 C45        -2.5940    1.3800    5.7350 c3        1 13U     -0.084400
     10 C44        -3.2900    0.0630    5.4590 c3        1 13U     -0.092400
     11 C43        -2.4270   -1.1680    5.3110 c3        1 13U     -0.080400
     12 C42        -1.6320   -1.2720    4.0240 c3        1 13U     -0.099900
     13 N1         -0.3000   -0.1040   -1.1510 n         1 13U     -0.445800
     14 C1          0.2370   -0.6530   -2.3860 c3        1 13U      0.053700
     15 C7          1.5420    0.0560   -2.8050 c         1 13U      0.521100
     16 O22         1.6440    1.1240   -3.3810 o         1 13U     -0.384100
     17 C2         -0.8370   -0.4440   -3.4850 c3        1 13U     -0.085400
     18 C3         -1.9980    0.2930   -2.8240 c3        1 13U     -0.093400
     19 C4         -1.6300    0.4710   -1.3450 c3        1 13U      0.075000
     20 N23         2.8150   -0.6790   -2.4500 n4        1 13U     -0.685800
     21 C24         4.0860    0.0610   -2.7440 c3        1 13U      0.159100
     22 C25         4.6530   -0.2040   -4.1040 ca        1 13U     -0.135300
     23 C30         5.5900   -1.2280   -4.2840 ca        1 13U     -0.089500
     24 C29         6.2120   -1.4020   -5.5220 ca        1 13U     -0.084000
     25 C28         5.8940   -0.5470   -6.5840 ca        1 13U     -0.210900
     26 C21         6.5160   -0.7630   -7.9160 ce        1 13U      0.564800
     27 N46         6.1430   -1.4760   -8.9040 n2        1 13U     -0.666100
     28 N47         7.7980    0.0040   -8.0910 n4        1 13U     -0.819600
     29 C27         4.9500    0.4720   -6.4130 ca        1 13U     -0.084000
     30 C26         4.3300    0.6410   -5.1730 ca        1 13U     -0.089500
     31 H5         -0.7830    1.0690    1.3360 hx        1 13U      0.142700
     32 H5A        -1.5030   -0.6200    1.3290 hx        1 13U      0.142700
     33 HN21        0.5030   -1.3470    2.5480 hn        1 13U      0.458800
     34 H49        -1.2030    0.8310    3.6390 hx        1 13U      0.114700
     35 H48         0.1900   -0.8230    5.7360 hc        1 13U      0.064450
     36 H48A        1.3660    0.1160    4.7520 hc        1 13U      0.064450
     37 H47        -0.0530    2.2070    5.1030 hc        1 13U      0.068950
     38 H47A        0.7900    1.5110    6.5430 hc        1 13U      0.068950
     39 H46        -1.3370    2.2040    7.2720 hc        1 13U      0.068200
     40 H46A       -1.3770    0.4080    7.2580 hc        1 13U      0.068200
     41 H45        -2.3640    1.9070    4.7700 hc        1 13U      0.045200
     42 H45A       -3.3400    2.0400    6.2630 hc        1 13U      0.045200
     43 H44        -3.9940   -0.1410    6.3160 hc        1 13U      0.068200
     44 H44A       -3.9280    0.1810    4.5420 hc        1 13U      0.068200
     45 H43        -3.1070   -2.0680    5.3350 hc        1 13U      0.068950
     46 H43A       -1.7430   -1.2700    6.1940 hc        1 13U      0.068950
     47 H42        -2.3520   -1.2840    3.1620 hc        1 13U      0.064450
     48 H42A       -1.0870   -2.2560    4.0370 hc        1 13U      0.064450
     49 H1          0.4500   -1.7550   -2.2470 h1        1 13U      0.098700
     50 H2         -0.4310    0.1460   -4.3440 hc        1 13U      0.098200
     51 H2A        -1.1640   -1.4440   -3.8700 hc        1 13U      0.098200
     52 H3         -2.1630    1.2910   -3.3050 hc        1 13U      0.103700
     53 H3A        -2.9490   -0.2910   -2.9230 hc        1 13U      0.103700
     54 H4         -2.3740   -0.0550   -0.6850 h1        1 13U      0.080200
     55 H4A        -1.6000    1.5610   -1.0640 h1        1 13U      0.080200
     56 HN23        2.7710   -0.8800   -1.4330 hn        1 13U      0.478300
     57 H24         3.8820    1.1670   -2.6230 hx        1 13U      0.126700
     58 H24A        4.8360   -0.2510   -1.9560 hx        1 13U      0.126700
     59 H30         5.8650   -1.8950   -3.4490 ha        1 13U      0.171500
     60 H29         6.9450   -2.2160   -5.6510 ha        1 13U      0.175000
     61 HN46        5.2990   -2.0100   -8.8510 hn        1 13U      0.498400
     62 HN47        7.6030    1.0050   -7.9820 hn        1 13U      0.480467
     63 HN4A        8.4640   -0.2950   -7.3690 hn        1 13U      0.480467
     64 H27         4.6850    1.1430   -7.2470 ha        1 13U      0.175000
     65 H26         3.5940    1.4530   -5.0390 ha        1 13U      0.171500
     66 H212        1.0550    0.2140    2.6300 hn        1 13U      0.458800
     67 H232        2.8190   -1.5750   -2.9520 hn        1 13U      0.478300
     68 H473        8.2150   -0.1600   -9.0220 hn        1 13U      0.480467
@<TRIPOS>BOND
     1    1    2 2   
     2    1    3 1   
     3    1   13 1   
     4    3    4 1   
     5    3   31 1   
     6    3   32 1   
     7    4    5 1   
     8    4   33 1   
     9    4   66 1   
    10    5    6 1   
    11    5   12 1   
    12    5   34 1   
    13    6    7 1   
    14    6   35 1   
    15    6   36 1   
    16    7    8 1   
    17    7   37 1   
    18    7   38 1   
    19    8    9 1   
    20    8   39 1   
    21    8   40 1   
    22    9   10 1   
    23    9   41 1   
    24    9   42 1   
    25   10   11 1   
    26   10   43 1   
    27   10   44 1   
    28   11   12 1   
    29   11   45 1   
    30   11   46 1   
    31   12   47 1   
    32   12   48 1   
    33   13   14 1   
    34   13   19 1   
    35   14   15 1   
    36   14   17 1   
    37   14   49 1   
    38   15   16 2   
    39   15   20 1   
    40   17   18 1   
    41   17   50 1   
    42   17   51 1   
    43   18   19 1   
    44   18   52 1   
    45   18   53 1   
    46   19   54 1   
    47   19   55 1   
    48   20   21 1   
    49   20   56 1   
    50   20   67 1   
    51   21   22 1   
    52   21   57 1   
    53   21   58 1   
    54   22   23 ar  
    55   22   30 ar  
    56   23   24 ar  
    57   23   59 1   
    58   24   25 ar  
    59   24   60 1   
    60   25   26 1   
    61   25   29 ar  
    62   26   27 2   
    63   26   28 1   
    64   27   61 1   
    65   28   62 1   
    66   28   63 1   
    67   28   68 1   
    68   29   30 ar  
    69   29   64 1   
    70   30   65 1   
@<TRIPOS>SUBSTRUCTURE
     1 13U         1 TEMP              0 ****  ****    0 ROOT
