@<TRIPOS>MOLECULE
13U
   68    70     1     0     0
SMALL
bcc


@<TRIPOS>ATOM
      1 C14         0.2620   -0.3880    0.4600 c         1 13U      0.656100
      2 O32         1.2960   -1.0770    0.5650 o         1 13U     -0.593100
      3 C5         -0.5750   -0.0210    1.6920 c3        1 13U      0.034800
      4 N21         0.0630   -0.4780    2.9520 ny        1 13U     -0.766000
      5 C49        -0.8310   -0.2670    4.1740 c3        1 13U      0.138500
      6 C48         0.0220   -0.2080    5.4490 c3        1 13U     -0.099400
      7 C47        -0.2750    1.0340    6.2670 c3        1 13U     -0.080400
      8 C46        -1.6160    1.0420    6.9720 c3        1 13U     -0.091400
      9 C45        -2.8050    1.2460    6.0570 c3        1 13U     -0.084400
     10 C44        -3.5620   -0.0040    5.6580 c3        1 13U     -0.091400
     11 C43        -2.7680   -1.2770    5.4790 c3        1 13U     -0.080400
     12 C42        -1.9060   -1.3540    4.2340 c3        1 13U     -0.099400
     13 N1         -0.1480    0.0860   -0.7690 n         1 13U     -0.453800
     14 C1          0.4710   -0.3650   -1.9990 c3        1 13U      0.061700
     15 C7          1.8090    0.3520   -2.2680 c         1 13U      0.522100
     16 O22         2.2770    1.3320   -1.7230 o         1 13U     -0.375100
     17 C2         -0.5180   -0.0510   -3.1500 c3        1 13U     -0.094400
     18 C3         -1.6650    0.7430   -2.5280 c3        1 13U     -0.093400
     19 C4         -1.3960    0.8000   -1.0170 c3        1 13U      0.078000
     20 N23         2.6540   -0.2810   -3.3700 ny        1 13U     -0.684800
     21 C24         3.4570    0.7290   -4.1330 c3        1 13U      0.155100
     22 C25         4.4110    0.1120   -5.1050 ca        1 13U     -0.136300
     23 C30         5.6730   -0.3160   -4.6730 ca        1 13U     -0.091000
     24 C29         6.6070   -0.7930   -5.5940 ca        1 13U     -0.081000
     25 C28         6.2780   -0.8420   -6.9540 ca        1 13U     -0.209900
     26 C21         7.2520   -1.4010   -7.9270 ce        1 13U      0.563800
     27 N46         7.5100   -2.6080   -8.2470 n2        1 13U     -0.665100
     28 N47         8.0480   -0.3380   -8.6320 nz        1 13U     -0.819600
     29 C27         5.0170   -0.4220   -7.3910 ca        1 13U     -0.081000
     30 C26         4.0850    0.0530   -6.4650 ca        1 13U     -0.091000
     31 H5         -0.7160    1.0990    1.7410 hx        1 13U      0.138200
     32 H5A        -1.5920   -0.5090    1.6040 hx        1 13U      0.138200
     33 HN21        0.9440    0.0340    3.0890 hn        1 13U      0.460800
     34 H49        -1.3290    0.7360    4.0080 hx        1 13U      0.113700
     35 H48        -0.1640   -1.1270    6.0670 hc        1 13U      0.065200
     36 H48A        1.1220   -0.2080    5.2130 hc        1 13U      0.065200
     37 H47        -0.1860    1.9450    5.6180 hc        1 13U      0.068200
     38 H47A        0.5280    1.1110    7.0540 hc        1 13U      0.068200
     39 H46        -1.5920    1.8920    7.7100 hc        1 13U      0.066700
     40 H46A       -1.7400    0.1060    7.5780 hc        1 13U      0.066700
     41 H45        -3.5390    1.9180    6.5850 hc        1 13U      0.044700
     42 H45A       -2.4880    1.8150    5.1420 hc        1 13U      0.044700
     43 H44        -4.3270   -0.2140    6.4590 hc        1 13U      0.066700
     44 H44A       -4.1350    0.2110    4.7160 hc        1 13U      0.066700
     45 H43        -3.5010   -2.1310    5.4080 hc        1 13U      0.068200
     46 H43A       -2.1440   -1.4760    6.3900 hc        1 13U      0.068200
     47 H42        -2.5740   -1.2680    3.3350 hc        1 13U      0.065200
     48 H42A       -1.4240   -2.3700    4.2140 hc        1 13U      0.065200
     49 H1          0.6970   -1.4720   -1.9220 h1        1 13U      0.114700
     50 H2         -0.8930   -1.0130   -3.5850 hc        1 13U      0.080200
     51 H2A        -0.0310    0.5370   -3.9650 hc        1 13U      0.080200
     52 H3         -2.6480    0.2460   -2.7320 hc        1 13U      0.101200
     53 H3A        -1.7150    1.7780   -2.9520 hc        1 13U      0.101200
     54 H4         -1.2880    1.8650   -0.6670 h1        1 13U      0.079700
     55 H4A        -2.2350    0.3150   -0.4450 h1        1 13U      0.079700
     56 HN23        3.2940   -0.9570   -2.9330 hn        1 13U      0.461800
     57 H24         4.0250    1.3550   -3.3780 hx        1 13U      0.129700
     58 H24A        2.7260    1.4050   -4.6690 hx        1 13U      0.129700
     59 H30         5.9520   -0.2580   -3.6070 ha        1 13U      0.167000
     60 H29         7.5960   -1.1300   -5.2390 ha        1 13U      0.175500
     61 HN46        7.0140   -3.3620   -7.8170 hn        1 13U      0.499400
     62 HN47        7.4010    0.2980   -9.1100 hn        1 13U      0.480800
     63 HN4A        8.6960   -0.7450   -9.3270 hn        1 13U      0.480800
     64 H27         4.7430   -0.4690   -8.4590 ha        1 13U      0.175500
     65 H26         3.1010    0.3970   -6.8250 ha        1 13U      0.167000
     66 H212        0.2980   -1.4770    2.8700 hn        1 13U      0.460800
     67 H232        2.0420   -0.7930   -4.0140 hn        1 13U      0.461800
     68 H473        8.5910    0.1860   -7.9370 hn        1 13U      0.480800
@<TRIPOS>BOND
     1    1    2 2   
     2    1    3 1   
     3    1   13 1   
     4    3    4 1   
     5    3   31 1   
     6    3   32 1   
     7    4    5 1   
     8    4   33 1   
     9    4   66 1   
    10    5    6 1   
    11    5   12 1   
    12    5   34 1   
    13    6    7 1   
    14    6   35 1   
    15    6   36 1   
    16    7    8 1   
    17    7   37 1   
    18    7   38 1   
    19    8    9 1   
    20    8   39 1   
    21    8   40 1   
    22    9   10 1   
    23    9   41 1   
    24    9   42 1   
    25   10   11 1   
    26   10   43 1   
    27   10   44 1   
    28   11   12 1   
    29   11   45 1   
    30   11   46 1   
    31   12   47 1   
    32   12   48 1   
    33   13   14 1   
    34   13   19 1   
    35   14   15 1   
    36   14   17 1   
    37   14   49 1   
    38   15   16 2   
    39   15   20 1   
    40   17   18 1   
    41   17   50 1   
    42   17   51 1   
    43   18   19 1   
    44   18   52 1   
    45   18   53 1   
    46   19   54 1   
    47   19   55 1   
    48   20   21 1   
    49   20   56 1   
    50   20   67 1   
    51   21   22 1   
    52   21   57 1   
    53   21   58 1   
    54   22   23 ar  
    55   22   30 ar  
    56   23   24 ar  
    57   23   59 1   
    58   24   25 ar  
    59   24   60 1   
    60   25   26 1   
    61   25   29 ar  
    62   26   27 2   
    63   26   28 1   
    64   27   61 1   
    65   28   62 1   
    66   28   63 1   
    67   28   68 1   
    68   29   30 ar  
    69   29   64 1   
    70   30   65 1   
@<TRIPOS>SUBSTRUCTURE
     1 13U         1 TEMP              0 ****  ****    0 ROOT
