@<TRIPOS>MOLECULE
13U
   65    67     1     0     0
SMALL
bcc


@<TRIPOS>ATOM
      1 C14        -1.6010    1.1940    0.6820 c         1 13U      0.627100
      2 O32        -0.9490    0.2270    0.2290 o         1 13U     -0.639100
      3 C5         -2.9040    0.9850    1.4700 c3        1 13U      0.108800
      4 N21        -3.3320   -0.3780    1.6380 n3        1 13U     -0.806200
      5 C49        -4.2400   -0.8930    0.6100 c3        1 13U      0.173500
      6 C48        -4.7590   -2.2880    1.0070 c3        1 13U     -0.088900
      7 C47        -6.2710   -2.3770    0.9850 c3        1 13U     -0.071400
      8 C46        -6.9050   -2.4220   -0.3900 c3        1 13U     -0.073900
      9 C45        -6.8850   -1.0980   -1.1250 c3        1 13U     -0.073400
     10 C44        -5.7980   -0.9420   -2.1700 c3        1 13U     -0.073900
     11 C43        -4.4570   -1.5720   -1.8730 c3        1 13U     -0.071400
     12 C42        -3.6310   -0.9010   -0.8020 c3        1 13U     -0.088900
     13 N1         -1.1210    2.4820    0.5440 n         1 13U     -0.461800
     14 C1          0.0330    2.8070   -0.2850 c3        1 13U      0.033700
     15 C7          1.3790    2.6480    0.4640 c         1 13U      0.651100
     16 O22         2.1620    3.6100    0.5960 o         1 13U     -0.617100
     17 C2         -0.1580    4.2640   -0.7620 c3        1 13U     -0.087400
     18 C3         -1.3000    4.8420    0.0660 c3        1 13U     -0.090400
     19 C4         -1.9150    3.6620    0.8370 c3        1 13U      0.089000
     20 N23         1.6580    1.4030    0.9810 n         1 13U     -0.551900
     21 C24         2.9420    1.0820    1.5460 c3        1 13U      0.126300
     22 C25         3.7650    0.1370    0.7150 ca        1 13U     -0.104300
     23 C30         3.3080   -1.1610    0.4660 ca        1 13U     -0.125000
     24 C29         4.0810   -2.0490   -0.2790 ca        1 13U     -0.101000
     25 C28         5.3220   -1.6400   -0.7790 ca        1 13U     -0.139900
     26 C21         6.1620   -2.5900   -1.5770 ce        1 13U      0.650800
     27 N46         6.6190   -2.1960   -2.7280 n2        1 13U     -0.825100
     28 N47         6.3050   -3.8690   -0.9930 nh        1 13U     -0.958800
     29 C27         5.7770   -0.3390   -0.5440 ca        1 13U     -0.101000
     30 C26         4.9990    0.5450    0.2010 ca        1 13U     -0.125000
     31 H5         -2.7310    1.4030    2.5050 h1        1 13U      0.073700
     32 H5A        -3.7210    1.5860    0.9790 h1        1 13U      0.073700
     33 HN21       -2.5380   -0.9860    1.7360 hn        1 13U      0.377800
     34 H49        -5.1170   -0.1780    0.5980 h1        1 13U      0.055700
     35 H48        -4.3150   -3.0640    0.3330 hc        1 13U      0.046700
     36 H48A       -4.4250   -2.5440    2.0500 hc        1 13U      0.046700
     37 H47        -6.5630   -3.3180    1.5280 hc        1 13U      0.040450
     38 H47A       -6.7020   -1.5180    1.5650 hc        1 13U      0.040450
     39 H46        -6.4210   -3.2220   -1.0090 hc        1 13U      0.036950
     40 H46A       -7.9780   -2.7310   -0.2540 hc        1 13U      0.036950
     41 H45        -7.8720   -0.9710   -1.6510 hc        1 13U      0.034700
     42 H45A       -6.8230   -0.2570   -0.3850 hc        1 13U      0.034700
     43 H44        -6.1720   -1.3940   -3.1300 hc        1 13U      0.036950
     44 H44A       -5.6510    0.1550   -2.3620 hc        1 13U      0.036950
     45 H43        -4.5910   -2.6580   -1.6300 hc        1 13U      0.040450
     46 H43A       -3.8530   -1.5360   -2.8240 hc        1 13U      0.040450
     47 H42        -3.4380    0.1640   -1.1040 hc        1 13U      0.046700
     48 H42A       -2.6280   -1.4110   -0.7630 hc        1 13U      0.046700
     49 H1          0.0710    2.1030   -1.1690 h1        1 13U      0.084700
     50 H2          0.7820    4.8550   -0.6250 hc        1 13U      0.075700
     51 H2A        -0.4160    4.2650   -1.8500 hc        1 13U      0.075700
     52 H3         -0.9190    5.6110    0.7820 hc        1 13U      0.058200
     53 H3A        -2.0670    5.3250   -0.5850 hc        1 13U      0.058200
     54 H4         -1.8970    3.8520    1.9450 h1        1 13U      0.046700
     55 H4A        -2.9850    3.5080    0.5260 h1        1 13U      0.046700
     56 HN23        1.0790    0.6340    0.7190 hn        1 13U      0.334500
     57 H24         3.5150    2.0390    1.7180 h1        1 13U      0.068700
     58 H24A        2.7610    0.5960    2.5510 h1        1 13U      0.068700
     59 H30         2.3310   -1.4840    0.8570 ha        1 13U      0.140500
     60 H29         3.7060   -3.0630   -0.4830 ha        1 13U      0.146500
     61 HN46        7.1760   -2.8520   -3.2340 hn        1 13U      0.381400
     62 HN47        6.1250   -3.9130   -0.0170 hn        1 13U      0.398300
     63 HN4A        7.0810   -4.4120   -1.2910 hn        1 13U      0.398300
     64 H27         6.7420   -0.0080   -0.9590 ha        1 13U      0.146500
     65 H26         5.3560    1.5720    0.3780 ha        1 13U      0.140500
@<TRIPOS>BOND
     1    1    2 2   
     2    1    3 1   
     3    1   13 1   
     4    3    4 1   
     5    3   31 1   
     6    3   32 1   
     7    4    5 1   
     8    4   33 1   
     9    5    6 1   
    10    5   12 1   
    11    5   34 1   
    12    6    7 1   
    13    6   35 1   
    14    6   36 1   
    15    7    8 1   
    16    7   37 1   
    17    7   38 1   
    18    8    9 1   
    19    8   39 1   
    20    8   40 1   
    21    9   10 1   
    22    9   41 1   
    23    9   42 1   
    24   10   11 1   
    25   10   43 1   
    26   10   44 1   
    27   11   12 1   
    28   11   45 1   
    29   11   46 1   
    30   12   47 1   
    31   12   48 1   
    32   13   14 1   
    33   13   19 1   
    34   14   15 1   
    35   14   17 1   
    36   14   49 1   
    37   15   16 2   
    38   15   20 1   
    39   17   18 1   
    40   17   50 1   
    41   17   51 1   
    42   18   19 1   
    43   18   52 1   
    44   18   53 1   
    45   19   54 1   
    46   19   55 1   
    47   20   21 1   
    48   20   56 1   
    49   21   22 1   
    50   21   57 1   
    51   21   58 1   
    52   22   23 ar  
    53   22   30 ar  
    54   23   24 ar  
    55   23   59 1   
    56   24   25 ar  
    57   24   60 1   
    58   25   26 1   
    59   25   29 ar  
    60   26   27 2   
    61   26   28 1   
    62   27   61 1   
    63   28   62 1   
    64   28   63 1   
    65   29   30 ar  
    66   29   64 1   
    67   30   65 1   
@<TRIPOS>SUBSTRUCTURE
     1 13U         1 TEMP              0 ****  ****    0 ROOT
