@<TRIPOS>MOLECULE
13V
   49    51     1     0     0
SMALL
bcc


@<TRIPOS>ATOM
      1 N3          0.0040    1.4310   -0.1160 nh        1 13V     -0.928500
      2 C15         1.3370    1.0140   -0.1710 ca        1 13V      0.871900
      3 N2          2.0150    0.8830    1.0290 nb        1 13V     -0.763000
      4 N4          1.9000    0.8190   -1.4340 nb        1 13V     -0.753000
      5 C16         3.2030    0.5280   -1.4470 ca        1 13V      0.459200
      6 C17         3.9820    0.4040   -0.2760 ca        1 13V     -0.223500
      7 O2          5.3460    0.2250   -0.4070 os        1 13V     -0.328900
      8 C18         5.7280   -1.1590   -0.5070 c3        1 13V      0.116400
      9 C19         7.2380   -1.1660   -0.6990 c3        1 13V      0.121400
     10 O3          7.8260   -1.0680    0.5980 os        1 13V     -0.432600
     11 C20         9.2420   -1.0230    0.5470 c3        1 13V      0.115700
     12 C14         3.3390    0.5850    0.9840 ca        1 13V      0.598100
     13 C11         4.0540    0.4550    2.2360 cc        1 13V     -0.250000
     14 C10         5.4490    0.3830    2.3790 cd        1 13V     -0.035100
     15 N1          5.7890    0.2770    3.7200 na        1 13V     -0.182400
     16 C12         3.4910    0.3910    3.5770 ca        1 13V     -0.053800
     17 C9          4.6140    0.2740    4.4810 ca        1 13V     -0.057200
     18 C8          4.4340    0.1820    5.8690 ca        1 13V     -0.148000
     19 C7          3.1390    0.2060    6.3560 ca        1 13V     -0.091000
     20 C13         2.2010    0.4130    4.1030 ca        1 13V     -0.048000
     21 C6          2.0270    0.3210    5.4880 ca        1 13V     -0.010000
     22 C5          0.7310    0.3410    6.0380 cg        1 13V     -0.081000
     23 C4         -0.3730    0.3630    6.5010 c1        1 13V     -0.127100
     24 C1         -1.7100    0.3920    7.0590 c3        1 13V      0.243900
     25 C3         -2.6120   -0.6100    6.3340 c3        1 13V     -0.120100
     26 C2         -2.3000    1.8000    6.9560 c3        1 13V     -0.120100
     27 O1         -1.5960    0.0190    8.4410 oh        1 13V     -0.588800
     28 H1         -0.4600    1.3360    0.7570 hn        1 13V      0.427300
     29 H2         -0.5450    1.2780   -0.9290 hn        1 13V      0.427300
     30 H3          3.6640    0.3850   -2.4420 h4        1 13V      0.029100
     31 H4          5.2240   -1.6200   -1.3950 h1        1 13V      0.052700
     32 H5          5.4340   -1.6970    0.4310 h1        1 13V      0.052700
     33 H6          7.5640   -0.2970   -1.3300 h1        1 13V      0.044700
     34 H7          7.5540   -2.1290   -1.1810 h1        1 13V      0.044700
     35 H8          9.5590   -0.9620    1.6180 h1        1 13V      0.035033
     36 H9          9.6490   -1.9490    0.0720 h1        1 13V      0.035033
     37 H10         9.5880   -0.1210   -0.0160 h1        1 13V      0.035033
     38 H11         6.2280    0.3920    1.6030 h4        1 13V      0.208000
     39 H12         6.7020    0.1920    4.0790 hn        1 13V      0.303700
     40 H13         5.2920    0.0940    6.5480 ha        1 13V      0.134000
     41 H14         2.9610    0.1360    7.4410 ha        1 13V      0.142000
     42 H15         1.3240    0.5040    3.4450 ha        1 13V      0.160000
     43 H16        -3.6460   -0.5580    6.7520 hc        1 13V      0.047533
     44 H17        -2.2190   -1.6450    6.4710 hc        1 13V      0.047533
     45 H18        -2.6480   -0.3730    5.2450 hc        1 13V      0.047533
     46 H19        -3.3420    1.8030    7.3570 hc        1 13V      0.047533
     47 H20        -1.6830    2.5150    7.5490 hc        1 13V      0.047533
     48 H21        -2.3200    2.1290    5.8910 hc        1 13V      0.047533
     49 H22        -2.4900    0.0500    8.8010 ho        1 13V      0.400000
@<TRIPOS>BOND
     1    1    2 1   
     2    1   28 1   
     3    1   29 1   
     4    2    3 ar  
     5    2    4 ar  
     6    3   12 ar  
     7    4    5 ar  
     8    5    6 ar  
     9    5   30 1   
    10    6    7 1   
    11    6   12 ar  
    12    7    8 1   
    13    8    9 1   
    14    8   31 1   
    15    8   32 1   
    16    9   10 1   
    17    9   33 1   
    18    9   34 1   
    19   10   11 1   
    20   11   35 1   
    21   11   36 1   
    22   11   37 1   
    23   12   13 1   
    24   13   14 2   
    25   13   16 1   
    26   14   15 1   
    27   14   38 1   
    28   15   17 1   
    29   15   39 1   
    30   16   17 ar  
    31   16   20 ar  
    32   17   18 ar  
    33   18   19 ar  
    34   18   40 1   
    35   19   21 ar  
    36   19   41 1   
    37   20   21 ar  
    38   20   42 1   
    39   21   22 1   
    40   22   23 3   
    41   23   24 1   
    42   24   25 1   
    43   24   26 1   
    44   24   27 1   
    45   25   43 1   
    46   25   44 1   
    47   25   45 1   
    48   26   46 1   
    49   26   47 1   
    50   26   48 1   
    51   27   49 1   
@<TRIPOS>SUBSTRUCTURE
     1 13V         1 TEMP              0 ****  ****    0 ROOT
