@<TRIPOS>MOLECULE
13V
   49    51     1     0     0
SMALL
bcc


@<TRIPOS>ATOM
      1 N3         -0.0130    1.3910   -0.1170 nv        1 13V     -0.928500
      2 C15         1.3240    0.9860   -0.1720 ca        1 13V      0.871900
      3 N2          2.0040    0.8660    1.0270 nb        1 13V     -0.763000
      4 N4          1.8860    0.7910   -1.4350 nb        1 13V     -0.753000
      5 C16         3.1920    0.5110   -1.4500 ca        1 13V      0.459200
      6 C17         3.9740    0.3990   -0.2790 ca        1 13V     -0.223500
      7 O2          5.3400    0.2320   -0.4120 os        1 13V     -0.328900
      8 C18         5.7330   -1.1490   -0.5070 c3        1 13V      0.116400
      9 C19         7.2430   -1.1440   -0.7020 c3        1 13V      0.121400
     10 O3          7.8320   -1.0350    0.5940 os        1 13V     -0.432600
     11 C20         9.2480   -0.9780    0.5410 c3        1 13V      0.115700
     12 C14         3.3310    0.5800    0.9810 ca        1 13V      0.598100
     13 C11         4.0490    0.4610    2.2320 cc        1 13V     -0.250000
     14 C10         5.4460    0.4020    2.3730 cd        1 13V     -0.035100
     15 N1          5.7880    0.3040    3.7140 na        1 13V     -0.182400
     16 C12         3.4900    0.3980    3.5750 ca        1 13V     -0.053800
     17 C9          4.6160    0.2940    4.4780 ca        1 13V     -0.057200
     18 C8          4.4380    0.2070    5.8660 ca        1 13V     -0.148000
     19 C7          3.1440    0.2220    6.3550 ca        1 13V     -0.091000
     20 C13         2.2000    0.4100    4.1020 ca        1 13V     -0.048000
     21 C6          2.0300    0.3220    5.4880 ca        1 13V     -0.010000
     22 C5          0.7340    0.3340    6.0410 cg        1 13V     -0.081000
     23 C4         -0.3690    0.3480    6.5060 c1        1 13V     -0.127100
     24 C1         -1.7050    0.3680    7.0660 c3        1 13V      0.243900
     25 C3         -2.6060   -0.6280    6.3320 c3        1 13V     -0.120100
     26 C2         -2.3000    1.7760    6.9770 c3        1 13V     -0.120100
     27 O1         -1.5880   -0.0170    8.4440 oh        1 13V     -0.588800
     28 H1         -0.4740    1.2950    0.7580 hn        1 13V      0.427300
     29 H2         -0.5620    1.2290   -0.9280 hn        1 13V      0.427300
     30 H3          3.6520    0.3680   -2.4450 h4        1 13V      0.029100
     31 H4          5.2320   -1.6190   -1.3920 h1        1 13V      0.052700
     32 H5          5.4460   -1.6860    0.4340 h1        1 13V      0.052700
     33 H6          7.5600   -0.2750   -1.3370 h1        1 13V      0.044700
     34 H7          7.5670   -2.1060   -1.1800 h1        1 13V      0.044700
     35 H8          9.5660   -0.9090    1.6110 h1        1 13V      0.035033
     36 H9          9.6620   -1.9020    0.0680 h1        1 13V      0.035033
     37 H10         9.5840   -0.0750   -0.0270 h1        1 13V      0.035033
     38 H11         6.2230    0.4150    1.5960 h4        1 13V      0.208000
     39 H12         6.7030    0.2300    4.0720 hn        1 13V      0.303700
     40 H13         5.2980    0.1290    6.5440 ha        1 13V      0.134000
     41 H14         2.9690    0.1540    7.4400 ha        1 13V      0.142000
     42 H15         1.3210    0.4910    3.4460 ha        1 13V      0.160000
     43 H16        -3.6390   -0.5840    6.7520 hc        1 13V      0.047533
     44 H17        -2.2100   -1.6630    6.4580 hc        1 13V      0.047533
     45 H18        -2.6440   -0.3810    5.2460 hc        1 13V      0.047533
     46 H19        -3.3400    1.7730    7.3800 hc        1 13V      0.047533
     47 H20        -1.6830    2.4870    7.5760 hc        1 13V      0.047533
     48 H21        -2.3210    2.1150    5.9160 hc        1 13V      0.047533
     49 H22        -2.4820    0.0080    8.8050 ho        1 13V      0.400000
@<TRIPOS>BOND
     1    1    2 1   
     2    1   28 1   
     3    1   29 1   
     4    2    3 ar  
     5    2    4 ar  
     6    3   12 ar  
     7    4    5 ar  
     8    5    6 ar  
     9    5   30 1   
    10    6    7 1   
    11    6   12 ar  
    12    7    8 1   
    13    8    9 1   
    14    8   31 1   
    15    8   32 1   
    16    9   10 1   
    17    9   33 1   
    18    9   34 1   
    19   10   11 1   
    20   11   35 1   
    21   11   36 1   
    22   11   37 1   
    23   12   13 1   
    24   13   14 2   
    25   13   16 1   
    26   14   15 1   
    27   14   38 1   
    28   15   17 1   
    29   15   39 1   
    30   16   17 ar  
    31   16   20 ar  
    32   17   18 ar  
    33   18   19 ar  
    34   18   40 1   
    35   19   21 ar  
    36   19   41 1   
    37   20   21 ar  
    38   20   42 1   
    39   21   22 1   
    40   22   23 3   
    41   23   24 1   
    42   24   25 1   
    43   24   26 1   
    44   24   27 1   
    45   25   43 1   
    46   25   44 1   
    47   25   45 1   
    48   26   46 1   
    49   26   47 1   
    50   26   48 1   
    51   27   49 1   
@<TRIPOS>SUBSTRUCTURE
     1 13V         1 TEMP              0 ****  ****    0 ROOT
