@<TRIPOS>MOLECULE
13V
   49    51     1     0     0
SMALL
bcc


@<TRIPOS>ATOM
      1 N3         -0.0680    1.5000    0.3240 nh        1 13V     -0.922500
      2 C15         1.3030    1.2580    0.1720 ca        1 13V      0.866900
      3 N2          2.0420    1.0330    1.3210 nb        1 13V     -0.760000
      4 N4          1.8080    1.2020   -1.1280 nb        1 13V     -0.751000
      5 C16         3.0950    0.8620   -1.2360 ca        1 13V      0.459200
      6 C17         3.9200    0.5890   -0.1220 ca        1 13V     -0.220500
      7 O2          5.2660    0.3640   -0.3430 os        1 13V     -0.330900
      8 C18         5.5910   -1.0310   -0.4790 c3        1 13V      0.116400
      9 C19         7.0850   -1.0880   -0.7700 c3        1 13V      0.121400
     10 O3          7.7600   -1.0070    0.4850 os        1 13V     -0.431600
     11 C20         9.1700   -1.0110    0.3410 c3        1 13V      0.115700
     12 C14         3.3480    0.6900    1.1800 ca        1 13V      0.595100
     13 C11         4.1250    0.4450    2.3770 cc        1 13V     -0.252000
     14 C10         5.5260    0.3840    2.4460 cd        1 13V     -0.036100
     15 N1          5.9320    0.1560    3.7520 na        1 13V     -0.181400
     16 C12         3.6280    0.2370    3.7290 ca        1 13V     -0.054800
     17 C9          4.7960    0.0540    4.5640 ca        1 13V     -0.057200
     18 C8          4.6830   -0.1780    5.9420 ca        1 13V     -0.148000
     19 C7          3.4120   -0.2310    6.4880 ca        1 13V     -0.091000
     20 C13         2.3640    0.1740    4.3110 ca        1 13V     -0.049000
     21 C6          2.2580   -0.0590    5.6860 ca        1 13V     -0.009000
     22 C5          0.9890   -0.1280    6.2930 cg        1 13V     -0.081000
     23 C4         -0.0920   -0.1860    6.8030 c1        1 13V     -0.126100
     24 C1         -1.4030   -0.2560    7.4160 c3        1 13V      0.243900
     25 C3         -2.2340   -1.3680    6.7720 c3        1 13V     -0.120100
     26 C2         -2.1280    1.0850    7.2800 c3        1 13V     -0.120100
     27 O1         -1.2010   -0.5520    8.8060 oh        1 13V     -0.589800
     28 H1         -0.3640    1.8020    1.2240 hn        1 13V      0.423800
     29 H2         -0.5250    1.9260   -0.4490 hn        1 13V      0.423800
     30 H3          3.5060    0.8140   -2.2610 h4        1 13V      0.031100
     31 H4          5.0160   -1.4650   -1.3370 h1        1 13V      0.054200
     32 H5          5.3400   -1.5680    0.4720 h1        1 13V      0.054200
     33 H6          7.3970   -0.2320   -1.4250 h1        1 13V      0.044200
     34 H7          7.3370   -2.0620   -1.2670 h1        1 13V      0.044200
     35 H8          9.5090   -0.1240   -0.2500 h1        1 13V      0.034700
     36 H9          9.5590   -0.9570    1.3880 h1        1 13V      0.034700
     37 H10         9.5130   -1.9530   -0.1540 h1        1 13V      0.034700
     38 H11         6.2640    0.4790    1.6370 h4        1 13V      0.207000
     39 H12         6.8620    0.0430    4.0570 hn        1 13V      0.303700
     40 H13         5.5740   -0.3140    6.5700 ha        1 13V      0.134000
     41 H14         3.2880   -0.4110    7.5670 ha        1 13V      0.142000
     42 H15         1.4560    0.3030    3.7030 ha        1 13V      0.161000
     43 H16        -2.3310   -1.1870    5.6760 hc        1 13V      0.047700
     44 H17        -3.2520   -1.3920    7.2280 hc        1 13V      0.047700
     45 H18        -1.7420   -2.3550    6.9380 hc        1 13V      0.047700
     46 H19        -3.1470    1.0110    7.7290 hc        1 13V      0.047700
     47 H20        -1.5570    1.8820    7.8140 hc        1 13V      0.047700
     48 H21        -2.2230    1.3610    6.2050 hc        1 13V      0.047700
     49 H22        -2.0800   -0.6010    9.2000 ho        1 13V      0.400000
@<TRIPOS>BOND
     1    1    2 1   
     2    1   28 1   
     3    1   29 1   
     4    2    3 ar  
     5    2    4 ar  
     6    3   12 ar  
     7    4    5 ar  
     8    5    6 ar  
     9    5   30 1   
    10    6    7 1   
    11    6   12 ar  
    12    7    8 1   
    13    8    9 1   
    14    8   31 1   
    15    8   32 1   
    16    9   10 1   
    17    9   33 1   
    18    9   34 1   
    19   10   11 1   
    20   11   35 1   
    21   11   36 1   
    22   11   37 1   
    23   12   13 1   
    24   13   14 2   
    25   13   16 1   
    26   14   15 1   
    27   14   38 1   
    28   15   17 1   
    29   15   39 1   
    30   16   17 ar  
    31   16   20 ar  
    32   17   18 ar  
    33   18   19 ar  
    34   18   40 1   
    35   19   21 ar  
    36   19   41 1   
    37   20   21 ar  
    38   20   42 1   
    39   21   22 1   
    40   22   23 3   
    41   23   24 1   
    42   24   25 1   
    43   24   26 1   
    44   24   27 1   
    45   25   43 1   
    46   25   44 1   
    47   25   45 1   
    48   26   46 1   
    49   26   47 1   
    50   26   48 1   
    51   27   49 1   
@<TRIPOS>SUBSTRUCTURE
     1 13V         1 TEMP              0 ****  ****    0 ROOT
