@<TRIPOS>MOLECULE
13V
   49    40     1     0     0
SMALL
bcc


@<TRIPOS>ATOM
      1 N3         -2.7800    2.2440   -3.2790 n3        1 13V     -0.315000
      2 C15        -1.5100    1.6510   -3.1950 c1        1 13V      0.131000
      3 N2         -0.8100    1.7040   -2.0270 n1        1 13V     -0.223000
      4 N4         -1.0090    0.9520   -4.2660 n1        1 13V     -0.211000
      5 C16         0.1570    0.3280   -4.1650 c1        1 13V     -0.031000
      6 C17         0.8640    0.3790   -2.9900 c1        1 13V      0.013500
      7 O2          2.1270   -0.3430   -2.8650 o         1 13V     -0.217000
      8 C18         2.9090   -0.3360   -4.0360 c3        1 13V     -0.028000
      9 C19         4.0580   -1.3710   -3.8980 c3        1 13V     -0.051000
     10 O3          4.8300   -1.3940   -5.1050 os        1 13V     -0.289000
     11 C20         6.1560   -1.8900   -4.9360 c3        1 13V     -0.073000
     12 C14         0.3660    1.0750   -1.9230 c1        1 13V      0.013500
     13 C11         1.0980    1.0210   -0.5550 c1        1 13V     -0.127000
     14 C10         2.4100    1.4620   -0.4080 c1        1 13V     -0.022000
     15 N1          2.6850    1.5290    0.9310 n2        1 13V     -0.212000
     16 C12         0.5740    0.8200    0.7040 c1        1 13V     -0.050000
     17 C9          1.5510    1.1320    1.6240 c1        1 13V     -0.005000
     18 C8          1.2740    1.0450    3.0070 c1        1 13V     -0.150000
     19 C7          0.0120    0.6420    3.4430 c1        1 13V     -0.089000
     20 C13        -0.7130    0.4090    1.1490 c1        1 13V     -0.042000
     21 C6         -0.9830    0.3240    2.5120 c1        1 13V     -0.011000
     22 C5         -2.1440   -0.1030    3.4320 c1        1 13V     -0.086000
     23 C4         -3.0640   -0.4380    4.1560 c1        1 13V     -0.199000
     24 C1         -4.2400   -0.8620    5.0760 c2        1 13V      0.197000
     25 C3         -5.5290   -0.1630    4.6190 c3        1 13V     -0.217500
     26 C2         -4.4300   -2.3600    4.9960 c3        1 13V     -0.217500
     27 O1         -3.9460   -0.4910    6.4290 oh        1 13V     -0.320000
     28 H1         -3.0720    2.7760   -2.6170 hn        1 13V      0.215000
     29 H2         -3.3070    2.0960   -4.0130 hn        1 13V      0.215000
     30 H3          0.5170   -0.1760   -4.9380 ha        1 13V      0.191000
     31 H4          3.2890    0.5590   -4.1700 h1        1 13V      0.107500
     32 H5          2.3520   -0.5680   -4.7990 h1        1 13V      0.107500
     33 H6          3.6720   -2.2760   -3.7340 h1        1 13V      0.082000
     34 H7          4.6360   -1.1210   -3.1440 h1        1 13V      0.082000
     35 H8          6.1410   -2.6610   -4.3480 h1        1 13V      0.075667
     36 H9          6.7210   -1.1880   -4.5410 h1        1 13V      0.075667
     37 H10         6.5140   -2.1450   -5.7890 h1        1 13V      0.075667
     38 H11         3.0230    1.7350   -1.1460 DU        1 13V      0.220000
     39 H12         3.4910    1.7930    1.3090 DU        1 13V      0.220000
     40 H13         1.9670    1.2660    3.6590 ha        1 13V      0.135000
     41 H14        -0.1770    0.5820    4.3990 ha        1 13V      0.140000
     42 H15        -1.3990    0.1900    0.5070 ha        1 13V      0.162000
     43 H16        -5.5430   -0.1150    3.6740 hc        1 13V      0.087500
     44 H17        -6.3080   -0.6760    4.9310 hc        1 13V      0.087500
     45 H18        -5.5610    0.7290    4.9870 hc        1 13V      0.087500
     46 H19        -3.9440   -2.7150    4.2030 hc        1 13V      0.087500
     47 H20        -5.3810   -2.5610    4.9110 hc        1 13V      0.087500
     48 H21        -4.0850   -2.7720    5.7940 hc        1 13V      0.087500
     49 H22        -3.4600    0.2820    6.4330 ho        1 13V      0.203000
@<TRIPOS>BOND
     1    1    2 1   
     2    1   28 1   
     3    1   29 1   
     4    2    3 1   
     5    4    5 1   
     6    5   30 1   
     7    6   12 1   
     8    7    8 1   
     9    8    9 1   
    10    8   31 1   
    11    8   32 1   
    12    9   10 1   
    13    9   33 1   
    14    9   34 1   
    15   10   11 1   
    16   11   35 1   
    17   11   36 1   
    18   11   37 1   
    19   13   14 1   
    20   13   16 1   
    21   14   15 1   
    22   15   17 1   
    23   16   20 1   
    24   17   18 1   
    25   18   40 1   
    26   19   21 1   
    27   19   41 1   
    28   20   42 1   
    29   21   22 1   
    30   22   23 1   
    31   24   25 1   
    32   24   26 1   
    33   24   27 1   
    34   25   43 1   
    35   25   44 1   
    36   25   45 1   
    37   26   46 1   
    38   26   47 1   
    39   26   48 1   
    40   27   49 1   
@<TRIPOS>SUBSTRUCTURE
     1 13V         1 TEMP              0 ****  ****    0 ROOT
