@<TRIPOS>MOLECULE
13V
   49    51     1     0     0
SMALL
bcc


@<TRIPOS>ATOM
      1 N3         -0.1830    4.3350    0.3820 nh        1 13V     -0.922500
      2 C15         0.8790    3.4220    0.4220 ca        1 13V      0.866900
      3 N2          0.5610    2.0780    0.5200 nb        1 13V     -0.760000
      4 N4          2.1720    3.9320    0.2990 nb        1 13V     -0.751000
      5 C16         3.1490    3.0230    0.2330 ca        1 13V      0.459200
      6 C17         2.9180    1.6310    0.2980 ca        1 13V     -0.220500
      7 O2          4.0110    0.7870    0.3400 os        1 13V     -0.330900
      8 C18         4.4030    0.3040   -0.9580 c3        1 13V      0.116400
      9 C19         5.6400   -0.5550   -0.7300 c3        1 13V      0.121400
     10 O3          5.1860   -1.8490   -0.3350 os        1 13V     -0.431600
     11 C20         6.2570   -2.7350   -0.0560 c3        1 13V      0.115700
     12 C14         1.5750    1.1780    0.4500 ca        1 13V      0.595100
     13 C11         1.2480   -0.2290    0.5430 cc        1 13V     -0.252000
     14 C10         2.1620   -1.2670    0.7950 cd        1 13V     -0.036100
     15 N1          1.5010   -2.4850    0.8400 na        1 13V     -0.181400
     16 C12        -0.0640   -0.8460    0.4200 ca        1 13V     -0.054800
     17 C9          0.1380   -2.2660    0.6080 ca        1 13V     -0.057200
     18 C8         -0.9300   -3.1730    0.5480 ca        1 13V     -0.148000
     19 C7         -2.1940   -2.6680    0.2970 ca        1 13V     -0.091000
     20 C13        -1.3500   -0.3720    0.1660 ca        1 13V     -0.049000
     21 C6         -2.4100   -1.2830    0.1050 ca        1 13V     -0.009000
     22 C5         -3.7170   -0.8250   -0.1510 cg        1 13V     -0.081000
     23 C4         -4.8260   -0.4300   -0.3710 c1        1 13V     -0.126100
     24 C1         -6.1650    0.0530   -0.6390 c3        1 13V      0.243900
     25 C3         -6.5980    1.0500    0.4380 c3        1 13V     -0.120100
     26 C2         -6.2290    0.7120   -2.0190 c3        1 13V     -0.120100
     27 O1         -7.0350   -1.0880   -0.6130 oh        1 13V     -0.589800
     28 H1         -1.0550    4.0110    0.7330 hn        1 13V      0.423800
     29 H2          0.0450    5.2800    0.5910 hn        1 13V      0.423800
     30 H3          4.1780    3.4150    0.1350 h4        1 13V      0.031100
     31 H4          3.5670   -0.2950   -1.4010 h1        1 13V      0.054200
     32 H5          4.6540    1.1730   -1.6180 h1        1 13V      0.054200
     33 H6          6.2230   -0.6390   -1.6860 h1        1 13V      0.044200
     34 H7          6.2870   -0.1180    0.0750 h1        1 13V      0.044200
     35 H8          6.8990   -2.8760   -0.9610 h1        1 13V      0.034700
     36 H9          6.8740   -2.3520    0.7940 h1        1 13V      0.034700
     37 H10         5.7590   -3.6970    0.2230 h1        1 13V      0.034700
     38 H11         3.2500   -1.2120    0.9360 h4        1 13V      0.207000
     39 H12         1.9220   -3.3660    0.9740 hn        1 13V      0.303700
     40 H13        -0.7690   -4.2490    0.6940 ha        1 13V      0.134000
     41 H14        -3.0550   -3.3530    0.2440 ha        1 13V      0.142000
     42 H15        -1.5360    0.7010    0.0130 ha        1 13V      0.161000
     43 H16        -5.8840    1.9060    0.4760 hc        1 13V      0.047700
     44 H17        -7.6190    1.4380    0.2060 hc        1 13V      0.047700
     45 H18        -6.6210    0.5480    1.4340 hc        1 13V      0.047700
     46 H19        -5.9860   -0.0370   -2.8090 hc        1 13V      0.047700
     47 H20        -7.2550    1.1100   -2.2010 hc        1 13V      0.047700
     48 H21        -5.4980    1.5520   -2.0750 hc        1 13V      0.047700
     49 H22        -7.9210   -0.7530   -0.7970 ho        1 13V      0.400000
@<TRIPOS>BOND
     1    1    2 1   
     2    1   28 1   
     3    1   29 1   
     4    2    3 ar  
     5    2    4 ar  
     6    3   12 ar  
     7    4    5 ar  
     8    5    6 ar  
     9    5   30 1   
    10    6    7 1   
    11    6   12 ar  
    12    7    8 1   
    13    8    9 1   
    14    8   31 1   
    15    8   32 1   
    16    9   10 1   
    17    9   33 1   
    18    9   34 1   
    19   10   11 1   
    20   11   35 1   
    21   11   36 1   
    22   11   37 1   
    23   12   13 1   
    24   13   14 2   
    25   13   16 1   
    26   14   15 1   
    27   14   38 1   
    28   15   17 1   
    29   15   39 1   
    30   16   17 ar  
    31   16   20 ar  
    32   17   18 ar  
    33   18   19 ar  
    34   18   40 1   
    35   19   21 ar  
    36   19   41 1   
    37   20   21 ar  
    38   20   42 1   
    39   21   22 1   
    40   22   23 3   
    41   23   24 1   
    42   24   25 1   
    43   24   26 1   
    44   24   27 1   
    45   25   43 1   
    46   25   44 1   
    47   25   45 1   
    48   26   46 1   
    49   26   47 1   
    50   26   48 1   
    51   27   49 1   
@<TRIPOS>SUBSTRUCTURE
     1 13V         1 TEMP              0 ****  ****    0 ROOT
