@<TRIPOS>MOLECULE
13W
   39    41     1     0     0
SMALL
bcc


@<TRIPOS>ATOM
      1 C1          0.1700    0.3110   -0.1000 ca        1 13W     -0.133000
      2 C2          1.5250   -0.0110   -0.0460 ca        1 13W     -0.091000
      3 C3          2.1240   -0.2670    1.1950 ca        1 13W     -0.018000
      4 C4          1.3670   -0.2010    2.3710 ca        1 13W     -0.083000
      5 C5          0.0040    0.1230    2.3150 ca        1 13W     -0.013000
      6 C6         -0.5870    0.3790    1.0680 ca        1 13W     -0.097000
      7 C7         -0.7780    0.1950    3.5320 cc        1 13W     -0.069000
      8 C8         -2.1880   -0.0720    3.5880 cc        1 13W     -0.129000
      9 C9         -2.6900    0.0610    4.8670 cd        1 13W     -0.172400
     10 S1         -1.4710    0.4970    5.9450 ss        1 13W      0.065200
     11 C10        -0.2860    0.5210    4.7860 cd        1 13W     -0.163100
     12 C11        -4.1260   -0.1090    5.2850 c3        1 13W      0.283500
     13 C12        -4.1910   -0.8340    6.6460 c3        1 13W     -0.148400
     14 C13        -4.0530   -2.3350    6.5490 c         1 13W      0.714500
     15 N1         -4.2830   -2.9670    5.3250 n         1 13W     -0.432300
     16 C14        -4.6070   -2.2290    4.1310 c2        1 13W      0.652800
     17 N2         -4.9480   -0.8440    4.3210 nu        1 13W     -0.771200
     18 N3         -4.6730   -2.7250    2.9240 n2        1 13W     -0.868100
     19 C15        -4.7160    1.3050    5.4850 c3        1 13W     -0.092100
     20 C16        -4.1880   -4.4000    5.2270 c3        1 13W      0.065300
     21 O1         -3.7570   -3.0050    7.5560 o         1 13W     -0.624500
     22 C17         3.5050   -0.5970    1.2610 cg        1 13W      0.233800
     23 N4          4.6360   -0.8660    1.3150 n1        1 13W     -0.362800
     24 H1         -0.3050    0.5130   -1.0720 ha        1 13W      0.142000
     25 H2          2.1210   -0.0640   -0.9700 ha        1 13W      0.146000
     26 H3          1.8420   -0.4120    3.3420 ha        1 13W      0.146000
     27 H4         -1.6550    0.6380    1.0130 ha        1 13W      0.141000
     28 H5         -2.7610   -0.3640    2.7030 ha        1 13W      0.165000
     29 H6          0.7510    0.7730    5.0060 h4        1 13W      0.179000
     30 H7         -5.1820   -0.6260    7.1340 hc        1 13W      0.090700
     31 H8         -3.3830   -0.4500    7.3240 hc        1 13W      0.090700
     32 H9         -4.5450   -3.7080    2.8300 hn        1 13W      0.406400
     33 H11        -4.1460    1.8210    6.2950 hc        1 13W      0.052367
     34 H12        -5.7910    1.2450    5.7780 hc        1 13W      0.052367
     35 H13        -4.6280    1.9020    4.5470 hc        1 13W      0.052367
     36 H14        -5.1420   -4.8250    4.8130 h1        1 13W      0.056700
     37 H15        -4.0100   -4.8380    6.2460 h1        1 13W      0.056700
     38 H16        -3.3330   -4.6900    4.5580 h1        1 13W      0.056700
     39 H17        -5.0290   -0.3510    3.4500 hn        1 13W      0.418800
@<TRIPOS>BOND
     1    1    2 ar  
     2    1    6 ar  
     3    1   24 1   
     4    2    3 ar  
     5    2   25 1   
     6    3    4 ar  
     7    3   22 1   
     8    4    5 ar  
     9    4   26 1   
    10    5    6 ar  
    11    5    7 1   
    12    6   27 1   
    13    7    8 1   
    14    7   11 2   
    15    8    9 2   
    16    8   28 1   
    17    9   10 1   
    18    9   12 1   
    19   10   11 1   
    20   11   29 1   
    21   12   13 1   
    22   12   17 1   
    23   12   19 1   
    24   13   14 1   
    25   13   30 1   
    26   13   31 1   
    27   14   15 1   
    28   14   21 2   
    29   15   16 1   
    30   15   20 1   
    31   16   17 1   
    32   16   18 2   
    33   17   39 1   
    34   18   32 1   
    35   19   33 1   
    36   19   34 1   
    37   19   35 1   
    38   20   36 1   
    39   20   37 1   
    40   20   38 1   
    41   22   23 3   
@<TRIPOS>SUBSTRUCTURE
     1 13W         1 TEMP              0 ****  ****    0 ROOT
