@<TRIPOS>MOLECULE
13W
   39    41     1     0     0
SMALL
bcc


@<TRIPOS>ATOM
      1 C1          4.0060   -1.8520   -1.2150 ca        1 13W     -0.133000
      2 C2          4.9860   -1.3930   -0.3370 ca        1 13W     -0.091000
      3 C3          4.7120   -0.2900    0.4850 ca        1 13W     -0.018000
      4 C4          3.4650    0.3440    0.4240 ca        1 13W     -0.083000
      5 C5          2.4810   -0.1200   -0.4620 ca        1 13W     -0.013000
      6 C6          2.7640   -1.2250   -1.2800 ca        1 13W     -0.097000
      7 C7          1.1920    0.5370   -0.5270 cc        1 13W     -0.069000
      8 C8         -0.0240   -0.1330   -0.8940 cc        1 13W     -0.129000
      9 C9         -1.1110    0.7190   -0.8730 cd        1 13W     -0.172400
     10 S1         -0.6430    2.2740   -0.4230 ss        1 13W      0.065200
     11 C10         0.9560    1.8740   -0.2490 cd        1 13W     -0.163100
     12 C11        -2.5280    0.3670   -1.2350 c3        1 13W      0.283500
     13 C12        -3.5040    1.0750   -0.2730 c3        1 13W     -0.148400
     14 C13        -3.6790    0.3710    1.0520 c         1 13W      0.714500
     15 N1         -3.3210   -0.9740    1.1660 n         1 13W     -0.432300
     16 C14        -2.7460   -1.7090    0.0700 c2        1 13W      0.652800
     17 N2         -2.8110   -1.0710   -1.2180 nh        1 13W     -0.771200
     18 N3         -2.2350   -2.9100    0.1430 n2        1 13W     -0.868100
     19 C15        -2.7920    0.9210   -2.6540 c3        1 13W     -0.092100
     20 C16        -3.5130   -1.6650    2.4140 c3        1 13W      0.065300
     21 O1         -4.1570    0.9790    2.0280 o         1 13W     -0.624500
     22 C17         5.7030    0.1870    1.3860 cg        1 13W      0.233800
     23 N4          6.5150    0.5770    2.1220 n1        1 13W     -0.362800
     24 H1          4.2170   -2.7170   -1.8620 ha        1 13W      0.142000
     25 H2          5.9660   -1.8890   -0.2860 ha        1 13W      0.146000
     26 H3          3.2530    1.2040    1.0780 ha        1 13W      0.146000
     27 H4          2.0010   -1.5940   -1.9820 ha        1 13W      0.141000
     28 H5         -0.0520   -1.1990   -1.1350 ha        1 13W      0.165000
     29 H6          1.7170    2.5960    0.0450 h4        1 13W      0.179000
     30 H7         -3.1530    2.1220   -0.0720 hc        1 13W      0.090700
     31 H8         -4.5210    1.1350   -0.7490 hc        1 13W      0.090700
     32 H9         -2.3020   -3.3780    1.0180 hn        1 13W      0.406400
     33 H11        -2.0620    0.4940   -3.3820 hc        1 13W      0.052367
     34 H12        -3.8270    0.6710   -2.9880 hc        1 13W      0.052367
     35 H13        -2.6740    2.0300   -2.6330 hc        1 13W      0.052367
     36 H14        -4.1390   -2.5840    2.2570 h1        1 13W      0.056700
     37 H15        -2.5220   -1.9620    2.8530 h1        1 13W      0.056700
     38 H16        -4.0400   -0.9910    3.1430 h1        1 13W      0.056700
     39 H17        -2.2780   -1.5630   -1.9120 hn        1 13W      0.418800
@<TRIPOS>BOND
     1    1    2 ar  
     2    1    6 ar  
     3    1   24 1   
     4    2    3 ar  
     5    2   25 1   
     6    3    4 ar  
     7    3   22 1   
     8    4    5 ar  
     9    4   26 1   
    10    5    6 ar  
    11    5    7 1   
    12    6   27 1   
    13    7    8 1   
    14    7   11 2   
    15    8    9 2   
    16    8   28 1   
    17    9   10 1   
    18    9   12 1   
    19   10   11 1   
    20   11   29 1   
    21   12   13 1   
    22   12   17 1   
    23   12   19 1   
    24   13   14 1   
    25   13   30 1   
    26   13   31 1   
    27   14   15 1   
    28   14   21 2   
    29   15   16 1   
    30   15   20 1   
    31   16   17 1   
    32   16   18 2   
    33   17   39 1   
    34   18   32 1   
    35   19   33 1   
    36   19   34 1   
    37   19   35 1   
    38   20   36 1   
    39   20   37 1   
    40   20   38 1   
    41   22   23 3   
@<TRIPOS>SUBSTRUCTURE
     1 13W         1 TEMP              0 ****  ****    0 ROOT
