@<TRIPOS>MOLECULE
13W
   39    33     1     0     0
SMALL
bcc


@<TRIPOS>ATOM
      1 C1          2.9750    2.9330   -3.5420 c1        1 13W     -0.115500
      2 C2          3.7260    3.8760   -2.8490 c1        1 13W     -0.091000
      3 C3          3.6950    3.9050   -1.4640 c1        1 13W     -0.014000
      4 C4          2.9140    2.9910   -0.7670 c1        1 13W     -0.083000
      5 C5          2.1640    2.0490   -1.4590 c1        1 13W     -0.015000
      6 C6          2.1950    2.0200   -2.8460 c1        1 13W     -0.115500
      7 C7          1.3950    0.9770   -0.6920 c2        1 13W     -0.069000
      8 C8         -0.1220    1.0820   -0.2070 c1        1 13W     -0.127000
      9 C9         -0.4780   -0.1660    0.4520 c1        1 13W     -0.442000
     10 S1          0.7650   -1.0960    0.4150 ss        1 13W      0.622000
     11 C10         1.9060   -0.3270   -0.3130 c1        1 13W     -0.438000
     12 C11        -1.8950   -0.5450    1.0000 c2        1 13W      0.119000
     13 C12        -1.7140   -1.0340    2.4290 c3        1 13W     -0.180000
     14 C13        -1.5530   -2.5370    2.5310 c2        1 13W      0.319000
     15 N1         -2.0710   -3.3920    1.4870 n         1 13W     -0.322000
     16 C14        -2.4100   -2.8350    0.2010 c1        1 13W      0.206000
     17 N2         -2.5070   -1.4230    0.0380 n2        1 13W     -0.255000
     18 N3         -2.6280   -3.6270   -0.8190 n1        1 13W     -0.332000
     19 C15        -2.7220    0.7200    1.0540 c3        1 13W     -0.207000
     20 C16        -2.1210   -4.8230    1.6890 c3        1 13W     -0.090000
     21 O1         -1.0460   -3.0260    3.5180 o         1 13W     -0.350000
     22 C17         4.4760    4.9630   -0.7110 c1        1 13W     -0.096000
     23 N4          5.0680    5.7640   -0.1410 n1        1 13W     -0.038000
     24 H1          2.9970    2.9130   -4.5150 ha        1 13W      0.143000
     25 H2          4.2750    4.5190   -3.3390 ha        1 13W      0.146000
     26 H3          2.8930    3.0110    0.2060 ha        1 13W      0.146000
     27 H4          1.6670    1.3560   -3.3340 ha        1 13W      0.143000
     28 H5         -0.7120    1.8540   -0.3310 DU        1 13W      0.165667
     29 H6          2.8080   -0.6640   -0.4840 DU        1 13W      0.165667
     30 H7         -2.4030   -0.7010    3.0440 hc        1 13W      0.131500
     31 H8         -0.8500   -0.6600    2.7080 hc        1 13W      0.131500
     32 H9         -2.5660   -4.5310   -0.7160 DU        1 13W      0.165667
     33 H11        -2.2030    1.4310    1.4760 hc        1 13W      0.091667
     34 H12        -3.5370    0.5570    1.5770 hc        1 13W      0.091667
     35 H13        -2.9670    0.9920    0.1420 hc        1 13W      0.091667
     36 H14        -2.7580   -5.2270    1.0410 h1        1 13W      0.096000
     37 H15        -2.4230   -5.0160    2.6130 h1        1 13W      0.096000
     38 H16        -1.2270   -5.2040    1.5490 h1        1 13W      0.096000
     39 H17        -3.0050   -1.0760   -0.6440 hn        1 13W      0.213000
@<TRIPOS>BOND
     1    1    6 1   
     2    1   24 1   
     3    2    3 1   
     4    2   25 1   
     5    3   22 1   
     6    4    5 1   
     7    4   26 1   
     8    5    7 1   
     9    6   27 1   
    10    7    8 1   
    11    7   11 1   
    12    8    9 1   
    13    9   10 1   
    14   10   11 1   
    15   12   13 1   
    16   12   17 1   
    17   12   19 1   
    18   13   14 1   
    19   13   30 1   
    20   13   31 1   
    21   14   15 1   
    22   14   21 1   
    23   15   16 1   
    24   15   20 1   
    25   16   18 1   
    26   17   39 1   
    27   19   33 1   
    28   19   34 1   
    29   19   35 1   
    30   20   36 1   
    31   20   37 1   
    32   20   38 1   
    33   22   23 1   
@<TRIPOS>SUBSTRUCTURE
     1 13W         1 TEMP              0 ****  ****    0 ROOT
