@<TRIPOS>MOLECULE
13W
   39    41     1     0     0
SMALL
bcc


@<TRIPOS>ATOM
      1 C1          0.1780    0.3830   -0.1050 ca        1 13W     -0.133000
      2 C2          1.5290    0.0450   -0.0620 ca        1 13W     -0.091000
      3 C3          2.1270   -0.2510    1.1710 ca        1 13W     -0.018000
      4 C4          1.3730   -0.2080    2.3500 ca        1 13W     -0.083000
      5 C5          0.0140    0.1330    2.3040 ca        1 13W     -0.013000
      6 C6         -0.5770    0.4280    1.0660 ca        1 13W     -0.097000
      7 C7         -0.7660    0.1810    3.5250 cc        1 13W     -0.069000
      8 C8         -2.1790   -0.0720    3.5760 cc        1 13W     -0.129000
      9 C9         -2.6770    0.0320    4.8600 cd        1 13W     -0.172400
     10 S1         -1.4520    0.4270    5.9460 ss        1 13W      0.066200
     11 C10        -0.2690    0.4690    4.7860 cd        1 13W     -0.163100
     12 C11        -4.1140   -0.1320    5.2740 c3        1 13W      0.283500
     13 C12        -4.1860   -0.8710    6.6270 c3        1 13W     -0.148400
     14 C13        -4.0580   -2.3720    6.5160 c         1 13W      0.714500
     15 N1         -4.2890   -2.9890    5.2850 n         1 13W     -0.432300
     16 C14        -4.6070   -2.2380    4.0980 c2        1 13W      0.652800
     17 N2         -4.9390   -0.8530    4.3010 nh        1 13W     -0.771200
     18 N3         -4.6740   -2.7220    2.8860 n2        1 13W     -0.868100
     19 C15        -4.6960    1.2830    5.4870 c3        1 13W     -0.092100
     20 C16        -4.2020   -4.4220    5.1730 c3        1 13W      0.065300
     21 O1         -3.7670   -3.0530    7.5170 o         1 13W     -0.624500
     22 C17         3.5050   -0.5970    1.2260 cg        1 13W      0.233800
     23 N4          4.6330   -0.8800    1.2710 n1        1 13W     -0.362800
     24 H1         -0.2960    0.6160   -1.0700 ha        1 13W      0.142000
     25 H2          2.1230    0.0100   -0.9870 ha        1 13W      0.146000
     26 H3          1.8460   -0.4490    3.3140 ha        1 13W      0.146000
     27 H4         -1.6420    0.7000    1.0190 ha        1 13W      0.141000
     28 H5         -2.7560   -0.3350    2.6850 ha        1 13W      0.165000
     29 H6          0.7710    0.7040    5.0100 h4        1 13W      0.179000
     30 H7         -3.3780   -0.4980    7.3110 hc        1 13W      0.090700
     31 H8         -5.1770   -0.6620    7.1150 hc        1 13W      0.090700
     32 H9         -4.5520   -3.7040    2.7830 hn        1 13W      0.406400
     33 H11        -4.6020    1.8890    4.5550 hc        1 13W      0.052367
     34 H12        -5.7720    1.2280    5.7770 hc        1 13W      0.052367
     35 H13        -4.1250    1.7870    6.3030 hc        1 13W      0.052367
     36 H14        -5.1570   -4.8380    4.7540 h1        1 13W      0.056700
     37 H15        -3.3470   -4.7100    4.5030 h1        1 13W      0.056700
     38 H16        -4.0270   -4.8710    6.1880 h1        1 13W      0.056700
     39 H17        -5.0160   -0.3510    3.4350 hn        1 13W      0.418800
@<TRIPOS>BOND
     1    1    2 ar  
     2    1    6 ar  
     3    1   24 1   
     4    2    3 ar  
     5    2   25 1   
     6    3    4 ar  
     7    3   22 1   
     8    4    5 ar  
     9    4   26 1   
    10    5    6 ar  
    11    5    7 1   
    12    6   27 1   
    13    7    8 1   
    14    7   11 2   
    15    8    9 2   
    16    8   28 1   
    17    9   10 1   
    18    9   12 1   
    19   10   11 1   
    20   11   29 1   
    21   12   13 1   
    22   12   17 1   
    23   12   19 1   
    24   13   14 1   
    25   13   30 1   
    26   13   31 1   
    27   14   15 1   
    28   14   21 2   
    29   15   16 1   
    30   15   20 1   
    31   16   17 1   
    32   16   18 2   
    33   17   39 1   
    34   18   32 1   
    35   19   33 1   
    36   19   34 1   
    37   19   35 1   
    38   20   36 1   
    39   20   37 1   
    40   20   38 1   
    41   22   23 3   
@<TRIPOS>SUBSTRUCTURE
     1 13W         1 TEMP              0 ****  ****    0 ROOT
