@<TRIPOS>MOLECULE
13W
   39    41     1     0     0
SMALL
bcc


@<TRIPOS>ATOM
      1 C1          0.1680    0.4180   -0.0770 ca        1 13W     -0.133000
      2 C2          1.5240    0.1050   -0.0180 ca        1 13W     -0.091000
      3 C3          2.1190   -0.1510    1.2260 ca        1 13W     -0.018000
      4 C4          1.3570   -0.0940    2.3990 ca        1 13W     -0.083000
      5 C5         -0.0080    0.2220    2.3360 ca        1 13W     -0.013000
      6 C6         -0.5950    0.4770    1.0870 ca        1 13W     -0.097000
      7 C7         -0.7970    0.2850    3.5500 cc        1 13W     -0.069000
      8 C8         -2.2060    0.0070    3.5980 cc        1 13W     -0.129000
      9 C9         -2.7140    0.1330    4.8750 cd        1 13W     -0.172400
     10 S1         -1.5040    0.5750    5.9610 ss        1 13W      0.065200
     11 C10        -0.3140    0.6110    4.8070 cd        1 13W     -0.163100
     12 C11        -4.1510   -0.0480    5.2860 c3        1 13W      0.283500
     13 C12        -4.2180   -0.7700    6.6480 c3        1 13W     -0.148400
     14 C13        -4.0660   -2.2700    6.5570 c         1 13W      0.714500
     15 N1         -4.2830   -2.9070    5.3330 n         1 13W     -0.432300
     16 C14        -4.6060   -2.1770    4.1350 c2        1 13W      0.652800
     17 N2         -4.9610   -0.7940    4.3180 nh        1 13W     -0.771200
     18 N3         -4.6600   -2.6770    2.9290 n2        1 13W     -0.868100
     19 C15        -4.7550    1.3610    5.4770 c3        1 13W     -0.092100
     20 C16        -4.1740   -4.3400    5.2400 c3        1 13W      0.065300
     21 O1         -3.7700   -2.9340    7.5670 o         1 13W     -0.624500
     22 C17         3.5020   -0.4720    1.2980 cg        1 13W      0.233800
     23 N4          4.6350   -0.7340    1.3560 n1        1 13W     -0.362800
     24 H1         -0.3030    0.6200   -1.0510 ha        1 13W      0.142000
     25 H2          2.1260    0.0580   -0.9380 ha        1 13W      0.146000
     26 H3          1.8270   -0.3040    3.3720 ha        1 13W      0.146000
     27 H4         -1.6650    0.7300    1.0280 ha        1 13W      0.141000
     28 H5         -2.7720   -0.2870    2.7100 ha        1 13W      0.165000
     29 H6          0.7210    0.8690    5.0330 h4        1 13W      0.179000
     30 H7         -5.2140   -0.5690    7.1290 hc        1 13W      0.090700
     31 H8         -3.4190   -0.3760    7.3300 hc        1 13W      0.090700
     32 H9         -4.5230   -3.6590    2.8390 hn        1 13W      0.406400
     33 H11        -4.1960    1.8840    6.2880 hc        1 13W      0.052367
     34 H12        -5.8320    1.2930    5.7630 hc        1 13W      0.052367
     35 H13        -4.6670    1.9560    4.5370 hc        1 13W      0.052367
     36 H14        -5.1210   -4.7750    4.8230 h1        1 13W      0.056700
     37 H15        -3.9980   -4.7730    6.2620 h1        1 13W      0.056700
     38 H16        -3.3120   -4.6240    4.5780 h1        1 13W      0.056700
     39 H17        -5.0410   -0.3050    3.4450 hn        1 13W      0.418800
@<TRIPOS>BOND
     1    1    2 ar  
     2    1    6 ar  
     3    1   24 1   
     4    2    3 ar  
     5    2   25 1   
     6    3    4 ar  
     7    3   22 1   
     8    4    5 ar  
     9    4   26 1   
    10    5    6 ar  
    11    5    7 1   
    12    6   27 1   
    13    7    8 1   
    14    7   11 2   
    15    8    9 2   
    16    8   28 1   
    17    9   10 1   
    18    9   12 1   
    19   10   11 1   
    20   11   29 1   
    21   12   13 1   
    22   12   17 1   
    23   12   19 1   
    24   13   14 1   
    25   13   30 1   
    26   13   31 1   
    27   14   15 1   
    28   14   21 2   
    29   15   16 1   
    30   15   20 1   
    31   16   17 1   
    32   16   18 2   
    33   17   39 1   
    34   18   32 1   
    35   19   33 1   
    36   19   34 1   
    37   19   35 1   
    38   20   36 1   
    39   20   37 1   
    40   20   38 1   
    41   22   23 3   
@<TRIPOS>SUBSTRUCTURE
     1 13W         1 TEMP              0 ****  ****    0 ROOT
