@<TRIPOS>MOLECULE
13X
   15    15     1     0     0
SMALL
bcc


@<TRIPOS>ATOM
      1 O9          0.0800    0.3120   -0.1980 oh        1 13X     -0.491433
      2 C4          1.4480    0.2410   -0.0880 ca        1 13X      0.193767
      3 C3          2.0970    0.2330    1.1530 ca        1 13X     -0.279000
      4 C2          3.4980    0.1570    1.1710 ca        1 13X      0.193767
      5 O8          4.2120    0.1440    2.3450 oh        1 13X     -0.491433
      6 C5          2.1620    0.1750   -1.2930 ca        1 13X     -0.279000
      7 C6          3.5600    0.1010   -1.2300 ca        1 13X      0.193767
      8 O7          4.3350    0.0330   -2.3630 oh        1 13X     -0.491433
      9 C1          4.2500    0.0900   -0.0090 ca        1 13X     -0.279000
     10 H1         -0.2920    0.3520    0.6960 ho        1 13X      0.422667
     11 H2          1.5250    0.2850    2.0870 ha        1 13X      0.153667
     12 H3          3.5820    0.1950    3.0800 ho        1 13X      0.422667
     13 H4          1.6270    0.1830   -2.2510 ha        1 13X      0.153667
     14 H5          3.7450    0.0480   -3.1320 ho        1 13X      0.422667
     15 H6          5.3450    0.0310    0.0210 ha        1 13X      0.153667
@<TRIPOS>BOND
     1    1    2 1   
     2    1   10 1   
     3    2    3 ar  
     4    2    6 ar  
     5    3    4 ar  
     6    3   11 1   
     7    4    5 1   
     8    4    9 ar  
     9    5   12 1   
    10    6    7 ar  
    11    6   13 1   
    12    7    8 1   
    13    7    9 ar  
    14    8   14 1   
    15    9   15 1   
@<TRIPOS>SUBSTRUCTURE
     1 13X         1 TEMP              0 ****  ****    0 ROOT
