@<TRIPOS>MOLECULE
13X
   15    11     1     0     0
SMALL
bcc


@<TRIPOS>ATOM
      1 O9         -2.7940   -0.0530   -0.0010 oh        1 13X     -0.244500
      2 C4         -1.3870   -0.0530   -0.0010 c1        1 13X      0.146000
      3 C3         -0.6940   -0.0530    1.2000 c1        1 13X     -0.250500
      4 C2          0.6920   -0.0530    1.2000 c1        1 13X      0.146000
      5 O8          1.3950   -0.0790    2.4180 oh        1 13X     -0.244500
      6 C5         -0.6940   -0.0530   -1.2010 c1        1 13X     -0.250500
      7 C6          0.6920   -0.0530   -1.2010 c1        1 13X      0.154000
      8 O7          1.3960   -0.0340   -2.4190 o         1 13X     -0.247000
      9 C1          1.3850   -0.0530   -0.0000 c1        1 13X     -0.336000
     10 H1         -3.0900    0.7840    0.0020 ho        1 13X      0.222000
     11 H2         -1.1820   -0.0770    2.0450 ha        1 13X      0.162000
     12 H3          1.5490    0.7520    2.6890 ho        1 13X      0.222000
     13 H4         -1.1820   -0.0550   -2.0460 ha        1 13X      0.162000
     14 H5          1.5500   -0.8670   -2.6850 ho        1 13X      0.221000
     15 H6          2.3610   -0.0530   -0.0000 ha        1 13X      0.137000
@<TRIPOS>BOND
     1    1    2 1   
     2    1   10 1   
     3    2    6 1   
     4    3    4 1   
     5    3   11 1   
     6    4    5 1   
     7    5   12 1   
     8    6   13 1   
     9    7    9 1   
    10    8   14 1   
    11    9   15 1   
@<TRIPOS>SUBSTRUCTURE
     1 13X         1 TEMP              0 ****  ****    0 ROOT
