@<TRIPOS>MOLECULE
13X
   15    15     1     0     0
SMALL
bcc


@<TRIPOS>ATOM
      1 O9          1.4010   -2.3650   -0.3230 oh        1 13X     -0.494100
      2 C4          0.6740   -1.2080   -0.1860 ca        1 13X      0.195100
      3 C3         -0.7180   -1.2180   -0.0390 ca        1 13X     -0.280000
      4 C2         -1.3800    0.0130    0.0950 ca        1 13X      0.195100
      5 O8         -2.7450   -0.0470    0.2370 oh        1 13X     -0.494100
      6 C5          1.4070   -0.0110   -0.2010 ca        1 13X     -0.280000
      7 C6          0.7090    1.1940   -0.0640 ca        1 13X      0.195100
      8 O7          1.3470    2.4110   -0.0690 oh        1 13X     -0.494100
      9 C1         -0.6860    1.2290    0.0850 ca        1 13X     -0.280000
     10 H1          0.7850   -3.1120   -0.2960 ho        1 13X      0.425000
     11 H2         -1.2910   -2.1540   -0.0270 ha        1 13X      0.154000
     12 H3         -3.0780    0.8600    0.3190 ho        1 13X      0.425000
     13 H4          2.4980   -0.0370   -0.3180 ha        1 13X      0.154000
     14 H5          2.2970    2.2520   -0.1770 ho        1 13X      0.425000
     15 H6         -1.2040    2.1900    0.1900 ha        1 13X      0.154000
@<TRIPOS>BOND
     1    1    2 1   
     2    1   10 1   
     3    2    3 ar  
     4    2    6 ar  
     5    3    4 ar  
     6    3   11 1   
     7    4    5 1   
     8    4    9 ar  
     9    5   12 1   
    10    6    7 ar  
    11    6   13 1   
    12    7    8 1   
    13    7    9 ar  
    14    8   14 1   
    15    9   15 1   
@<TRIPOS>SUBSTRUCTURE
     1 13X         1 TEMP              0 ****  ****    0 ROOT
