@<TRIPOS>MOLECULE
13Y
   68    71     1     0     0
SMALL
bcc


@<TRIPOS>ATOM
      1 C2          4.8560   -2.5160    2.0620 ca        1 13Y      0.018400
      2 C4          5.8520   -1.7980   -0.0110 ca        1 13Y     -0.117000
      3 C5          4.5930   -1.6850   -0.5940 ca        1 13Y     -0.139000
      4 C6          3.4620   -1.9880    0.1770 ca        1 13Y      0.122100
      5 CL1         5.0260   -3.0280    3.6840 cl        1 13Y     -0.137400
      6 C3          5.9960   -2.2100    1.3150 ca        1 13Y     -0.156000
      7 C7          3.5780   -2.4060    1.5110 ca        1 13Y     -0.152000
      8 O8          2.1790   -1.9890   -0.3650 os        1 13Y     -0.252200
      9 C9          1.7850   -0.7680   -0.9310 ca        1 13Y      0.083100
     10 C10         1.7770   -0.5820   -2.3190 ca        1 13Y     -0.089600
     11 C11         1.2220    0.6080   -2.8100 ca        1 13Y     -0.122000
     12 C12         0.7060    1.5760   -1.9560 ca        1 13Y     -0.121000
     13 C13         0.7270    1.3780   -0.5690 ca        1 13Y     -0.119300
     14 C14         1.2700    0.2010   -0.0550 ca        1 13Y     -0.150000
     15 C15         0.1570    2.4170    0.3710 c3        1 13Y      0.245800
     16 C16         1.0180    3.6910    0.3140 c3        1 13Y     -0.070400
     17 C17         2.4570    3.4250    0.7380 c3        1 13Y     -0.074700
     18 C18         3.3620    4.5130    0.1960 c3        1 13Y     -0.087100
     19 C19         2.5840    3.3460    2.2450 c3        1 13Y     -0.087100
     20 N20        -1.2660    2.6380    0.0530 n3        1 13Y     -0.734600
     21 C22        -1.8340    3.8810    0.5440 c3        1 13Y      0.171800
     22 C23        -3.2950    4.0650    0.1280 c3        1 13Y     -0.076400
     23 C24        -4.1480    2.8710    0.4950 c3        1 13Y     -0.097400
     24 C25        -3.5170    1.6040   -0.0980 c3        1 13Y      0.117700
     25 C26        -2.0620    1.4780    0.4330 c3        1 13Y      0.146800
     26 N27        -4.2970    0.3910    0.1410 n         1 13Y     -0.362000
     27 C28        -4.5190   -0.4930   -0.9060 cc        1 13Y      0.049600
     28 C29        -5.2070   -1.6610   -0.7580 cd        1 13Y     -0.262400
     29 C30        -5.7270   -2.0390    0.5660 c         1 13Y      0.718700
     30 O31        -6.4090   -3.0500    0.8120 o         1 13Y     -0.626500
     31 N32        -5.4190   -1.1650    1.6220 n         1 13Y     -0.588500
     32 C34        -4.6800    0.0190    1.4540 c         1 13Y      0.807500
     33 O35        -4.4080    0.7120    2.4600 o         1 13Y     -0.653500
     34 C36        -5.4330   -2.5980   -1.8750 c3        1 13Y     -0.030900
     35 C37         2.3270   -1.5810   -3.3340 c         1 13Y      0.922200
     36 O38         1.4980   -2.2800   -3.9710 o         1 13Y     -0.815300
     37 O39         3.5790   -1.6020   -3.5060 o         1 13Y     -0.815300
     38 H1          6.7470   -1.5700   -0.6100 ha        1 13Y      0.133000
     39 H2          4.4630   -1.3940   -1.6590 ha        1 13Y      0.227000
     40 H3          6.9950   -2.2980    1.7620 ha        1 13Y      0.130000
     41 H4          2.6780   -2.6550    2.0900 ha        1 13Y      0.150000
     42 H5          1.1980    0.7610   -3.9000 ha        1 13Y      0.140000
     43 H6          0.2710    2.4990   -2.3650 ha        1 13Y      0.122000
     44 H7          1.2950    0.0160    1.0290 ha        1 13Y      0.127000
     45 H8          0.2410    2.0180    1.4330 h1        1 13Y      0.024700
     46 H9          1.0050    4.0930   -0.7330 hc        1 13Y      0.040700
     47 H10         0.5930    4.4760    0.9940 hc        1 13Y      0.040700
     48 H11         2.7860    2.4380    0.3000 hc        1 13Y      0.079700
     49 H12         3.0400    5.5150    0.5680 hc        1 13Y      0.029867
     50 H13         4.4150    4.3350    0.5230 hc        1 13Y      0.029867
     51 H14         3.3350    4.5210   -0.9200 hc        1 13Y      0.029867
     52 H15         1.9450    2.5260    2.6510 hc        1 13Y      0.029867
     53 H16         3.6440    3.1400    2.5300 hc        1 13Y      0.029867
     54 H17         2.2720    4.3080    2.7200 hc        1 13Y      0.029867
     55 H19        -1.7670    3.9610    1.6690 h1        1 13Y      0.031200
     56 H20        -1.2470    4.7330    0.0990 h1        1 13Y      0.031200
     57 H21        -3.6930    4.9790    0.6400 hc        1 13Y      0.043200
     58 H22        -3.3480    4.2430   -0.9790 hc        1 13Y      0.043200
     59 H23        -4.2130    2.7800    1.6110 hc        1 13Y      0.060200
     60 H24        -5.1870    3.0090    0.0990 hc        1 13Y      0.060200
     61 H25        -3.4710    1.7360   -1.2230 h1        1 13Y      0.075700
     62 H26        -1.5760    0.5680   -0.0190 h1        1 13Y      0.060700
     63 H27        -2.1070    1.3390    1.5530 h1        1 13Y      0.060700
     64 H28        -4.1040   -0.1920   -1.8880 h4        1 13Y      0.175000
     65 H29        -5.6910   -1.3980    2.5520 hn        1 13Y      0.345500
     66 H30        -4.6870   -3.4320   -1.8320 hc        1 13Y      0.051700
     67 H31        -6.4570   -3.0440   -1.8020 hc        1 13Y      0.051700
     68 H32        -5.3310   -2.0820   -2.8620 hc        1 13Y      0.051700
@<TRIPOS>BOND
     1    1    5 1   
     2    1    6 ar  
     3    1    7 ar  
     4    2    3 ar  
     5    2    6 ar  
     6    2   38 1   
     7    3    4 ar  
     8    3   39 1   
     9    4    7 ar  
    10    4    8 1   
    11    6   40 1   
    12    7   41 1   
    13    8    9 1   
    14    9   10 ar  
    15    9   14 ar  
    16   10   11 ar  
    17   10   35 1   
    18   11   12 ar  
    19   11   42 1   
    20   12   13 ar  
    21   12   43 1   
    22   13   14 ar  
    23   13   15 1   
    24   14   44 1   
    25   15   16 1   
    26   15   20 1   
    27   15   45 1   
    28   16   17 1   
    29   16   46 1   
    30   16   47 1   
    31   17   18 1   
    32   17   19 1   
    33   17   48 1   
    34   18   49 1   
    35   18   50 1   
    36   18   51 1   
    37   19   52 1   
    38   19   53 1   
    39   19   54 1   
    40   20   21 1   
    41   20   25 1   
    42   21   22 1   
    43   21   55 1   
    44   21   56 1   
    45   22   23 1   
    46   22   57 1   
    47   22   58 1   
    48   23   24 1   
    49   23   59 1   
    50   23   60 1   
    51   24   25 1   
    52   24   26 1   
    53   24   61 1   
    54   25   62 1   
    55   25   63 1   
    56   26   27 1   
    57   26   32 1   
    58   27   28 2   
    59   27   64 1   
    60   28   29 1   
    61   28   34 1   
    62   29   30 2   
    63   29   31 1   
    64   31   32 1   
    65   31   65 1   
    66   32   33 2   
    67   34   66 1   
    68   34   67 1   
    69   34   68 1   
    70   35   36 1   
    71   35   37 1   
@<TRIPOS>SUBSTRUCTURE
     1 13Y         1 TEMP              0 ****  ****    0 ROOT
