@<TRIPOS>MOLECULE
13Y
   68    63     1     0     0
SMALL
bcc


@<TRIPOS>ATOM
      1 C2          3.3040    5.6500    0.2050 c1        1 13Y     -0.060000
      2 C4          2.4120    6.5180    2.2210 c1        1 13Y     -0.117000
      3 C5          1.2440    5.8250    1.9970 c1        1 13Y     -0.139000
      4 C6          1.1110    5.0450    0.8730 c1        1 13Y      0.077000
      5 CL1         4.6270    5.4910   -0.9030 cl        1 13Y     -0.060000
      6 C3          3.4380    6.4300    1.3280 c2        1 13Y     -0.156000
      7 C7          2.1320    4.9570   -0.0180 c1        1 13Y     -0.152000
      8 O8         -0.0780    4.3540    0.6400 os        1 13Y     -0.162000
      9 C9         -0.0590    3.1540    1.3310 c2        1 13Y      0.038000
     10 C10        -0.5230    3.1020    2.6260 c1        1 13Y     -0.067000
     11 C11        -0.6540    1.8830    3.2600 c1        1 13Y     -0.129500
     12 C12        -0.3240    0.7310    2.6050 c1        1 13Y     -0.129500
     13 C13         0.1370    0.7800    1.3180 c1        1 13Y     -0.103000
     14 C14         0.2700    1.9950    0.6780 c2        1 13Y     -0.131000
     15 C15         0.5120   -0.4560    0.6250 c2        1 13Y      0.042000
     16 C16         1.7040   -1.0910    1.3230 c3        1 13Y     -0.181000
     17 C17         3.0220   -0.5930    0.6410 c3        1 13Y     -0.110000
     18 C18         4.0250   -0.2020    1.7120 c3        1 13Y     -0.205000
     19 C19         3.6160   -1.7320   -0.2450 c3        1 13Y     -0.205000
     20 N20        -0.5960   -1.3710    0.6410 n3        1 13Y     -0.259000
     21 C22        -0.1750   -2.6270    1.2620 c3        1 13Y     -0.073000
     22 C23        -1.2300   -3.6940    1.1760 c3        1 13Y     -0.156000
     23 C24        -1.7220   -3.8810   -0.1990 c3        1 13Y     -0.175000
     24 C25        -2.1440   -2.6140   -0.8160 c3        1 13Y      0.037000
     25 C26        -1.0830   -1.5480   -0.7170 c3        1 13Y     -0.079000
     26 N27        -2.4500   -2.8610   -2.2520 n         1 13Y     -0.256000
     27 C28        -3.7650   -2.6040   -2.7580 c2        1 13Y      0.050000
     28 C29        -4.0650   -2.8540   -4.1920 c1        1 13Y     -0.251000
     29 C30        -2.9700   -3.2470   -5.1170 c1        1 13Y      0.357000
     30 O31        -3.2060   -3.4520   -6.2750 o         1 13Y     -0.352000
     31 N32        -1.6390   -3.4430   -4.6100 n2        1 13Y     -0.368000
     32 C34        -1.3610   -3.2600   -3.1800 c2        1 13Y      0.396000
     33 O35        -0.1900   -3.4170   -2.7440 o         1 13Y     -0.366000
     34 C36        -5.5390   -2.7510   -4.7170 c3        1 13Y     -0.148000
     35 C37        -1.1000    4.3510    3.2720 c2        1 13Y      0.370000
     36 O38        -0.3480    5.1220    3.9760 o         1 13Y     -0.550000
     37 O39        -2.3080    4.6240    3.1260 o         1 13Y     -0.550000
     38 H1          2.4860    7.1150    2.9920 ha        1 13Y      0.133000
     39 H2          0.5400    5.8840    2.6090 ha        1 13Y      0.227000
     40 H3          4.2870    6.9330    1.4900 ha        1 13Y      0.130000
     41 H4          2.0350    4.3890   -0.8340 ha        1 13Y      0.149000
     42 H5         -0.9900    1.8440    4.1800 ha        1 13Y      0.127000
     43 H6         -0.4140   -0.1020    3.0410 ha        1 13Y      0.127000
     44 H7          0.6060    2.0280   -0.2630 ha        1 13Y      0.128000
     45 H8          0.7470   -0.2520   -0.2840 h4        1 13Y      0.092000
     46 H9          1.7060   -0.8370    2.2610 hc        1 13Y      0.079000
     47 H10         1.6430   -2.0710    1.2490 hc        1 13Y      0.079000
     48 H11         2.8150    0.2200    0.0560 hc        1 13Y      0.116000
     49 H12         4.9280   -0.1560    1.3170 hc        1 13Y      0.068667
     50 H13         3.7870    0.6600    2.0760 hc        1 13Y      0.068667
     51 H14         4.0160   -0.8760    2.4330 hc        1 13Y      0.068667
     52 H15         4.4220   -1.3950   -0.7250 hc        1 13Y      0.068667
     53 H16         3.8680   -2.4960    0.3250 hc        1 13Y      0.068667
     54 H17         2.9190   -2.0310   -0.9220 hc        1 13Y      0.068667
     55 H19         0.6360   -2.9480    0.8110 h1        1 13Y      0.086000
     56 H20         0.0370   -2.4550    2.2320 h1        1 13Y      0.086000
     57 H21        -0.8440   -4.5540    1.5010 hc        1 13Y      0.089500
     58 H22        -2.0000   -3.4400    1.7670 hc        1 13Y      0.089500
     59 H23        -2.4980   -4.5080   -0.1850 hc        1 13Y      0.096000
     60 H24        -1.0330   -4.2580   -0.7190 hc        1 13Y      0.096000
     61 H25        -2.9310   -2.3050   -0.3810 h1        1 13Y      0.115000
     62 H26        -0.3270   -1.7960   -1.2950 h1        1 13Y      0.086000
     63 H27        -1.4600   -0.6920   -1.0330 h1        1 13Y      0.086000
     64 H28        -4.4860   -2.3450   -2.1430 h4        1 13Y      0.169000
     65 H29        -0.9740   -3.6830   -5.1710 hn        1 13Y      0.261000
     66 H30        -5.5500   -2.2610   -5.5710 hc        1 13Y      0.087333
     67 H31        -5.9020   -3.6570   -4.8530 hc        1 13Y      0.087333
     68 H32        -6.0930   -2.2700   -4.0530 hc        1 13Y      0.087333
@<TRIPOS>BOND
     1    1    6 1   
     2    1    7 1   
     3    2    6 1   
     4    2   38 1   
     5    3    4 1   
     6    3   39 1   
     7    4    8 1   
     8    6   40 1   
     9    7   41 1   
    10    8    9 1   
    11    9   10 1   
    12    9   14 1   
    13   10   35 1   
    14   11   12 1   
    15   11   42 1   
    16   12   43 1   
    17   13   14 1   
    18   14   44 1   
    19   15   16 1   
    20   15   20 1   
    21   15   45 1   
    22   16   17 1   
    23   16   46 1   
    24   16   47 1   
    25   17   18 1   
    26   17   19 1   
    27   17   48 1   
    28   18   49 1   
    29   18   50 1   
    30   18   51 1   
    31   19   52 1   
    32   19   53 1   
    33   19   54 1   
    34   20   21 1   
    35   20   25 1   
    36   21   22 1   
    37   21   55 1   
    38   21   56 1   
    39   22   23 1   
    40   22   57 1   
    41   22   58 1   
    42   23   24 1   
    43   23   59 1   
    44   23   60 1   
    45   24   25 1   
    46   24   26 1   
    47   24   61 1   
    48   25   62 1   
    49   25   63 1   
    50   26   27 1   
    51   26   32 1   
    52   27   28 1   
    53   27   64 1   
    54   28   34 1   
    55   29   30 1   
    56   31   32 1   
    57   31   65 1   
    58   32   33 1   
    59   34   66 1   
    60   34   67 1   
    61   34   68 1   
    62   35   36 1   
    63   35   37 1   
@<TRIPOS>SUBSTRUCTURE
     1 13Y         1 TEMP              0 ****  ****    0 ROOT
