@<TRIPOS>MOLECULE
13Y
   68    71     1     0     0
SMALL
bcc


@<TRIPOS>ATOM
      1 C2          1.1720    0.9890    0.3470 ca        1 13Y      0.018400
      2 C4          1.9440    1.0350    2.6300 ca        1 13Y     -0.117000
      3 C5          0.7080    0.5720    3.0720 ca        1 13Y     -0.139000
      4 C6         -0.2950    0.3130    2.1270 ca        1 13Y      0.122100
      5 CL1         1.4630    1.2500   -1.3170 cl        1 13Y     -0.137400
      6 C3          2.1880    1.2440    1.2710 ca        1 13Y     -0.156000
      7 C7         -0.0770    0.5170    0.7560 ca        1 13Y     -0.152000
      8 O8         -1.5830   -0.0600    2.5020 os        1 13Y     -0.252200
      9 C9         -1.6490   -1.2290    3.2740 ca        1 13Y      0.083100
     10 C10        -1.8550   -1.1720    4.6580 ca        1 13Y     -0.089600
     11 C11        -2.0660   -2.3830    5.3320 ca        1 13Y     -0.122000
     12 C12        -2.0630   -3.6000    4.6590 ca        1 13Y     -0.121000
     13 C13        -1.8500   -3.6400    3.2760 ca        1 13Y     -0.119300
     14 C14        -1.6420   -2.4490    2.5800 ca        1 13Y     -0.150000
     15 C15        -1.8570   -4.9560    2.5290 c3        1 13Y      0.245800
     16 C16        -0.6500   -5.8040    2.9660 c3        1 13Y     -0.070400
     17 C17         0.6720   -5.1090    2.6640 c3        1 13Y     -0.074700
     18 C18         1.7690   -5.6890    3.5350 c3        1 13Y     -0.087100
     19 C19         1.0460   -5.2400    1.2020 c3        1 13Y     -0.087100
     20 N20        -3.1600   -5.6210    2.7200 n3        1 13Y     -0.734600
     21 C22        -3.1820   -7.0480    2.4520 c3        1 13Y      0.171800
     22 C23        -4.5500   -7.6770    2.7260 c3        1 13Y     -0.076400
     23 C24        -5.6650   -6.9510    2.0070 c3        1 13Y     -0.097400
     24 C25        -5.6120   -5.4620    2.3750 c3        1 13Y      0.117700
     25 C26        -4.2090   -4.9090    2.0030 c3        1 13Y      0.146800
     26 N27        -6.6910   -4.6720    1.7850 n         1 13Y     -0.362000
     27 C28        -7.3840   -3.7670    2.5770 cc        1 13Y      0.049600
     28 C29        -8.3800   -2.9700    2.0960 cd        1 13Y     -0.262400
     29 C30        -8.7390   -3.0300    0.6690 c         1 13Y      0.718700
     30 O31        -9.6590   -2.3920    0.1280 o         1 13Y     -0.626500
     31 N32        -7.9670   -3.8960   -0.1240 n         1 13Y     -0.588500
     32 C34        -6.9220   -4.6860    0.3860 c         1 13Y      0.807500
     33 O35        -6.2530   -5.3910   -0.4030 o         1 13Y     -0.653500
     34 C36        -9.1090   -2.0070    2.9440 c3        1 13Y     -0.030900
     35 C37        -1.8670    0.1120    5.4840 c         1 13Y      0.922200
     36 O38        -2.9840    0.5590    5.8500 o         1 13Y     -0.815300
     37 O39        -0.7480    0.6130    5.7920 o         1 13Y     -0.815300
     38 H1          2.7350    1.2490    3.3640 ha        1 13Y      0.133000
     39 H2          0.4840    0.4350    4.1530 ha        1 13Y      0.227000
     40 H3          3.1670    1.6120    0.9350 ha        1 13Y      0.130000
     41 H4         -0.8830    0.3230    0.0360 ha        1 13Y      0.150000
     42 H5         -2.2420   -2.3510    6.4180 ha        1 13Y      0.140000
     43 H6         -2.2360   -4.5360    5.2090 ha        1 13Y      0.122000
     44 H7         -1.4770   -2.4510    1.4930 ha        1 13Y      0.127000
     45 H8         -1.7130   -4.7360    1.4220 h1        1 13Y      0.024700
     46 H9         -0.6550   -6.7900    2.4310 hc        1 13Y      0.040700
     47 H10        -0.7240   -6.0030    4.0670 hc        1 13Y      0.040700
     48 H11         0.5680   -4.0120    2.9080 hc        1 13Y      0.079700
     49 H12         1.5380   -5.5220    4.6140 hc        1 13Y      0.029867
     50 H13         2.7450   -5.2000    3.3020 hc        1 13Y      0.029867
     51 H14         1.8720   -6.7870    3.3590 hc        1 13Y      0.029867
     52 H15         2.0110   -4.7150    1.0040 hc        1 13Y      0.029867
     53 H16         0.2590   -4.7870    0.5530 hc        1 13Y      0.029867
     54 H17         1.1640   -6.3140    0.9190 hc        1 13Y      0.029867
     55 H19        -2.4390   -7.5430    3.1400 h1        1 13Y      0.031200
     56 H20        -2.8830   -7.2840    1.3890 h1        1 13Y      0.031200
     57 H21        -4.5200   -8.7440    2.3860 hc        1 13Y      0.043200
     58 H22        -4.7470   -7.6760    3.8300 hc        1 13Y      0.043200
     59 H23        -5.5470   -7.0770    0.8980 hc        1 13Y      0.060200
     60 H24        -6.6540   -7.3880    2.3000 hc        1 13Y      0.060200
     61 H25        -5.7370   -5.3800    3.4990 h1        1 13Y      0.075700
     62 H26        -4.0870   -4.9820    0.8820 h1        1 13Y      0.060700
     63 H27        -4.1450   -3.8220    2.2960 h1        1 13Y      0.060700
     64 H28        -7.0840   -3.7310    3.6430 h4        1 13Y      0.175000
     65 H29        -8.1210   -3.9340   -1.1080 hn        1 13Y      0.345500
     66 H30       -10.1900   -1.9810    2.6550 hc        1 13Y      0.051700
     67 H31        -9.0270   -2.2790    4.0250 hc        1 13Y      0.051700
     68 H32        -8.6880   -0.9790    2.8050 hc        1 13Y      0.051700
@<TRIPOS>BOND
     1    1    5 1   
     2    1    6 ar  
     3    1    7 ar  
     4    2    3 ar  
     5    2    6 ar  
     6    2   38 1   
     7    3    4 ar  
     8    3   39 1   
     9    4    7 ar  
    10    4    8 1   
    11    6   40 1   
    12    7   41 1   
    13    8    9 1   
    14    9   10 ar  
    15    9   14 ar  
    16   10   11 ar  
    17   10   35 1   
    18   11   12 ar  
    19   11   42 1   
    20   12   13 ar  
    21   12   43 1   
    22   13   14 ar  
    23   13   15 1   
    24   14   44 1   
    25   15   16 1   
    26   15   20 1   
    27   15   45 1   
    28   16   17 1   
    29   16   46 1   
    30   16   47 1   
    31   17   18 1   
    32   17   19 1   
    33   17   48 1   
    34   18   49 1   
    35   18   50 1   
    36   18   51 1   
    37   19   52 1   
    38   19   53 1   
    39   19   54 1   
    40   20   21 1   
    41   20   25 1   
    42   21   22 1   
    43   21   55 1   
    44   21   56 1   
    45   22   23 1   
    46   22   57 1   
    47   22   58 1   
    48   23   24 1   
    49   23   59 1   
    50   23   60 1   
    51   24   25 1   
    52   24   26 1   
    53   24   61 1   
    54   25   62 1   
    55   25   63 1   
    56   26   27 1   
    57   26   32 1   
    58   27   28 2   
    59   27   64 1   
    60   28   29 1   
    61   28   34 1   
    62   29   30 2   
    63   29   31 1   
    64   31   32 1   
    65   31   65 1   
    66   32   33 2   
    67   34   66 1   
    68   34   67 1   
    69   34   68 1   
    70   35   36 1   
    71   35   37 1   
@<TRIPOS>SUBSTRUCTURE
     1 13Y         1 TEMP              0 ****  ****    0 ROOT
