@<TRIPOS>MOLECULE
13Y
   68    71     1     0     0
SMALL
bcc


@<TRIPOS>ATOM
      1 C2          1.1670    1.0070    0.3740 ca        1 13Y      0.018400
      2 C4          1.9450    1.0330    2.6550 ca        1 13Y     -0.117000
      3 C5          0.7100    0.5670    3.0960 ca        1 13Y     -0.139000
      4 C6         -0.2950    0.3160    2.1510 ca        1 13Y      0.122100
      5 CL1         1.4540    1.2830   -1.2880 cl        1 13Y     -0.137400
      6 C3          2.1850    1.2540    1.2970 ca        1 13Y     -0.156000
      7 C7         -0.0810    0.5320    0.7820 ca        1 13Y     -0.152000
      8 O8         -1.5830   -0.0600    2.5260 os        1 13Y     -0.252200
      9 C9         -1.6470   -1.2350    3.2900 ca        1 13Y      0.083100
     10 C10        -1.8490   -1.1890    4.6750 ca        1 13Y     -0.089600
     11 C11        -2.0590   -2.4050    5.3400 ca        1 13Y     -0.122000
     12 C12        -2.0580   -3.6160    4.6570 ca        1 13Y     -0.121000
     13 C13        -1.8490   -3.6460    3.2730 ca        1 13Y     -0.119300
     14 C14        -1.6420   -2.4500    2.5860 ca        1 13Y     -0.150000
     15 C15        -1.8590   -4.9560    2.5160 c3        1 13Y      0.245800
     16 C16        -0.6520   -5.8080    2.9430 c3        1 13Y     -0.070400
     17 C17         0.6700   -5.1120    2.6420 c3        1 13Y     -0.074700
     18 C18         1.7690   -5.6990    3.5060 c3        1 13Y     -0.087100
     19 C19         1.0390   -5.2340    1.1780 c3        1 13Y     -0.087100
     20 N20        -3.1620   -5.6220    2.7050 n3        1 13Y     -0.734600
     21 C22        -3.1860   -7.0470    2.4290 c3        1 13Y      0.171800
     22 C23        -4.5530   -7.6760    2.7020 c3        1 13Y     -0.076400
     23 C24        -5.6700   -6.9460    1.9900 c3        1 13Y     -0.097400
     24 C25        -5.6150   -5.4580    2.3660 c3        1 13Y      0.117700
     25 C26        -4.2120   -4.9040    1.9940 c3        1 13Y      0.146800
     26 N27        -6.6940   -4.6640    1.7830 n         1 13Y     -0.362000
     27 C28        -7.3840   -3.7630    2.5810 cc        1 13Y      0.049600
     28 C29        -8.3800   -2.9620    2.1070 cd        1 13Y     -0.262400
     29 C30        -8.7420   -3.0140    0.6810 c         1 13Y      0.718700
     30 O31        -9.6620   -2.3710    0.1450 o         1 13Y     -0.626500
     31 N32        -7.9730   -3.8760   -0.1190 n         1 13Y     -0.588500
     32 C34        -6.9290   -4.6700    0.3840 c         1 13Y      0.807500
     33 O35        -6.2620   -5.3710   -0.4100 o         1 13Y     -0.653500
     34 C36        -9.1050   -2.0020    2.9620 c3        1 13Y     -0.030900
     35 C37        -1.8580    0.0890    5.5110 c         1 13Y      0.922200
     36 O38        -2.9740    0.5340    5.8830 o         1 13Y     -0.815300
     37 O39        -0.7380    0.5860    5.8200 o         1 13Y     -0.815300
     38 H1          2.7380    1.2410    3.3880 ha        1 13Y      0.133000
     39 H2          0.4890    0.4200    4.1760 ha        1 13Y      0.226000
     40 H3          3.1630    1.6250    0.9610 ha        1 13Y      0.130000
     41 H4         -0.8890    0.3440    0.0620 ha        1 13Y      0.150000
     42 H5         -2.2320   -2.3810    6.4270 ha        1 13Y      0.140000
     43 H6         -2.2310   -4.5570    5.2000 ha        1 13Y      0.122000
     44 H7         -1.4800   -2.4430    1.4990 ha        1 13Y      0.127000
     45 H8         -1.7180   -4.7270    1.4110 h1        1 13Y      0.024700
     46 H9         -0.6590   -6.7900    2.4020 hc        1 13Y      0.040700
     47 H10        -0.7230   -6.0150    4.0430 hc        1 13Y      0.040700
     48 H11         0.5670   -4.0160    2.8940 hc        1 13Y      0.079700
     49 H12         2.7440   -5.2080    3.2730 hc        1 13Y      0.029867
     50 H13         1.5420   -5.5380    4.5870 hc        1 13Y      0.029867
     51 H14         1.8700   -6.7950    3.3220 hc        1 13Y      0.029867
     52 H15         1.1560   -6.3060    0.8870 hc        1 13Y      0.029867
     53 H16         2.0040   -4.7080    0.9800 hc        1 13Y      0.029867
     54 H17         0.2500   -4.7760    0.5340 hc        1 13Y      0.029867
     55 H19        -2.8890   -7.2770    1.3640 h1        1 13Y      0.031200
     56 H20        -2.4420   -7.5460    3.1130 h1        1 13Y      0.031200
     57 H21        -4.5250   -8.7420    2.3560 hc        1 13Y      0.043200
     58 H22        -4.7480   -7.6820    3.8070 hc        1 13Y      0.043200
     59 H23        -6.6590   -7.3840    2.2820 hc        1 13Y      0.060200
     60 H24        -5.5540   -7.0650    0.8800 hc        1 13Y      0.060200
     61 H25        -5.7370   -5.3830    3.4910 h1        1 13Y      0.075700
     62 H26        -4.0920   -4.9710    0.8730 h1        1 13Y      0.060700
     63 H27        -4.1470   -3.8190    2.2940 h1        1 13Y      0.060700
     64 H28        -7.0820   -3.7320    3.6470 h4        1 13Y      0.175000
     65 H29        -8.1310   -3.9090   -1.1020 hn        1 13Y      0.345500
     66 H30        -9.0230   -2.2810    4.0410 hc        1 13Y      0.051700
     67 H31       -10.1860   -1.9710    2.6740 hc        1 13Y      0.051700
     68 H32        -8.6810   -0.9740    2.8290 hc        1 13Y      0.051700
@<TRIPOS>BOND
     1    1    5 1   
     2    1    6 ar  
     3    1    7 ar  
     4    2    3 ar  
     5    2    6 ar  
     6    2   38 1   
     7    3    4 ar  
     8    3   39 1   
     9    4    7 ar  
    10    4    8 1   
    11    6   40 1   
    12    7   41 1   
    13    8    9 1   
    14    9   10 ar  
    15    9   14 ar  
    16   10   11 ar  
    17   10   35 1   
    18   11   12 ar  
    19   11   42 1   
    20   12   13 ar  
    21   12   43 1   
    22   13   14 ar  
    23   13   15 1   
    24   14   44 1   
    25   15   16 1   
    26   15   20 1   
    27   15   45 1   
    28   16   17 1   
    29   16   46 1   
    30   16   47 1   
    31   17   18 1   
    32   17   19 1   
    33   17   48 1   
    34   18   49 1   
    35   18   50 1   
    36   18   51 1   
    37   19   52 1   
    38   19   53 1   
    39   19   54 1   
    40   20   21 1   
    41   20   25 1   
    42   21   22 1   
    43   21   55 1   
    44   21   56 1   
    45   22   23 1   
    46   22   57 1   
    47   22   58 1   
    48   23   24 1   
    49   23   59 1   
    50   23   60 1   
    51   24   25 1   
    52   24   26 1   
    53   24   61 1   
    54   25   62 1   
    55   25   63 1   
    56   26   27 1   
    57   26   32 1   
    58   27   28 2   
    59   27   64 1   
    60   28   29 1   
    61   28   34 1   
    62   29   30 2   
    63   29   31 1   
    64   31   32 1   
    65   31   65 1   
    66   32   33 2   
    67   34   66 1   
    68   34   67 1   
    69   34   68 1   
    70   35   36 1   
    71   35   37 1   
@<TRIPOS>SUBSTRUCTURE
     1 13Y         1 TEMP              0 ****  ****    0 ROOT
