@<TRIPOS>MOLECULE
13Y
   68    71     1     0     0
SMALL
bcc


@<TRIPOS>ATOM
      1 C2          1.1380    1.0120    0.3360 ca        1 13Y      0.018400
      2 C4          1.9140    1.0650    2.6160 ca        1 13Y     -0.117000
      3 C5          0.6820    0.5940    3.0620 ca        1 13Y     -0.139000
      4 C6         -0.3210    0.3280    2.1190 ca        1 13Y      0.122100
      5 Cl1         1.4230    1.2750   -1.3290 cl        1 13Y     -0.137400
      6 C3          2.1540    1.2760    1.2570 ca        1 13Y     -0.156000
      7 C7         -0.1070    0.5330    0.7480 ca        1 13Y     -0.152000
      8 O8         -1.6050   -0.0530    2.4970 os        1 13Y     -0.252200
      9 C9         -1.6620   -1.2220    3.2710 ca        1 13Y      0.083100
     10 C10        -1.8640   -1.1650    4.6550 ca        1 13Y     -0.089600
     11 C11        -2.0660   -2.3770    5.3310 ca        1 13Y     -0.122000
     12 C12        -2.0570   -3.5940    4.6590 ca        1 13Y     -0.121000
     13 C13        -1.8470   -3.6340    3.2750 ca        1 13Y     -0.119300
     14 C14        -1.6480   -2.4430    2.5780 ca        1 13Y     -0.150000
     15 C15        -1.8480   -4.9510    2.5290 c3        1 13Y      0.245800
     16 C16        -0.6350   -5.7910    2.9650 c3        1 13Y     -0.070400
     17 C17         0.6830   -5.0880    2.6600 c3        1 13Y     -0.074700
     18 C18         1.7840   -5.6600    3.5290 c3        1 13Y     -0.087100
     19 C19         1.0540   -5.2190    1.1970 c3        1 13Y     -0.087100
     20 N20        -3.1460   -5.6240    2.7230 n3        1 13Y     -0.734600
     21 C22        -3.1590   -7.0510    2.4590 c3        1 13Y      0.171800
     22 C23        -4.5230   -7.6880    2.7360 c3        1 13Y     -0.076400
     23 C24        -5.6440   -6.9700    2.0180 c3        1 13Y     -0.097400
     24 C25        -5.6000   -5.4800    2.3830 c3        1 13Y      0.117700
     25 C26        -4.2010   -4.9190    2.0070 c3        1 13Y      0.146800
     26 N27        -6.6840   -4.6970    1.7930 n         1 13Y     -0.362000
     27 C28        -7.3820   -3.7960    2.5840 cc        1 13Y      0.049600
     28 C29        -8.3830   -3.0050    2.1030 cd        1 13Y     -0.262400
     29 C30        -8.7440   -3.0700    0.6780 c         1 13Y      0.718700
     30 O31        -9.6680   -2.4380    0.1360 o         1 13Y     -0.626500
     31 N32        -7.9680   -3.9330   -0.1150 ns        1 13Y     -0.588500
     32 C34        -6.9180   -4.7160    0.3940 c         1 13Y      0.807500
     33 O35        -6.2450   -5.4180   -0.3940 o         1 13Y     -0.653500
     34 C36        -9.1160   -2.0450    2.9510 c3        1 13Y     -0.030900
     35 C37        -1.8830    0.1200    5.4800 c         1 13Y      0.922200
     36 O38        -3.0020    0.5600    5.8490 o         1 13Y     -0.815300
     37 O39        -0.7660    0.6280    5.7850 o         1 13Y     -0.815300
     38 H1          2.7060    1.2850    3.3480 ha        1 13Y      0.133000
     39 H2          0.4620    0.4570    4.1430 ha        1 13Y      0.227000
     40 H3          3.1290    1.6490    0.9170 ha        1 13Y      0.130000
     41 H4         -0.9140    0.3330    0.0290 ha        1 13Y      0.150000
     42 H5         -2.2400   -2.3450    6.4180 ha        1 13Y      0.140000
     43 H6         -2.2230   -4.5310    5.2100 ha        1 13Y      0.122000
     44 H7         -1.4860   -2.4440    1.4910 ha        1 13Y      0.127000
     45 H8         -1.7070   -4.7300    1.4220 h1        1 13Y      0.024700
     46 H9         -0.6350   -6.7770    2.4310 hc        1 13Y      0.040700
     47 H10        -0.7050   -5.9890    4.0660 hc        1 13Y      0.040700
     48 H11         0.5720   -3.9910    2.9030 hc        1 13Y      0.079700
     49 H12         1.8940   -6.7580    3.3540 hc        1 13Y      0.029867
     50 H13         1.5550   -5.4930    4.6090 hc        1 13Y      0.029867
     51 H14         2.7570   -5.1650    3.2930 hc        1 13Y      0.029867
     52 H15         0.2630   -4.7710    0.5490 hc        1 13Y      0.029867
     53 H16         1.1780   -6.2920    0.9140 hc        1 13Y      0.029867
     54 H17         2.0160   -4.6870    0.9960 hc        1 13Y      0.029867
     55 H19        -2.8610   -7.2870    1.3950 h1        1 13Y      0.031200
     56 H20        -2.4130   -7.5400    3.1470 h1        1 13Y      0.031200
     57 H21        -4.4870   -8.7560    2.3980 hc        1 13Y      0.043200
     58 H22        -4.7180   -7.6860    3.8410 hc        1 13Y      0.043200
     59 H23        -5.5270   -7.0970    0.9090 hc        1 13Y      0.060200
     60 H24        -6.6300   -7.4130    2.3130 hc        1 13Y      0.060200
     61 H25        -5.7230   -5.3970    3.5060 h1        1 13Y      0.075700
     62 H26        -4.0800   -4.9940    0.8860 h1        1 13Y      0.060700
     63 H27        -4.1430   -3.8310    2.2980 h1        1 13Y      0.060700
     64 H28        -7.0800   -3.7550    3.6500 h4        1 13Y      0.175000
     65 H29        -8.1240   -3.9740   -1.0990 hn        1 13Y      0.345500
     66 H30       -10.1980   -2.0260    2.6630 hc        1 13Y      0.051700
     67 H31        -9.0310   -2.3140    4.0320 hc        1 13Y      0.051700
     68 H32        -8.7020   -1.0150    2.8090 hc        1 13Y      0.051700
@<TRIPOS>BOND
     1    1    5 1   
     2    1    6 ar  
     3    1    7 ar  
     4    2    3 ar  
     5    2    6 ar  
     6    2   38 1   
     7    3    4 ar  
     8    3   39 1   
     9    4    7 ar  
    10    4    8 1   
    11    6   40 1   
    12    7   41 1   
    13    8    9 1   
    14    9   10 ar  
    15    9   14 ar  
    16   10   11 ar  
    17   10   35 1   
    18   11   12 ar  
    19   11   42 1   
    20   12   13 ar  
    21   12   43 1   
    22   13   14 ar  
    23   13   15 1   
    24   14   44 1   
    25   15   16 1   
    26   15   20 1   
    27   15   45 1   
    28   16   17 1   
    29   16   46 1   
    30   16   47 1   
    31   17   18 1   
    32   17   19 1   
    33   17   48 1   
    34   18   49 1   
    35   18   50 1   
    36   18   51 1   
    37   19   52 1   
    38   19   53 1   
    39   19   54 1   
    40   20   21 1   
    41   20   25 1   
    42   21   22 1   
    43   21   55 1   
    44   21   56 1   
    45   22   23 1   
    46   22   57 1   
    47   22   58 1   
    48   23   24 1   
    49   23   59 1   
    50   23   60 1   
    51   24   25 1   
    52   24   26 1   
    53   24   61 1   
    54   25   62 1   
    55   25   63 1   
    56   26   27 1   
    57   26   32 1   
    58   27   28 2   
    59   27   64 1   
    60   28   29 1   
    61   28   34 1   
    62   29   30 2   
    63   29   31 1   
    64   31   32 1   
    65   31   65 1   
    66   32   33 2   
    67   34   66 1   
    68   34   67 1   
    69   34   68 1   
    70   35   36 1   
    71   35   37 1   
@<TRIPOS>SUBSTRUCTURE
     1 13Y         1 TEMP              0 ****  ****    0 ROOT
