@<TRIPOS>MOLECULE
13Z
   56    53     1     0     0
SMALL
bcc


@<TRIPOS>ATOM
      1 C1         -1.1240   -0.5170   -2.1120 c2        1 13Z     -0.196000
      2 C2         -1.7330   -0.8230   -3.2540 c2        1 13Z     -0.158000
      3 C3          0.5500    1.2150    0.8550 c1        1 13Z      0.049000
      4 C4          0.1330   -0.7510    2.8950 c2        1 13Z      0.059000
      5 C6         -2.5650   -2.6090    4.7840 c3        1 13Z     -0.005000
      6 C7          0.1280   -1.2010   -1.6530 c3        1 13Z      0.155000
      7 N1         -0.9940   -1.0670    3.4590 ns        1 13Z     -0.219000
      8 N2         -0.4880   -2.2130    0.6690 n2        1 13Z     -0.140000
      9 N3         -0.7350   -3.4400    1.1090 n2        1 13Z     -0.134000
     10 N4         -3.4010   -1.5770    5.3420 n7        1 13Z     -0.294000
     11 C8         -0.2040   -2.2610   -0.6440 c2        1 13Z     -0.061000
     12 F1          1.7800    1.4360    0.5520 f         1 13Z     -0.031000
     13 O1         -0.1310   -2.7670    4.7710 o         1 13Z     -0.241000
     14 O2          0.9480   -0.2130   -1.0390 oh        1 13Z     -0.345000
     15 C9         -0.6150   -4.3080    0.0850 c2        1 13Z      0.024000
     16 O3         -0.2690   -3.5910   -1.0750 os        1 13Z     -0.116000
     17 C12        -1.1270   -6.3800    1.3270 c3        1 13Z     -0.212333
     18 C14        -1.8760   -6.0930   -1.0350 c3        1 13Z     -0.212333
     19 C16         0.5490   -6.3850   -0.5200 c3        1 13Z     -0.212333
     20 C11        -4.1990   -0.7650    4.4630 c3        1 13Z     -0.159000
     21 C13        -1.1220   -0.8880    7.8290 c3        1 13Z     -0.277000
     22 C15        -3.4470    0.0010    3.4300 c1        1 13Z     -0.077000
     23 C17        -3.1680   -3.3770    3.6110 c3        1 13Z     -0.225000
     24 O4         -3.9690    0.9220    2.7080 oh        1 13Z     -0.098000
     25 H1         -1.9040   -0.5230    3.2520 hn        1 13Z      0.339000
     26 H2         -1.3690   -1.5980   -3.9430 ha        1 13Z      0.132000
     27 H2A        -1.4880    0.2720   -1.4360 ha        1 13Z      0.141000
     28 H3         -2.6490   -0.3080   -3.5780 ha        1 13Z      0.132000
     29 H4          0.2200    0.1280    2.1350 h4        1 13Z      0.219000
     30 H4A        -0.1720    1.7000    0.1550 ha        1 13Z      0.057000
     31 H6          1.0500   -1.3410    3.1150 h4        1 13Z      0.219000
     32 H6A        -3.3080   -2.7180    2.7210 hc        1 13Z      0.104000
     33 H7          0.6740   -1.6860   -2.5130 h1        1 13Z      0.128000
     34 HN4        -2.3940   -3.3420    5.6400 h1        1 13Z      0.159000
     35 HO2         1.8510   -0.5570   -1.0090 ho        1 13Z      0.231000
     36 H12        -2.0840   -5.9460    1.7050 hc        1 13Z      0.093222
     37 H12A       -0.3200   -6.1740    2.0710 hc        1 13Z      0.093222
     38 H12B       -1.2490   -7.4860    1.2280 hc        1 13Z      0.093222
     39 H14        -1.9760   -7.1980   -1.1570 hc        1 13Z      0.093222
     40 H14A       -1.6330   -5.6420   -2.0270 hc        1 13Z      0.093222
     41 H14B       -2.8510   -5.6820   -0.6790 hc        1 13Z      0.093222
     42 H16         0.4360   -7.4890   -0.6390 hc        1 13Z      0.093222
     43 H16A        0.8310   -5.9420   -1.5050 hc        1 13Z      0.093222
     44 H16B        1.3650   -6.1860    0.2160 hc        1 13Z      0.093222
     45 H13        -0.8310   -1.5450    6.9780 hc        1 13Z      0.069750
     46 H13A       -1.2790    0.1510    7.4670 hc        1 13Z      0.069750
     47 H13B       -2.0580   -1.2690    8.2930 hc        1 13Z      0.069750
     48 H15        -0.3090   -0.8930    8.5880 hc        1 13Z      0.069750
     49 H15A       -4.8160   -0.0710    5.1110 h1        1 13Z      0.140500
     50 H17        -4.9290   -1.4450    3.9210 h1        1 13Z      0.140500
     51 H17A       -2.4810   -4.2140    3.3290 hc        1 13Z      0.104000
     52 H17B       -4.1560   -3.8090    3.9050 hc        1 13Z      0.104000
     53 HO4        -4.9190    1.1190    2.8860 ho        1 13Z      0.205000
     54 C5         -1.1380   -2.1850    4.3670 c2        1 13Z      0.233000
     55 C10        -0.7690   -5.7920   -0.0310 c3        1 13Z      0.022000
     56 H42        -2.9100   -1.0330    6.0280 hn        1 13Z      0.199000
@<TRIPOS>BOND
     1    1    2 1   
     2    1    6 1   
     3    1   27 1   
     4    2   26 1   
     5    2   28 1   
     6    3   12 1   
     7    3   30 1   
     8    4    7 1   
     9    4   29 1   
    10    4   31 1   
    11    5   10 1   
    12    5   23 1   
    13    5   34 1   
    14    5   54 1   
    15    6   11 1   
    16    6   14 1   
    17    6   33 1   
    18    7   25 1   
    19    7   54 1   
    20    8    9 1   
    21    8   11 1   
    22    9   15 1   
    23   10   20 1   
    24   10   56 1   
    25   11   16 1   
    26   13   54 1   
    27   14   35 1   
    28   15   16 1   
    29   15   55 1   
    30   17   36 1   
    31   17   37 1   
    32   17   38 1   
    33   17   55 1   
    34   18   39 1   
    35   18   40 1   
    36   18   41 1   
    37   18   55 1   
    38   19   42 1   
    39   19   43 1   
    40   19   44 1   
    41   19   55 1   
    42   20   22 1   
    43   20   49 1   
    44   20   50 1   
    45   21   45 1   
    46   21   46 1   
    47   21   47 1   
    48   21   48 1   
    49   22   24 1   
    50   23   32 1   
    51   23   51 1   
    52   23   52 1   
    53   24   53 1   
@<TRIPOS>SUBSTRUCTURE
     1 13Z         1 TEMP              0 ****  ****    0 ROOT
