@<TRIPOS>MOLECULE
13Z
   55    56     1     0     0
SMALL
bcc


@<TRIPOS>ATOM
      1 C1          0.8910    2.0050   -0.5370 c3        1 13Z      0.085700
      2 C2          1.9360    2.6770    0.3730 c3        1 13Z     -0.131400
      3 C3          1.5410    2.3430    1.8270 c3        1 13Z      0.168600
      4 C4          0.3320    1.3650    1.7190 c3        1 13Z      0.064000
      5 C6         -2.0230   -0.1390    0.8540 c3        1 13Z      0.109800
      6 C7          1.5320    1.1660   -1.6770 c3        1 13Z      0.114800
      7 N1          0.0020    1.2340    0.3200 n         1 13Z     -0.476800
      8 N2          3.6480   -0.1250   -0.8730 nc        1 13Z     -0.354000
      9 N3          3.8670   -1.3700   -0.4770 nc        1 13Z     -0.346000
     10 N4         -3.2740   -0.6360    0.3480 n3        1 13Z     -0.803200
     11 C8          2.3410    0.0230   -1.1630 cd        1 13Z      0.416700
     12 F1          2.5800    1.7740    2.5350 f         1 13Z     -0.225300
     13 O1         -1.4530    0.7140   -1.3580 o         1 13Z     -0.615100
     14 O2          2.2890    1.9990   -2.5230 oh        1 13Z     -0.566800
     15 C9          2.7050   -2.0520   -0.5030 cd        1 13Z      0.464700
     16 O3          1.6820   -1.1940   -0.9440 os        1 13Z     -0.378800
     17 C12         1.3240   -3.4410    0.9770 c3        1 13Z     -0.091767
     18 C14         1.7060   -4.1090   -1.3970 c3        1 13Z     -0.091767
     19 C16         3.5720   -4.2370    0.2510 c3        1 13Z     -0.091767
     20 C11        -4.4360    0.2610    0.4850 c3        1 13Z      0.180200
     21 C13        -4.2170    1.6610   -0.1040 c3        1 13Z     -0.104600
     22 C15        -5.6310   -0.3890   -0.2740 c3        1 13Z      0.132400
     23 C17        -4.8500    0.4140    1.9550 c3        1 13Z     -0.104600
     24 O4         -6.7570    0.4570   -0.0980 oh        1 13Z     -0.601800
     25 H1          0.2840    2.7980   -1.0720 h1        1 13Z      0.081700
     26 H2          2.9670    2.2990    0.1620 hc        1 13Z      0.079200
     27 H2A         1.9270    3.7820    0.2140 hc        1 13Z      0.079200
     28 H3          1.2220    3.2760    2.3700 h1        1 13Z      0.064700
     29 H4          0.6020    0.3620    2.1520 h1        1 13Z      0.058700
     30 H4A        -0.5400    1.7800    2.2960 h1        1 13Z      0.058700
     31 H6         -1.4120   -1.0410    1.1550 h1        1 13Z      0.075200
     32 H6A        -2.2000    0.4910    1.7700 h1        1 13Z      0.075200
     33 H7          0.7040    0.7620   -2.3400 h1        1 13Z      0.136700
     34 HN4        -3.1710   -0.8990   -0.6190 hn        1 13Z      0.380800
     35 HO2         3.0470    2.3360   -2.0250 ho        1 13Z      0.415000
     36 H12         0.4250   -2.8430    0.6910 hc        1 13Z      0.048478
     37 H12A        1.0040   -4.4850    1.2100 hc        1 13Z      0.048478
     38 H12B        1.7810   -2.9930    1.8910 hc        1 13Z      0.048478
     39 H14         2.4420   -4.1440   -2.2350 hc        1 13Z      0.048478
     40 H14A        1.3930   -5.1520   -1.1490 hc        1 13Z      0.048478
     41 H14B        0.8100   -3.5300   -1.7260 hc        1 13Z      0.048478
     42 H16         4.0420   -3.7710    1.1500 hc        1 13Z      0.048478
     43 H16A        3.2840   -5.2870    0.4980 hc        1 13Z      0.048478
     44 H16B        4.3220   -4.2540   -0.5760 hc        1 13Z      0.048478
     45 H13        -3.8750    1.5930   -1.1650 hc        1 13Z      0.045533
     46 H13A       -5.1760    2.2310   -0.0660 hc        1 13Z      0.045533
     47 H13B       -3.4440    2.2130    0.4820 hc        1 13Z      0.045533
     48 H15        -5.3940   -0.4760   -1.3680 h1        1 13Z      0.031200
     49 H15A       -5.8510   -1.4060    0.1470 h1        1 13Z      0.031200
     50 H17        -4.0890    0.9930    2.5290 hc        1 13Z      0.045533
     51 H17A       -5.8210    0.9670    1.9950 hc        1 13Z      0.045533
     52 H17B       -4.9850   -0.5830    2.4370 hc        1 13Z      0.045533
     53 HO4        -7.4850    0.0360   -0.5690 ho        1 13Z      0.403000
     54 C5         -1.1610    0.6480   -0.1460 c         1 13Z      0.632100
     55 C10         2.3320   -3.4600   -0.1680 c3        1 13Z     -0.065300
@<TRIPOS>BOND
     1    1    2 1   
     2    1    6 1   
     3    1    7 1   
     4    1   25 1   
     5    2    3 1   
     6    2   26 1   
     7    2   27 1   
     8    3    4 1   
     9    3   12 1   
    10    3   28 1   
    11    4    7 1   
    12    4   29 1   
    13    4   30 1   
    14    5   10 1   
    15    5   31 1   
    16    5   32 1   
    17    5   54 1   
    18    6   11 1   
    19    6   14 1   
    20    6   33 1   
    21    7   54 1   
    22    8    9 1   
    23    8   11 2   
    24    9   15 2   
    25   10   20 1   
    26   10   34 1   
    27   11   16 1   
    28   13   54 2   
    29   14   35 1   
    30   15   16 1   
    31   15   55 1   
    32   17   36 1   
    33   17   37 1   
    34   17   38 1   
    35   17   55 1   
    36   18   39 1   
    37   18   40 1   
    38   18   41 1   
    39   18   55 1   
    40   19   42 1   
    41   19   43 1   
    42   19   44 1   
    43   19   55 1   
    44   20   21 1   
    45   20   22 1   
    46   20   23 1   
    47   21   45 1   
    48   21   46 1   
    49   21   47 1   
    50   22   24 1   
    51   22   48 1   
    52   22   49 1   
    53   23   50 1   
    54   23   51 1   
    55   23   52 1   
    56   24   53 1   
@<TRIPOS>SUBSTRUCTURE
     1 13Z         1 TEMP              0 ****  ****    0 ROOT
