@<TRIPOS>MOLECULE
13Z
   55    55     1     0     0
SMALL
bcc


@<TRIPOS>ATOM
      1 C1          1.1060    0.4870   -0.1390 c3        1 13Z      0.051000
      2 C2          2.6750    0.3290   -0.2320 c3        1 13Z     -0.123400
      3 C3          3.1740    0.3060    1.2270 c3        1 13Z      0.154600
      4 C4          2.1230    0.6920    1.9550 c3        1 13Z     -0.003700
      5 C5         -0.4400   -0.2160    1.6510 c1        1 13Z      0.502500
      6 C6         -0.6580   -0.2840    3.1830 c2        1 13Z      0.233100
      7 C7          0.4180   -0.5600   -1.0160 c3        1 13Z      0.129800
      8 N1          0.8180    0.2820    1.1150 n3        1 13Z     -0.278400
      9 N2         -0.3550    0.9080   -2.6800 nc        1 13Z     -0.342000
     10 N3         -0.2920    1.2540   -3.9790 nc        1 13Z     -0.350000
     11 N4         -2.0970   -0.5640    3.4690 nh        1 13Z     -0.369100
     12 C8          0.5000   -0.1320   -2.4810 cd        1 13Z      0.408700
     13 C10         1.0040    0.4630   -6.1060 c3        1 13Z     -0.067300
     14 F1          3.5680   -0.9960    1.5900 f         1 13Z     -0.234300
     15 O1         -1.3480   -0.4860    0.9030 o         1 13Z     -0.581500
     16 O2         -0.9080   -0.6720   -0.6410 oh        1 13Z     -0.561800
     17 C9          0.6050    0.4280   -4.5930 cd        1 13Z      0.475700
     18 O3          1.0900   -0.4220   -3.6670 os        1 13Z     -0.403800
     19 C12         2.4790    0.0770   -6.2540 c3        1 13Z     -0.091433
     20 C14         0.7920    1.8640   -6.6550 c3        1 13Z     -0.091433
     21 C16         0.1140   -0.5540   -6.9040 c3        1 13Z     -0.091433
     22 C11        -2.3230   -0.5150    4.8980 c3        1 13Z      0.001700
     23 C13        -1.3270   -1.4460    5.6100 c3        1 13Z     -0.105100
     24 C15        -3.7880   -0.9790    5.2120 c3        1 13Z      0.133400
     25 C17        -2.1250    0.8900    5.3890 c3        1 13Z     -0.105100
     26 O4         -3.9580   -1.0770    6.5950 oh        1 13Z     -0.603800
     27 H1          0.8410    1.3700   -0.4030 h1        1 13Z      0.105700
     28 H2          2.9000   -0.4940   -0.6760 hc        1 13Z      0.081700
     29 H2A         3.0680    1.0960   -0.7150 hc        1 13Z      0.081700
     30 H3          3.9050    0.9210    1.3410 h1        1 13Z      0.066700
     31 H4          2.1460    1.6660    2.0900 h1        1 13Z      0.060700
     32 H4A         2.1250    0.2280    2.8270 h1        1 13Z      0.060700
     33 H6         -0.4040    0.5720    3.5880 h4        1 13Z     -0.012200
     34 H6A        -0.0950   -1.0120    3.5670 h4        1 13Z     -0.012200
     35 H7          0.8700   -1.4350   -0.9020 h1        1 13Z      0.065700
     36 HN4        -2.6220    0.0680    3.0520 hn        1 13Z      0.226700
     37 HO2        -1.2660   -1.3190   -1.0530 ho        1 13Z      0.412000
     38 H12         2.6290   -0.7960   -5.8420 hc        1 13Z      0.048922
     39 H12A        2.7190    0.0310   -7.2350 hc        1 13Z      0.048922
     40 H12B        3.0400    0.7490   -5.8110 hc        1 13Z      0.048922
     41 H14         1.3060    2.5000   -6.1290 hc        1 13Z      0.048922
     42 H14A       -0.1550    2.0920   -6.6080 hc        1 13Z      0.048922
     43 H14B        1.0800    1.8950   -7.5590 hc        1 13Z      0.048922
     44 H16         0.1900   -1.4580   -6.4920 hc        1 13Z      0.048922
     45 H16A        0.4210   -0.5940   -7.8470 hc        1 13Z      0.048922
     46 H16B       -0.8140   -0.2620   -6.8750 hc        1 13Z      0.048922
     47 H13        -0.4560   -0.9780    5.7220 hc        1 13Z      0.044533
     48 H13A       -1.6920   -1.6970    6.5170 hc        1 13Z      0.044533
     49 H13B       -1.1980   -2.2450    5.0840 hc        1 13Z      0.044533
     50 H15        -4.4410   -0.3090    4.8400 h1        1 13Z      0.032200
     51 H15A       -3.9510   -1.8750    4.7920 h1        1 13Z      0.032200
     52 H17        -2.5880    1.4970    4.8130 hc        1 13Z      0.044533
     53 H17A       -2.4810    0.9700    6.3040 hc        1 13Z      0.044533
     54 H17B       -1.1650    1.1050    5.3910 hc        1 13Z      0.044533
     55 HO4        -4.7610   -1.3640    6.7690 ho        1 13Z      0.403000
@<TRIPOS>BOND
     1    1    2 1   
     2    1    7 1   
     3    1    8 1   
     4    1   27 1   
     5    2    3 1   
     6    2   28 1   
     7    2   29 1   
     8    3    4 1   
     9    3   14 1   
    10    3   30 1   
    11    4    8 1   
    12    4   31 1   
    13    4   32 1   
    14    5    8 2   
    15    5   15 2   
    16    6   11 2   
    17    6   33 1   
    18    6   34 1   
    19    7   12 1   
    20    7   16 1   
    21    7   35 1   
    22    9   10 1   
    23    9   12 2   
    24   10   17 2   
    25   11   22 1   
    26   11   36 1   
    27   12   18 1   
    28   13   17 1   
    29   13   19 1   
    30   13   20 1   
    31   13   21 1   
    32   16   37 1   
    33   17   18 1   
    34   19   38 1   
    35   19   39 1   
    36   19   40 1   
    37   20   41 1   
    38   20   42 1   
    39   20   43 1   
    40   21   44 1   
    41   21   45 1   
    42   21   46 1   
    43   22   23 1   
    44   22   24 1   
    45   22   25 1   
    46   23   47 1   
    47   23   48 1   
    48   23   49 1   
    49   24   26 1   
    50   24   50 1   
    51   24   51 1   
    52   25   52 1   
    53   25   53 1   
    54   25   54 1   
    55   26   55 1   
@<TRIPOS>SUBSTRUCTURE
     1 13Z         1 TEMP              0 ****  ****    0 ROOT
