@<TRIPOS>MOLECULE
13Z
   56    55     1     0     0
SMALL
bcc


@<TRIPOS>ATOM
      1 C1         -2.7250   -2.7380   -0.1510 c2        1 13Z     -0.274200
      2 C2         -3.5560   -3.3390   -0.9990 c2        1 13Z     -0.117000
      3 C3          0.6810   -1.8490    1.9140 c3        1 13Z      0.296600
      4 C4         -3.5150   -0.8050    5.9100 c2        1 13Z     -0.104400
      5 C6         -3.3490    0.5490    3.1050 c3        1 13Z      0.110800
      6 C7         -1.5290   -1.9590   -0.5980 c3        1 13Z      0.173000
      7 N1         -2.7540   -1.2380    4.8260 n         1 13Z     -0.430100
      8 N2          0.6370   -2.7750    0.7300 na        1 13Z     -0.024400
      9 N3          1.5660   -3.7560    0.5450 n2        1 13Z     -0.463800
     10 N4         -3.5030    1.6040    4.0560 n3        1 13Z     -0.807200
     11 C8         -0.2840   -2.7760   -0.2700 cc        1 13Z      0.459200
     12 F1          1.9490   -1.4190    2.1960 f         1 13Z     -0.175300
     13 O1         -1.9620   -1.3840    2.7230 o         1 13Z     -0.782500
     14 O2         -1.4200   -0.6920   -0.0130 oh        1 13Z     -0.578800
     15 C9          1.2410   -4.3910   -0.5830 cc        1 13Z      0.560700
     16 O3          0.0630   -3.7920   -1.1280 os        1 13Z     -0.350800
     17 C12         3.0710   -6.0480   -0.6040 c3        1 13Z     -0.102433
     18 C14         0.7990   -6.6420   -1.4560 c3        1 13Z     -0.102433
     19 C16         2.2340   -5.0390   -2.7310 c3        1 13Z     -0.102433
     20 C11        -4.5180    1.4340    5.0760 c3        1 13Z      0.194700
     21 C13        -0.8010   -4.1070    4.5310 c3        1 13Z     -0.130800
     22 C15        -4.2550    0.3200    6.0600 c2        1 13Z     -0.002100
     23 C17        -5.9330    1.2730    4.5130 c3        1 13Z     -0.098100
     24 O4         -4.8070    0.4730    7.3190 oh        1 13Z     -0.490100
     25 H1         -2.2590   -2.0970    4.9920 hn        1 13Z      0.333500
     26 H2         -3.4180   -3.3310   -2.0910 ha        1 13Z      0.140000
     27 H2A        -2.8840   -2.7410    0.9430 ha        1 13Z      0.167000
     28 H3         -4.4480   -3.8810   -0.6480 ha        1 13Z      0.140000
     29 H4          0.2610   -2.4370    2.7900 h2        1 13Z      0.126200
     30 H4A         0.0260   -0.9640    1.6450 h2        1 13Z      0.126200
     31 H6         -3.4530   -1.5040    6.7730 h4        1 13Z      0.175000
     32 H6A        -4.3590    0.2540    2.6970 h1        1 13Z      0.089700
     33 H7         -1.5020   -1.7880   -1.7180 h1        1 13Z      0.131700
     34 HN4        -2.7300    0.9520    2.2490 h1        1 13Z      0.089700
     35 HO2        -1.9580   -0.6630    0.8000 ho        1 13Z      0.459000
     36 H12         2.7980   -6.4100    0.4170 hc        1 13Z      0.063589
     37 H12A        3.8420   -5.2450   -0.5110 hc        1 13Z      0.063589
     38 H12B        3.5100   -6.8990   -1.1790 hc        1 13Z      0.063589
     39 H14         0.5170   -7.0240   -0.4460 hc        1 13Z      0.063589
     40 H14A        1.2260   -7.4880   -2.0490 hc        1 13Z      0.063589
     41 H14B       -0.1160   -6.2670   -1.9750 hc        1 13Z      0.063589
     42 H16         2.6570   -5.8910   -3.3180 hc        1 13Z      0.063589
     43 H16A        1.3430   -4.6390   -3.2710 hc        1 13Z      0.063589
     44 H16B        3.0100   -4.2390   -2.6590 hc        1 13Z      0.063589
     45 H13        -0.1680   -4.9460    4.1690 hc        1 13Z      0.033950
     46 H13A       -6.0720    0.2750    4.0350 hc        1 13Z      0.053033
     47 H13B       -0.1530   -3.3320    4.9980 hc        1 13Z      0.033950
     48 H15        -1.3610   -3.6640    3.6760 hc        1 13Z      0.033950
     49 H15A       -1.5200   -4.4930    5.2870 hc        1 13Z      0.033950
     50 H17        -4.5000    2.4080    5.6670 h1        1 13Z      0.089700
     51 H17A       -6.6670    1.3660    5.3500 hc        1 13Z      0.053033
     52 H17B       -6.1480    2.0690    3.7600 hc        1 13Z      0.053033
     53 HO4        -5.5800    1.0520    7.2350 ho        1 13Z      0.429000
     54 C5         -2.6640   -0.7410    3.5560 c         1 13Z      0.662500
     55 C10         1.8420   -5.5370   -1.3440 c3        1 13Z     -0.075300
     56 H42        -2.6270    1.8710    4.4650 hn        1 13Z      0.391800
@<TRIPOS>BOND
     1    1    2 2   
     2    1    6 1   
     3    1   27 1   
     4    2   26 1   
     5    2   28 1   
     6    3    8 1   
     7    3   12 1   
     8    3   29 1   
     9    3   30 1   
    10    4    7 1   
    11    4   22 2   
    12    4   31 1   
    13    5   10 1   
    14    5   32 1   
    15    5   34 1   
    16    5   54 1   
    17    6   11 1   
    18    6   14 1   
    19    6   33 1   
    20    7   25 1   
    21    7   54 1   
    22    8    9 1   
    23    8   11 2   
    24    9   15 2   
    25   10   20 1   
    26   10   56 1   
    27   11   16 1   
    28   13   54 2   
    29   14   35 1   
    30   15   16 1   
    31   15   55 1   
    32   17   36 1   
    33   17   37 1   
    34   17   38 1   
    35   17   55 1   
    36   18   39 1   
    37   18   40 1   
    38   18   41 1   
    39   18   55 1   
    40   19   42 1   
    41   19   43 1   
    42   19   44 1   
    43   19   55 1   
    44   20   22 1   
    45   20   23 1   
    46   20   50 1   
    47   21   45 1   
    48   21   47 1   
    49   21   48 1   
    50   21   49 1   
    51   22   24 1   
    52   23   46 1   
    53   23   51 1   
    54   23   52 1   
    55   24   53 1   
@<TRIPOS>SUBSTRUCTURE
     1 13Z         1 TEMP              0 ****  ****    0 ROOT
