@<TRIPOS>MOLECULE
140
   57    56     1     0     0
SMALL
bcc


@<TRIPOS>ATOM
      1 C1         -2.8810    0.0330    0.6680 c         1 140      0.925600
      2 O1         -3.0610    0.8880    1.5490 o         1 140     -0.762800
      3 O2         -3.4320   -1.0920    0.5040 o         1 140     -0.762800
      4 C2         -1.7960    0.4100   -0.4310 c3        1 140     -0.078200
      5 N          -1.7850   -0.6090   -1.5170 ny        1 140     -0.665800
      6 C3         -2.6510   -0.2220   -2.6760 c         1 140      0.561100
      7 O3         -2.0820   -0.1540   -3.7610 o         1 140     -0.476100
      8 C4         -4.0960    0.0330   -2.3690 c3        1 140     -0.166400
      9 C5         -4.9660   -0.2810   -3.5680 c3        1 140     -0.077400
     10 C6         -6.4080    0.0800   -3.2770 c3        1 140     -0.080400
     11 C7         -7.2950   -0.2480   -4.4590 c3        1 140     -0.078400
     12 C8         -8.7370    0.1160   -4.1750 c3        1 140     -0.079400
     13 C9         -9.6270   -0.2100   -5.3550 c3        1 140     -0.078400
     14 C10       -11.0690    0.1530   -5.0710 c3        1 140     -0.079400
     15 C11       -11.9590   -0.1720   -6.2510 c3        1 140     -0.078400
     16 C12       -13.4010    0.1920   -5.9680 c3        1 140     -0.079400
     17 C13       -14.2910   -0.1330   -7.1480 c3        1 140     -0.078400
     18 C14       -15.7330    0.2310   -6.8640 c3        1 140     -0.079400
     19 C15       -16.6240   -0.0920   -8.0450 c3        1 140     -0.079400
     20 C16       -18.0660    0.2710   -7.7620 c3        1 140     -0.079400
     21 C17       -18.9570   -0.0520   -8.9410 c3        1 140     -0.080400
     22 C18       -20.3940    0.3090   -8.6640 c3        1 140     -0.092100
     23 H21        -2.0260    1.4210   -0.8500 hx        1 140      0.088700
     24 H22        -0.7910    0.4230    0.0640 hx        1 140      0.088700
     25 HN         -2.2050   -1.4670   -1.0810 hn        1 140      0.460800
     26 H41        -4.4280   -0.5620   -1.4660 hc        1 140      0.126200
     27 H42        -4.1900    1.1210   -2.0900 hc        1 140      0.126200
     28 H51        -4.6010    0.2870   -4.4640 hc        1 140      0.055700
     29 H52        -4.8920   -1.3730   -3.8130 hc        1 140      0.055700
     30 H61        -6.4820    1.1750   -3.0420 hc        1 140      0.052200
     31 H62        -6.7620   -0.4790   -2.3710 hc        1 140      0.052200
     32 H71        -6.9380    0.3090   -5.3650 hc        1 140      0.041200
     33 H72        -7.2230   -1.3430   -4.6930 hc        1 140      0.041200
     34 H81        -8.8100    1.2110   -3.9400 hc        1 140      0.043700
     35 H82        -9.0940   -0.4410   -3.2680 hc        1 140      0.043700
     36 H91        -9.5550   -1.3050   -5.5890 hc        1 140      0.039700
     37 H92        -9.2700    0.3460   -6.2610 hc        1 140      0.039700
     38 H101      -11.1410    1.2480   -4.8350 hc        1 140      0.041200
     39 H102      -11.4260   -0.4040   -4.1650 hc        1 140      0.041200
     40 H111      -11.8870   -1.2660   -6.4870 hc        1 140      0.039200
     41 H112      -11.6020    0.3850   -7.1570 hc        1 140      0.039200
     42 H121      -13.7580   -0.3660   -5.0620 hc        1 140      0.040200
     43 H122      -13.4730    1.2860   -5.7310 hc        1 140      0.040200
     44 H131      -14.2190   -1.2270   -7.3840 hc        1 140      0.039200
     45 H132      -13.9340    0.4250   -8.0530 hc        1 140      0.039200
     46 H141      -16.0910   -0.3270   -5.9590 hc        1 140      0.039700
     47 H142      -15.8060    1.3250   -6.6280 hc        1 140      0.039700
     48 H151      -16.2660    0.4660   -8.9500 hc        1 140      0.039200
     49 H152      -16.5520   -1.1870   -8.2820 hc        1 140      0.039200
     50 H161      -18.1380    1.3650   -7.5250 hc        1 140      0.039700
     51 H162      -18.4240   -0.2870   -6.8570 hc        1 140      0.039700
     52 H171      -18.5970    0.5060   -9.8460 hc        1 140      0.038200
     53 H172      -18.8820   -1.1460   -9.1780 hc        1 140      0.038200
     54 H181      -21.0340    0.0630   -9.5460 hc        1 140      0.032700
     55 H182      -20.7790   -0.2560   -7.7800 hc        1 140      0.032700
     56 H183      -20.4920    1.4010   -8.4500 hc        1 140      0.032700
     57 HN3        -0.8350   -0.8050   -1.8340 hn        1 140      0.460800
@<TRIPOS>BOND
     1    1    2 1   
     2    1    3 1   
     3    1    4 1   
     4    4    5 1   
     5    4   23 1   
     6    4   24 1   
     7    5    6 1   
     8    5   25 1   
     9    5   57 1   
    10    6    7 2   
    11    6    8 1   
    12    8    9 1   
    13    8   26 1   
    14    8   27 1   
    15    9   10 1   
    16    9   28 1   
    17    9   29 1   
    18   10   11 1   
    19   10   30 1   
    20   10   31 1   
    21   11   12 1   
    22   11   32 1   
    23   11   33 1   
    24   12   13 1   
    25   12   34 1   
    26   12   35 1   
    27   13   14 1   
    28   13   36 1   
    29   13   37 1   
    30   14   15 1   
    31   14   38 1   
    32   14   39 1   
    33   15   16 1   
    34   15   40 1   
    35   15   41 1   
    36   16   17 1   
    37   16   42 1   
    38   16   43 1   
    39   17   18 1   
    40   17   44 1   
    41   17   45 1   
    42   18   19 1   
    43   18   46 1   
    44   18   47 1   
    45   19   20 1   
    46   19   48 1   
    47   19   49 1   
    48   20   21 1   
    49   20   50 1   
    50   20   51 1   
    51   21   22 1   
    52   21   52 1   
    53   21   53 1   
    54   22   54 1   
    55   22   55 1   
    56   22   56 1   
@<TRIPOS>SUBSTRUCTURE
     1 140         1 TEMP              0 ****  ****    0 ROOT
