@<TRIPOS>MOLECULE
140
   56    55     1     0     0
SMALL
bcc


@<TRIPOS>ATOM
      1 C1         -0.5350   -0.5090   -9.5850 c         1 140      0.906600
      2 O1         -1.7410   -0.7160   -9.2640 o         1 140     -0.838300
      3 O2         -0.0490   -0.7020  -10.7310 o         1 140     -0.838300
      4 C2          0.4500    0.0290   -8.5040 c3        1 140     -0.056000
      5 N          -0.1810    0.2690   -7.2310 n         1 140     -0.516900
      6 C3          0.4720    0.1210   -6.0360 c         1 140      0.634100
      7 O3          1.7200    0.0380   -5.9480 o         1 140     -0.658100
      8 C4         -0.3950    0.1370   -4.7810 c3        1 140     -0.156400
      9 C5          0.4540    0.1090   -3.5300 c3        1 140     -0.070400
     10 C6         -0.4070    0.1060   -2.2860 c3        1 140     -0.079400
     11 C7          0.4420    0.0790   -1.0330 c3        1 140     -0.078400
     12 C8         -0.4150    0.0760    0.2140 c3        1 140     -0.079400
     13 C9          0.4350    0.0480    1.4660 c3        1 140     -0.079400
     14 C10        -0.4220    0.0450    2.7140 c3        1 140     -0.078400
     15 C11         0.4280    0.0180    3.9660 c3        1 140     -0.079400
     16 C12        -0.4290    0.0150    5.2130 c3        1 140     -0.079400
     17 C13         0.4210   -0.0130    6.4650 c3        1 140     -0.079400
     18 C14        -0.4360   -0.0150    7.7130 c3        1 140     -0.078400
     19 C15         0.4140   -0.0430    8.9640 c3        1 140     -0.079400
     20 C16        -0.4430   -0.0460   10.2120 c3        1 140     -0.079400
     21 C17         0.4060   -0.0730   11.4650 c3        1 140     -0.080400
     22 C18        -0.4430   -0.0760   12.7090 c3        1 140     -0.092100
     23 H21         0.8860    0.9960   -8.8750 h1        1 140      0.040200
     24 H22         1.2930   -0.7070   -8.3910 h1        1 140      0.040200
     25 HN         -1.1740    0.1400   -7.2480 hn        1 140      0.322500
     26 H41        -1.0730   -0.7570   -4.8030 hc        1 140      0.053200
     27 H42        -1.0400    1.0540   -4.7840 hc        1 140      0.053200
     28 H51         1.1370    0.9990   -3.5260 hc        1 140      0.054700
     29 H52         1.1110   -0.8010   -3.5480 hc        1 140      0.054700
     30 H61        -1.0870   -0.7860   -2.2990 hc        1 140      0.033700
     31 H62        -1.0610    1.0180   -2.2770 hc        1 140      0.033700
     32 H71         1.1220    0.9720   -1.0210 hc        1 140      0.040200
     33 H72         1.0960   -0.8330   -1.0430 hc        1 140      0.040200
     34 H81        -1.0950   -0.8170    0.2010 hc        1 140      0.037200
     35 H82        -1.0690    0.9880    0.2230 hc        1 140      0.037200
     36 H91         1.1140    0.9410    1.4790 hc        1 140      0.039200
     37 H92         1.0880   -0.8640    1.4570 hc        1 140      0.039200
     38 H101       -1.1020   -0.8470    2.7010 hc        1 140      0.038200
     39 H102       -1.0760    0.9570    2.7230 hc        1 140      0.038200
     40 H111        1.1070    0.9100    3.9780 hc        1 140      0.038700
     41 H112        1.0810   -0.8940    3.9560 hc        1 140      0.038700
     42 H121       -1.1090   -0.8780    5.2000 hc        1 140      0.038700
     43 H122       -1.0830    0.9270    5.2230 hc        1 140      0.038700
     44 H131        1.1010    0.8800    6.4780 hc        1 140      0.038700
     45 H132        1.0740   -0.9250    6.4560 hc        1 140      0.038700
     46 H141       -1.1160   -0.9080    7.7000 hc        1 140      0.038700
     47 H142       -1.0900    0.8970    7.7220 hc        1 140      0.038700
     48 H151        1.0940    0.8490    8.9770 hc        1 140      0.038700
     49 H152        1.0670   -0.9550    8.9550 hc        1 140      0.038700
     50 H161       -1.1230   -0.9380   10.1990 hc        1 140      0.038700
     51 H162       -1.0960    0.8670   10.2210 hc        1 140      0.038700
     52 H171        1.0870    0.8190   11.4740 hc        1 140      0.037700
     53 H172        1.0600   -0.9860   11.4520 hc        1 140      0.037700
     54 H181        0.2020   -0.0970   13.6200 hc        1 140      0.031033
     55 H182       -1.0840    0.8380   12.7520 hc        1 140      0.031033
     56 H183       -1.1100   -0.9710   12.7290 hc        1 140      0.031033
@<TRIPOS>BOND
     1    1    2 1   
     2    1    3 1   
     3    1    4 1   
     4    4    5 1   
     5    4   23 1   
     6    4   24 1   
     7    5    6 1   
     8    5   25 1   
     9    6    7 2   
    10    6    8 1   
    11    8    9 1   
    12    8   26 1   
    13    8   27 1   
    14    9   10 1   
    15    9   28 1   
    16    9   29 1   
    17   10   11 1   
    18   10   30 1   
    19   10   31 1   
    20   11   12 1   
    21   11   32 1   
    22   11   33 1   
    23   12   13 1   
    24   12   34 1   
    25   12   35 1   
    26   13   14 1   
    27   13   36 1   
    28   13   37 1   
    29   14   15 1   
    30   14   38 1   
    31   14   39 1   
    32   15   16 1   
    33   15   40 1   
    34   15   41 1   
    35   16   17 1   
    36   16   42 1   
    37   16   43 1   
    38   17   18 1   
    39   17   44 1   
    40   17   45 1   
    41   18   19 1   
    42   18   46 1   
    43   18   47 1   
    44   19   20 1   
    45   19   48 1   
    46   19   49 1   
    47   20   21 1   
    48   20   50 1   
    49   20   51 1   
    50   21   22 1   
    51   21   52 1   
    52   21   53 1   
    53   22   54 1   
    54   22   55 1   
    55   22   56 1   
@<TRIPOS>SUBSTRUCTURE
     1 140         1 TEMP              0 ****  ****    0 ROOT
