@<TRIPOS>MOLECULE
140
   56    54     1     0     0
SMALL
bcc


@<TRIPOS>ATOM
      1 C1          1.0840    8.3770    5.7410 c1        1 140      0.327000
      2 O1          1.7160    9.4110    6.0640 o         1 140     -0.558000
      3 O2          0.3670    7.7860    6.5930 os        1 140     -0.587000
      4 C2          1.1050    7.8960    4.3040 c3        1 140     -0.118000
      5 N           2.0350    6.8000    4.1780 n         1 140     -0.327000
      6 C3          2.3080    6.2370    2.8880 c2        1 140      0.280000
      7 O3          1.9110    6.7930    1.8900 o         1 140     -0.423000
      8 C4          3.0600    4.9110    2.7760 c3        1 140     -0.186000
      9 C5          2.8440    4.3170    1.3790 c3        1 140     -0.155000
     10 C6          3.1390    2.7980    1.4130 c3        1 140     -0.157000
     11 C7          2.7190    2.1600    0.0680 c3        1 140     -0.159000
     12 C8          2.6610    0.6160    0.2220 c3        1 140     -0.157000
     13 C9          2.1300   -0.0170   -1.0980 c3        1 140     -0.158000
     14 C10         1.7670   -1.5120   -0.8510 c3        1 140     -0.157000
     15 C11         0.8890   -2.0330   -2.0250 c3        1 140     -0.158000
     16 C12         0.1840   -3.3530   -1.6000 c3        1 140     -0.157000
     17 C13        -0.8940   -3.7290   -2.6550 c3        1 140     -0.158000
     18 C14        -1.8200   -4.8270   -2.0770 c3        1 140     -0.157000
     19 C15        -3.1470   -4.8550   -2.8740 c3        1 140     -0.158000
     20 C16        -4.1780   -5.7030   -2.1210 c3        1 140     -0.158000
     21 C17        -5.5610   -5.5110   -2.7560 c3        1 140     -0.159000
     22 C18        -6.6100   -6.2230   -1.9150 c3        1 140     -0.210000
     23 H21         1.3830    8.6300    3.7180 h1        1 140      0.078500
     24 H22         0.2040    7.5930    4.0460 h1        1 140      0.078500
     25 HN          2.4380    6.4510    4.9260 hn        1 140      0.240000
     26 H41         2.7250    4.2900    3.4480 hc        1 140      0.094500
     27 H42         4.0170    5.0640    2.9210 hc        1 140      0.094500
     28 H51         1.9200    4.4630    1.1040 hc        1 140      0.091000
     29 H52         3.4470    4.7530    0.7430 hc        1 140      0.091000
     30 H61         4.0990    2.6550    1.5570 hc        1 140      0.074500
     31 H62         2.6340    2.3840    2.1420 hc        1 140      0.074500
     32 H71         3.3710    2.3940   -0.6210 hc        1 140      0.081500
     33 H72         1.8420    2.4920   -0.1890 hc        1 140      0.081500
     34 H81         2.0640    0.3840    0.9570 hc        1 140      0.076000
     35 H82         3.5590    0.2730    0.4110 hc        1 140      0.076000
     36 H91         2.8240    0.0420   -1.7910 hc        1 140      0.079500
     37 H92         1.3360    0.4660   -1.3930 hc        1 140      0.079500
     38 H101        2.5890   -2.0430   -0.7980 hc        1 140      0.077000
     39 H102        1.2730   -1.5930   -0.0160 hc        1 140      0.077000
     40 H111        0.2180   -1.3650   -2.2490 hc        1 140      0.079000
     41 H112        1.4530   -2.2020   -2.8050 hc        1 140      0.079000
     42 H121        0.8460   -4.0720   -1.5400 hc        1 140      0.077500
     43 H122       -0.2420   -3.2280   -0.7300 hc        1 140      0.077500
     44 H131       -0.4560   -4.0640   -3.4620 hc        1 140      0.078500
     45 H132       -1.4230   -2.9400   -2.8750 hc        1 140      0.078500
     46 H141       -2.0070   -4.6350   -1.1410 hc        1 140      0.078000
     47 H142       -1.3780   -5.6980   -2.1500 hc        1 140      0.078000
     48 H151       -3.4850   -3.9440   -2.9750 hc        1 140      0.078500
     49 H152       -2.9880   -5.2440   -3.7610 hc        1 140      0.078500
     50 H161       -4.2090   -5.4240   -1.1840 hc        1 140      0.078000
     51 H162       -3.9240   -6.6480   -2.1720 hc        1 140      0.078000
     52 H171       -5.5590   -5.8860   -3.6640 hc        1 140      0.077500
     53 H172       -5.7700   -4.5570   -2.7990 hc        1 140      0.077500
     54 H181       -7.5070   -5.9770   -2.2320 hc        1 140      0.070333
     55 H182       -6.5120   -5.9580   -0.9790 hc        1 140      0.070333
     56 H183       -6.4900   -7.1950   -1.9940 hc        1 140      0.070333
@<TRIPOS>BOND
     1    1    2 1   
     2    1    4 1   
     3    4    5 1   
     4    4   23 1   
     5    4   24 1   
     6    5    6 1   
     7    5   25 1   
     8    6    7 1   
     9    6    8 1   
    10    8    9 1   
    11    8   26 1   
    12    8   27 1   
    13    9   10 1   
    14    9   28 1   
    15    9   29 1   
    16   10   11 1   
    17   10   30 1   
    18   10   31 1   
    19   11   12 1   
    20   11   32 1   
    21   11   33 1   
    22   12   13 1   
    23   12   34 1   
    24   12   35 1   
    25   13   14 1   
    26   13   36 1   
    27   13   37 1   
    28   14   15 1   
    29   14   38 1   
    30   14   39 1   
    31   15   16 1   
    32   15   40 1   
    33   15   41 1   
    34   16   17 1   
    35   16   42 1   
    36   16   43 1   
    37   17   18 1   
    38   17   44 1   
    39   17   45 1   
    40   18   19 1   
    41   18   46 1   
    42   18   47 1   
    43   19   20 1   
    44   19   48 1   
    45   19   49 1   
    46   20   21 1   
    47   20   50 1   
    48   20   51 1   
    49   21   22 1   
    50   21   52 1   
    51   21   53 1   
    52   22   54 1   
    53   22   55 1   
    54   22   56 1   
@<TRIPOS>SUBSTRUCTURE
     1 140         1 TEMP              0 ****  ****    0 ROOT
