@<TRIPOS>MOLECULE
140
   57    56     1     0     0
SMALL
bcc


@<TRIPOS>ATOM
      1 C1         -2.8760   -0.0460    0.6610 c         1 140      0.925600
      2 O1         -3.0640    0.7840    1.5630 o         1 140     -0.762800
      3 O2         -3.4140   -1.1720    0.4680 o         1 140     -0.762800
      4 C2         -1.7960    0.3700   -0.4290 c3        1 140     -0.078200
      5 N          -1.7750   -0.6190   -1.5410 n4        1 140     -0.665800
      6 C3         -2.6470   -0.2110   -2.6890 c         1 140      0.561100
      7 O3         -2.0800   -0.1100   -3.7730 o         1 140     -0.476100
      8 C4         -4.0940    0.0200   -2.3730 c3        1 140     -0.166400
      9 C5         -4.9630   -0.2710   -3.5800 c3        1 140     -0.077400
     10 C6         -6.4070    0.0670   -3.2780 c3        1 140     -0.080400
     11 C7         -7.2930   -0.2360   -4.4680 c3        1 140     -0.078400
     12 C8         -8.7380    0.1050   -4.1720 c3        1 140     -0.079400
     13 C9         -9.6260   -0.1970   -5.3600 c3        1 140     -0.078400
     14 C10       -11.0710    0.1450   -5.0650 c3        1 140     -0.079400
     15 C11       -11.9590   -0.1550   -6.2530 c3        1 140     -0.078400
     16 C12       -13.4040    0.1870   -5.9590 c3        1 140     -0.079400
     17 C13       -14.2930   -0.1100   -7.1480 c3        1 140     -0.078400
     18 C14       -15.7370    0.2330   -6.8530 c3        1 140     -0.079400
     19 C15       -16.6250   -0.0630   -8.0420 c3        1 140     -0.079400
     20 C16       -18.0700    0.2800   -7.7480 c3        1 140     -0.079400
     21 C17       -18.9600   -0.0150   -8.9370 c3        1 140     -0.080400
     22 C18       -20.3990    0.3240   -8.6480 c3        1 140     -0.092100
     23 H21        -2.0370    1.3900   -0.8210 hx        1 140      0.088700
     24 H22        -0.7910    0.3820    0.0650 hx        1 140      0.088700
     25 HN         -0.8240   -0.7970   -1.8640 hn        1 140      0.460800
     26 H41        -4.1990    1.0980   -2.0640 hc        1 140      0.126200
     27 H42        -4.4180   -0.6040   -1.4860 hc        1 140      0.126200
     28 H51        -4.8770   -1.3550   -3.8540 hc        1 140      0.055700
     29 H52        -4.6040    0.3260   -4.4600 hc        1 140      0.055700
     30 H61        -6.4930    1.1540   -3.0110 hc        1 140      0.052200
     31 H62        -6.7550   -0.5210   -2.3880 hc        1 140      0.052200
     32 H71        -7.2100   -1.3230   -4.7320 hc        1 140      0.041200
     33 H72        -6.9420    0.3490   -5.3580 hc        1 140      0.041200
     34 H81        -8.8210    1.1920   -3.9060 hc        1 140      0.043700
     35 H82        -9.0880   -0.4810   -3.2820 hc        1 140      0.043700
     36 H91        -9.5430   -1.2840   -5.6260 hc        1 140      0.039700
     37 H92        -9.2750    0.3890   -6.2510 hc        1 140      0.039700
     38 H101      -11.1530    1.2310   -4.7980 hc        1 140      0.041200
     39 H102      -11.4220   -0.4420   -4.1760 hc        1 140      0.041200
     40 H111      -11.8770   -1.2410   -6.5210 hc        1 140      0.039200
     41 H112      -11.6080    0.4320   -7.1430 hc        1 140      0.039200
     42 H121      -13.7560   -0.4000   -5.0700 hc        1 140      0.040200
     43 H122      -13.4860    1.2740   -5.6900 hc        1 140      0.040200
     44 H131      -13.9400    0.4770   -8.0370 hc        1 140      0.039200
     45 H132      -14.2110   -1.1960   -7.4160 hc        1 140      0.039200
     46 H141      -16.0900   -0.3550   -5.9650 hc        1 140      0.039700
     47 H142      -15.8190    1.3190   -6.5840 hc        1 140      0.039700
     48 H151      -16.5440   -1.1490   -8.3120 hc        1 140      0.039200
     49 H152      -16.2730    0.5250   -8.9310 hc        1 140      0.039200
     50 H161      -18.1520    1.3660   -7.4780 hc        1 140      0.039700
     51 H162      -18.4230   -0.3080   -6.8600 hc        1 140      0.039700
     52 H171      -18.6050    0.5740   -9.8240 hc        1 140      0.038200
     53 H172      -18.8750   -1.1010   -9.2070 hc        1 140      0.038200
     54 H181      -20.5070    1.4080   -8.4010 hc        1 140      0.032700
     55 H182      -20.7790   -0.2710   -7.7830 hc        1 140      0.032700
     56 H183      -21.0370    0.1000   -9.5370 hc        1 140      0.032700
     57 HN3        -2.1860   -1.4930   -1.1270 hn        1 140      0.460800
@<TRIPOS>BOND
     1    1    2 1   
     2    1    3 1   
     3    1    4 1   
     4    4    5 1   
     5    4   23 1   
     6    4   24 1   
     7    5    6 1   
     8    5   25 1   
     9    5   57 1   
    10    6    7 2   
    11    6    8 1   
    12    8    9 1   
    13    8   26 1   
    14    8   27 1   
    15    9   10 1   
    16    9   28 1   
    17    9   29 1   
    18   10   11 1   
    19   10   30 1   
    20   10   31 1   
    21   11   12 1   
    22   11   32 1   
    23   11   33 1   
    24   12   13 1   
    25   12   34 1   
    26   12   35 1   
    27   13   14 1   
    28   13   36 1   
    29   13   37 1   
    30   14   15 1   
    31   14   38 1   
    32   14   39 1   
    33   15   16 1   
    34   15   40 1   
    35   15   41 1   
    36   16   17 1   
    37   16   42 1   
    38   16   43 1   
    39   17   18 1   
    40   17   44 1   
    41   17   45 1   
    42   18   19 1   
    43   18   46 1   
    44   18   47 1   
    45   19   20 1   
    46   19   48 1   
    47   19   49 1   
    48   20   21 1   
    49   20   50 1   
    50   20   51 1   
    51   21   22 1   
    52   21   52 1   
    53   21   53 1   
    54   22   54 1   
    55   22   55 1   
    56   22   56 1   
@<TRIPOS>SUBSTRUCTURE
     1 140         1 TEMP              0 ****  ****    0 ROOT
