@<TRIPOS>MOLECULE
140
   57    56     1     0     0
SMALL
bcc


@<TRIPOS>ATOM
      1 C1         -2.8780    0.0570    0.6620 c         1 140      0.925600
      2 O1         -3.0500    0.9250    1.5320 o         1 140     -0.762800
      3 O2         -3.4380   -1.0650    0.5130 o         1 140     -0.762800
      4 C2         -1.7900    0.4090   -0.4420 c3        1 140     -0.078200
      5 N          -1.7880   -0.6240   -1.5140 n4        1 140     -0.665800
      6 C3         -2.6510   -0.2450   -2.6790 c         1 140      0.561100
      7 O3         -2.0820   -0.1970   -3.7650 o         1 140     -0.476100
      8 C4         -4.0940    0.0260   -2.3740 c3        1 140     -0.166400
      9 C5         -4.9670   -0.2990   -3.5690 c3        1 140     -0.077400
     10 C6         -6.4050    0.0780   -3.2830 c3        1 140     -0.080400
     11 C7         -7.2960   -0.2610   -4.4590 c3        1 140     -0.078400
     12 C8         -8.7350    0.1190   -4.1790 c3        1 140     -0.079400
     13 C9         -9.6280   -0.2200   -5.3530 c3        1 140     -0.078400
     14 C10       -11.0670    0.1600   -5.0750 c3        1 140     -0.079400
     15 C11       -11.9610   -0.1780   -6.2480 c3        1 140     -0.078400
     16 C12       -13.4000    0.2020   -5.9700 c3        1 140     -0.079400
     17 C13       -14.2940   -0.1360   -7.1430 c3        1 140     -0.078400
     18 C14       -15.7330    0.2430   -6.8640 c3        1 140     -0.079400
     19 C15       -16.6270   -0.0940   -8.0370 c3        1 140     -0.079400
     20 C16       -18.0660    0.2850   -7.7590 c3        1 140     -0.079400
     21 C17       -18.9620   -0.0520   -8.9310 c3        1 140     -0.080400
     22 C18       -20.3950    0.3240   -8.6580 c3        1 140     -0.092100
     23 H21        -2.0120    1.4170   -0.8750 hx        1 140      0.088700
     24 H22        -0.7850    0.4220    0.0520 hx        1 140      0.088700
     25 HN         -2.2150   -1.4730   -1.0670 hn        1 140      0.460800
     26 H41        -4.4300   -0.5530   -1.4620 hc        1 140      0.126200
     27 H42        -4.1780    1.1190   -2.1120 hc        1 140      0.126200
     28 H51        -4.5970    0.2530   -4.4730 hc        1 140      0.055700
     29 H52        -4.9020   -1.3950   -3.7970 hc        1 140      0.055700
     30 H61        -6.4710    1.1770   -3.0640 hc        1 140      0.052200
     31 H62        -6.7630   -0.4640   -2.3680 hc        1 140      0.052200
     32 H71        -6.9350    0.2790   -5.3740 hc        1 140      0.041200
     33 H72        -7.2330   -1.3600   -4.6750 hc        1 140      0.041200
     34 H81        -8.7990    1.2180   -3.9630 hc        1 140      0.043700
     35 H82        -9.0950   -0.4200   -3.2640 hc        1 140      0.043700
     36 H91        -9.5650   -1.3190   -5.5700 hc        1 140      0.039700
     37 H92        -9.2680    0.3190   -6.2690 hc        1 140      0.039700
     38 H101      -11.1300    1.2590   -4.8580 hc        1 140      0.041200
     39 H102      -11.4280   -0.3790   -4.1590 hc        1 140      0.041200
     40 H111      -11.8980   -1.2770   -6.4650 hc        1 140      0.039200
     41 H112      -11.6010    0.3610   -7.1640 hc        1 140      0.039200
     42 H121      -13.7600   -0.3370   -5.0540 hc        1 140      0.040200
     43 H122      -13.4630    1.3010   -5.7520 hc        1 140      0.040200
     44 H131      -14.2310   -1.2350   -7.3600 hc        1 140      0.039200
     45 H132      -13.9340    0.4030   -8.0580 hc        1 140      0.039200
     46 H141      -16.0930   -0.2960   -5.9490 hc        1 140      0.039700
     47 H142      -15.7960    1.3420   -6.6470 hc        1 140      0.039700
     48 H151      -16.2670    0.4450   -8.9530 hc        1 140      0.039200
     49 H152      -16.5640   -1.1930   -8.2550 hc        1 140      0.039200
     50 H161      -18.1300    1.3840   -7.5410 hc        1 140      0.039700
     51 H162      -18.4270   -0.2540   -6.8430 hc        1 140      0.039700
     52 H171      -18.5990    0.4870   -9.8460 hc        1 140      0.038200
     53 H172      -18.8950   -1.1510   -9.1480 hc        1 140      0.038200
     54 H181      -21.0380    0.0670   -9.5350 hc        1 140      0.032700
     55 H182      -20.7830   -0.2220   -7.7640 hc        1 140      0.032700
     56 H183      -20.4850    1.4200   -8.4640 hc        1 140      0.032700
     57 HN3        -0.8400   -0.8320   -1.8290 hn        1 140      0.460800
@<TRIPOS>BOND
     1    1    2 1   
     2    1    3 1   
     3    1    4 1   
     4    4    5 1   
     5    4   23 1   
     6    4   24 1   
     7    5    6 1   
     8    5   25 1   
     9    5   57 1   
    10    6    7 2   
    11    6    8 1   
    12    8    9 1   
    13    8   26 1   
    14    8   27 1   
    15    9   10 1   
    16    9   28 1   
    17    9   29 1   
    18   10   11 1   
    19   10   30 1   
    20   10   31 1   
    21   11   12 1   
    22   11   32 1   
    23   11   33 1   
    24   12   13 1   
    25   12   34 1   
    26   12   35 1   
    27   13   14 1   
    28   13   36 1   
    29   13   37 1   
    30   14   15 1   
    31   14   38 1   
    32   14   39 1   
    33   15   16 1   
    34   15   40 1   
    35   15   41 1   
    36   16   17 1   
    37   16   42 1   
    38   16   43 1   
    39   17   18 1   
    40   17   44 1   
    41   17   45 1   
    42   18   19 1   
    43   18   46 1   
    44   18   47 1   
    45   19   20 1   
    46   19   48 1   
    47   19   49 1   
    48   20   21 1   
    49   20   50 1   
    50   20   51 1   
    51   21   22 1   
    52   21   52 1   
    53   21   53 1   
    54   22   54 1   
    55   22   55 1   
    56   22   56 1   
@<TRIPOS>SUBSTRUCTURE
     1 140         1 TEMP              0 ****  ****    0 ROOT
