@<TRIPOS>MOLECULE
141
   13    13     1     0     0
SMALL
bcc


@<TRIPOS>ATOM
      1 O6         -0.1190    0.2550   -0.0300 o         1 141     -0.511100
      2 C6          1.0380   -0.1020    0.2210 c         1 141      0.687300
      3 C5          1.4500   -0.6450    1.5440 ce        1 141     -0.236300
      4 C7          2.1490    0.0310    2.4220 c1        1 141      0.200500
      5 N8          3.0380    0.6600    3.0800 ne        1 141     -0.176400
      6 N9          4.3020    0.5970    2.5330 ne        1 141     -0.258400
      7 C4          4.2490    0.6680    1.2420 c1        1 141      0.530800
      8 N3          3.9490    0.9220    0.0650 ne        1 141     -0.516800
      9 C2          3.3600    0.0140   -0.8830 c         1 141      0.848500
     10 N1          1.9590   -0.1740   -0.8440 n         1 141     -0.616500
     11 H7          1.1070   -1.6790    1.7340 ha        1 141      0.203000
     12 H1          1.5420   -0.2100   -1.7580 hn        1 141      0.351500
     13 O2          4.0230   -0.4760   -1.8060 o         1 141     -0.504100
@<TRIPOS>BOND
     1    1    2 2   
     2    2    3 1   
     3    2   10 1   
     4    3    4 2   
     5    3   11 1   
     6    4    5 2   
     7    5    6 1   
     8    6    7 2   
     9    7    8 2   
    10    8    9 1   
    11    9   10 1   
    12    9   13 2   
    13   10   12 1   
@<TRIPOS>SUBSTRUCTURE
     1 141         1 TEMP              0 ****  ****    0 ROOT
