@<TRIPOS>MOLECULE
141
   15    15     1     0     0
SMALL
bcc


@<TRIPOS>ATOM
      1 O6          0.6060    1.1090    1.1530 o         1 141     -0.329000
      2 C6          1.6090    0.6380    0.5930 c2        1 141      0.301000
      3 C5          2.8980    0.3610    1.3700 c3        1 141     -0.059000
      4 C7          2.6410   -0.5680    2.5010 c2        1 141     -0.381000
      5 N8          1.8380   -0.2690    3.4960 n2        1 141      0.171000
      6 N9          1.1570   -0.0220    4.3660 n1        1 141      0.002000
      7 C4          3.9830   -0.2150    0.4990 c2        1 141      0.001000
      8 N3          3.9170   -0.4500   -0.7630 n2        1 141     -0.156000
      9 C2          2.6900   -0.1790   -1.4690 c2        1 141      0.338000
     10 N1          1.5860    0.3680   -0.7710 n         1 141     -0.391000
     11 H1          3.2580    1.3660    1.7480 hc        1 141      0.146000
     12 H2          3.1030   -1.5650    2.5170 h4        1 141      0.191000
     13 H4          0.7470    0.5410   -1.2840 hn        1 141      0.262000
     14 H5          4.9400   -0.4470    1.0130 h4        1 141      0.179000
     15 O2          2.5730   -0.4090   -2.6820 o         1 141     -0.276000
@<TRIPOS>BOND
     1    1    2 1   
     2    2    3 1   
     3    2   10 1   
     4    3    4 1   
     5    3    7 1   
     6    3   11 1   
     7    4    5 1   
     8    4   12 1   
     9    5    6 1   
    10    7    8 1   
    11    7   14 1   
    12    8    9 1   
    13    9   10 1   
    14    9   15 1   
    15   10   13 1   
@<TRIPOS>SUBSTRUCTURE
     1 141         1 TEMP              0 ****  ****    0 ROOT
