@<TRIPOS>MOLECULE
141
   13    14     1     0     0
SMALL
bcc


@<TRIPOS>ATOM
      1 O6         -0.4290    2.6560   -0.0000 o         1 141     -0.567500
      2 C6         -0.4320    1.4170   -0.0000 c         1 141      0.746100
      3 C5          0.7710    0.5830    0.0000 cc        1 141     -0.388200
      4 C7          2.1140    0.7830    0.0000 cd        1 141      0.436200
      5 N8          2.7740   -0.5430    0.0000 nd        1 141     -0.269000
      6 N9          1.9790   -1.4750    0.0000 nc        1 141     -0.199000
      7 C4          0.5780   -0.9250    0.0000 cc        1 141      0.318300
      8 N3         -0.5510   -1.5460    0.0000 nd        1 141     -0.190400
      9 C2         -1.7410   -0.7040   -0.0000 c         1 141      0.817900
     10 N1         -1.6420    0.7080   -0.0000 n         1 141     -0.612500
     11 H7          2.7300    1.6860    0.0000 h4        1 141      0.079100
     12 H1         -2.4950    1.2270   -0.0000 hn        1 141      0.357500
     13 O2         -2.8650   -1.2250   -0.0000 o         1 141     -0.527500
@<TRIPOS>BOND
     1    1    2 2   
     2    2    3 1   
     3    2   10 1   
     4    3    4 2   
     5    3    7 1   
     6    4    5 1   
     7    4   11 1   
     8    5    6 2   
     9    6    7 1   
    10    7    8 2   
    11    8    9 1   
    12    9   10 1   
    13    9   13 2   
    14   10   12 1   
@<TRIPOS>SUBSTRUCTURE
     1 141         1 TEMP              0 ****  ****    0 ROOT
