@<TRIPOS>MOLECULE
141
   13    10     1     0     0
SMALL
bcc


@<TRIPOS>ATOM
      1 O6         -2.2710   -0.1760   -0.6120 o         1 141     -0.505500
      2 C6         -1.0570   -0.1760   -0.6120 c1        1 141      0.593000
      3 C5         -0.3300   -0.1760    0.6470 cg        1 141     -0.237000
      4 C7         -0.8910   -0.5000    1.9410 c1        1 141      0.028500
      5 N8          0.1420   -0.3790    2.8820 n1        1 141      0.029000
      6 N9          1.3440    0.0210    2.1630 n1        1 141      0.029000
      7 C4          0.9850    0.1390    0.7130 cg        1 141      0.315800
      8 N3          1.7910    0.4910   -0.3540 n1        1 141     -0.376800
      9 O2          1.7370    1.0780   -2.6240 o         1 141     -0.505500
     10 C2          1.1650    0.5290   -1.7040 c1        1 141      0.593000
     11 N1         -0.3260    0.1780   -1.8270 n3        1 141     -0.441700
     12 H7         -1.5450   -1.2200    2.0230 ha        1 141      0.158500
     13 H1         -0.7440    0.1900   -2.6370 hn        1 141      0.320700
@<TRIPOS>BOND
     1    1    2 2   
     2    2   11 2   
     3    3    4 3   
     4    3    7 1   
     5    4   12 1   
     6    5    6 3   
     7    7    8 3   
     8    9   10 2   
     9   10   11 2   
    10   11   13 1   
@<TRIPOS>SUBSTRUCTURE
     1 141         1 TEMP              0 ****  ****    0 ROOT
