@<TRIPOS>MOLECULE
142
   31    31     1     0     0
SMALL
bcc


@<TRIPOS>ATOM
      1 NN          1.6010   -0.1430   -0.0560 ny        1 142     -0.555800
      2 N           2.2510   -0.1550   -1.2890 n8        1 142     -0.673600
      3 CA          0.0490   -0.2110   -0.1380 c3        1 142      0.122200
      4 CB         -0.4900   -0.1360    1.3120 c3        1 142     -0.037100
      5 CB1        -0.3990   -1.4950   -0.8220 c3        1 142     -0.141100
      6 CG         -1.9730   -0.0290    1.3500 ca        1 142     -0.137300
      7 CD1        -2.5690    1.2370    1.2680 ca        1 142     -0.131000
      8 CE1        -3.9580    1.3580    1.3540 ca        1 142      0.131100
      9 CD2        -2.7620   -1.1670    1.5320 ca        1 142     -0.112000
     10 CE2        -4.1500   -1.0590    1.6230 ca        1 142     -0.166000
     11 CZ         -4.7530    0.1980    1.5330 ca        1 142      0.083100
     12 OH         -6.1070    0.4080    1.6080 oh        1 142     -0.498100
     13 OE1        -4.4840    2.6180    1.2560 oh        1 142     -0.482100
     14 C          -0.4240    1.0010   -0.9450 c         1 142      0.630100
     15 O          -1.1160    0.9940   -1.9540 o         1 142     -0.449000
     16 OXT         0.0260    2.1770   -0.4350 oh        1 142     -0.615100
     17 HNN         1.8270    0.7770    0.3760 hn        1 142      0.460300
     18 HN1         3.2400   -0.3440   -1.1620 hn        1 142      0.418800
     19 HN2         1.8460   -0.8520   -1.9040 hn        1 142      0.418800
     20 HB1        -0.1660   -1.0600    1.8630 hc        1 142      0.078200
     21 HB2        -0.0510    0.7640    1.8260 hc        1 142      0.078200
     22 HB11       -0.2220   -1.4630   -1.9260 hc        1 142      0.093033
     23 HB12        0.0930   -2.3930   -0.3770 hc        1 142      0.093033
     24 HB13       -1.5090   -1.5900   -0.6700 hc        1 142      0.093033
     25 HD1        -1.9590    2.1450    1.1410 ha        1 142      0.156000
     26 HD2        -2.2950   -2.1600    1.6180 ha        1 142      0.136000
     27 HE2        -4.7660   -1.9580    1.7710 ha        1 142      0.156000
     28 HH         -6.5440   -0.4440    1.7640 ho        1 142      0.446000
     29 HE1        -5.4490    2.5580    1.3580 ho        1 142      0.454000
     30 HN21        1.8970   -0.8980    0.5840 hn        1 142      0.460300
     31 HN3        -0.3250    2.9250   -0.9560 ho        1 142      0.488000
@<TRIPOS>BOND
     1    1    2 1   
     2    1    3 1   
     3    1   17 1   
     4    1   30 1   
     5    2   18 1   
     6    2   19 1   
     7    3    4 1   
     8    3    5 1   
     9    3   14 1   
    10    4    6 1   
    11    4   20 1   
    12    4   21 1   
    13    5   22 1   
    14    5   23 1   
    15    5   24 1   
    16    6    7 ar  
    17    6    9 ar  
    18    7    8 ar  
    19    7   25 1   
    20    8   11 ar  
    21    8   13 1   
    22    9   10 ar  
    23    9   26 1   
    24   10   11 ar  
    25   10   27 1   
    26   11   12 1   
    27   12   28 1   
    28   13   29 1   
    29   14   15 2   
    30   14   16 1   
    31   16   31 1   
@<TRIPOS>SUBSTRUCTURE
     1 142         1 TEMP              0 ****  ****    0 ROOT
