@<TRIPOS>MOLECULE
142
   29    29     1     0     0
SMALL
bcc


@<TRIPOS>ATOM
      1 NN          0.8340   -0.5820    3.3200 n3        1 142     -0.573000
      2 N           0.5360    0.2280    4.3800 n3        1 142     -0.676600
      3 CA          0.3560   -0.1420    1.9600 c3        1 142      0.008200
      4 CB          0.7440   -1.2430    0.9510 c3        1 142     -0.021100
      5 CB1         1.0020    1.1850    1.5690 c3        1 142     -0.071100
      6 CG          0.7610   -0.8070   -0.4740 ca        1 142     -0.040300
      7 CD1        -0.4430   -0.5290   -1.1320 ca        1 142     -0.158000
      8 CE1        -0.4290   -0.1660   -2.4790 ca        1 142      0.033100
      9 CD2         1.9670   -0.7240   -1.1830 ca        1 142     -0.144000
     10 CE2         1.9880   -0.3670   -2.5300 ca        1 142     -0.149000
     11 CZ          0.7870   -0.0840   -3.1890 ca        1 142      0.077100
     12 OH          0.8500    0.2580   -4.5240 oh        1 142     -0.516100
     13 OE1        -1.5810    0.1220   -3.1900 oh        1 142     -0.539100
     14 C          -1.2020    0.0660    1.9940 c         1 142      0.889600
     15 O          -1.6270    1.0830    2.6130 o         1 142     -0.835800
     16 OXT        -1.9530   -0.8000    1.4640 o         1 142     -0.835800
     17 HNN         0.3730   -1.4700    3.4930 hn        1 142      0.350800
     18 HN1         1.1330    1.0430    4.3120 hn        1 142      0.342300
     19 HN2        -0.4210    0.5800    4.3460 hn        1 142      0.342300
     20 HB1         1.7560   -1.6550    1.2110 hc        1 142      0.052700
     21 HB2        -0.0120   -2.0710    1.0540 hc        1 142      0.052700
     22 HB11        2.1150    1.1250    1.6180 hc        1 142      0.029033
     23 HB12        0.7000    1.4440    0.5250 hc        1 142      0.029033
     24 HB13        0.6430    2.0040    2.2390 hc        1 142      0.029033
     25 HD1        -1.3910   -0.5910   -0.5610 ha        1 142      0.206000
     26 HD2         2.9150   -0.9380   -0.6690 ha        1 142      0.126000
     27 HE2         2.9330   -0.3000   -3.0840 ha        1 142      0.131000
     28 HH         -0.0490    0.4830   -4.8050 ho        1 142      0.425000
     29 HE1        -2.3090    0.1490   -2.5510 ho        1 142      0.435000
@<TRIPOS>BOND
     1    1    2 1   
     2    1    3 1   
     3    1   17 1   
     4    2   18 1   
     5    2   19 1   
     6    3    4 1   
     7    3    5 1   
     8    3   14 1   
     9    4    6 1   
    10    4   20 1   
    11    4   21 1   
    12    5   22 1   
    13    5   23 1   
    14    5   24 1   
    15    6    7 ar  
    16    6    9 ar  
    17    7    8 ar  
    18    7   25 1   
    19    8   11 ar  
    20    8   13 1   
    21    9   10 ar  
    22    9   26 1   
    23   10   11 ar  
    24   10   27 1   
    25   11   12 1   
    26   12   28 1   
    27   13   29 1   
    28   14   15 1   
    29   14   16 1   
@<TRIPOS>SUBSTRUCTURE
     1 142         1 TEMP              0 ****  ****    0 ROOT
