@<TRIPOS>MOLECULE
142
   31    31     1     0     0
SMALL
bcc


@<TRIPOS>ATOM
      1 NN          1.6080   -0.1240   -0.0110 n4        1 142     -0.555800
      2 N           2.2760   -0.1420   -1.2340 n3        1 142     -0.673600
      3 CA          0.0590   -0.2040   -0.1150 c3        1 142      0.122200
      4 CB         -0.5010   -0.1200    1.3260 c3        1 142     -0.037100
      5 CB1        -0.3690   -1.4990   -0.7930 c3        1 142     -0.141100
      6 CG         -1.9860   -0.0240    1.3430 ca        1 142     -0.137300
      7 CD1        -2.5900    1.2360    1.2390 ca        1 142     -0.131000
      8 CE1        -3.9820    1.3470    1.3040 ca        1 142      0.131100
      9 CD2        -2.7690   -1.1670    1.5240 ca        1 142     -0.112000
     10 CE2        -4.1580   -1.0690    1.5950 ca        1 142     -0.166000
     11 CZ         -4.7690    0.1820    1.4830 ca        1 142      0.083100
     12 OH         -6.1260    0.3830    1.5370 oh        1 142     -0.498100
     13 OE1        -4.5160    2.6020    1.1860 oh        1 142     -0.482100
     14 C          -0.4120    0.9950   -0.9400 c         1 142      0.630100
     15 O          -1.0890    0.9730   -1.9600 o         1 142     -0.449000
     16 OXT         0.0210    2.1800   -0.4360 oh        1 142     -0.615100
     17 HNN         1.9010   -0.8700    0.6400 hn        1 142      0.460300
     18 HN1         3.2640   -0.3230   -1.0910 hn        1 142      0.418800
     19 HN2        -0.3280    2.9200   -0.9690 ho        1 142      0.488000
     20 HB1        -0.0770    0.7890    1.8380 hc        1 142      0.078200
     21 HB2        -0.1780   -1.0360    1.8910 hc        1 142      0.078200
     22 HB11        0.1230   -2.3890   -0.3320 hc        1 142      0.093033
     23 HB12       -0.1760   -1.4770   -1.8940 hc        1 142      0.093033
     24 HB13       -1.4800   -1.6020   -0.6560 hc        1 142      0.093033
     25 HD1        -1.9850    2.1480    1.1120 ha        1 142      0.156000
     26 HD2        -2.2960   -2.1550    1.6270 ha        1 142      0.136000
     27 HE2        -4.7700   -1.9710    1.7420 ha        1 142      0.156000
     28 HH         -6.5590   -0.4710    1.6950 ho        1 142      0.446000
     29 HE1        -5.4820    2.5350    1.2750 ho        1 142      0.454000
     30 HN21        1.8210    0.8020    0.4150 hn        1 142      0.460300
     31 HN3         1.8860   -0.8480   -1.8490 hn        1 142      0.418800
@<TRIPOS>BOND
     1    1    2 1   
     2    1    3 1   
     3    1   17 1   
     4    1   30 1   
     5    2   18 1   
     6    2   31 1   
     7    3    4 1   
     8    3    5 1   
     9    3   14 1   
    10    4    6 1   
    11    4   20 1   
    12    4   21 1   
    13    5   22 1   
    14    5   23 1   
    15    5   24 1   
    16    6    7 ar  
    17    6    9 ar  
    18    7    8 ar  
    19    7   25 1   
    20    8   11 ar  
    21    8   13 1   
    22    9   10 ar  
    23    9   26 1   
    24   10   11 ar  
    25   10   27 1   
    26   11   12 1   
    27   12   28 1   
    28   13   29 1   
    29   14   15 2   
    30   14   16 1   
    31   16   19 1   
@<TRIPOS>SUBSTRUCTURE
     1 142         1 TEMP              0 ****  ****    0 ROOT
