@<TRIPOS>MOLECULE
142
   31    31     1     0     0
SMALL
bcc


@<TRIPOS>ATOM
      1 NN          1.6010   -0.1440   -0.0490 n4        1 142     -0.555800
      2 N           2.2560   -0.1440   -1.2790 n3        1 142     -0.673600
      3 CA          0.0510   -0.2070   -0.1360 c3        1 142      0.122200
      4 CB         -0.4930   -0.1470    1.3130 c3        1 142     -0.037100
      5 CB1        -0.3980   -1.4840   -0.8350 c3        1 142     -0.141100
      6 CG         -1.9760   -0.0370    1.3480 ca        1 142     -0.137300
      7 CD1        -2.5690    1.2300    1.2770 ca        1 142     -0.131000
      8 CE1        -3.9590    1.3530    1.3610 ca        1 142      0.131100
      9 CD2        -2.7680   -1.1760    1.5160 ca        1 142     -0.112000
     10 CE2        -4.1550   -1.0670    1.6050 ca        1 142     -0.166000
     11 CZ         -4.7560    0.1920    1.5260 ca        1 142      0.083100
     12 OH         -6.1100    0.4040    1.5990 oh        1 142     -0.498100
     13 OE1        -4.4820    2.6150    1.2730 oh        1 142     -0.482100
     14 C          -0.4180    1.0130   -0.9310 c         1 142      0.630100
     15 O          -1.1060    1.0190   -1.9430 o         1 142     -0.449000
     16 OXT         0.0330    2.1830   -0.4080 oh        1 142     -0.615100
     17 HNN         1.8290    0.7710    0.3940 hn        1 142      0.460300
     18 HN1        -0.3150    2.9370   -0.9220 ho        1 142      0.488000
     19 HN2         3.2430   -0.3380   -1.1520 hn        1 142      0.418800
     20 HB1        -0.1720   -1.0770    1.8560 hc        1 142      0.078200
     21 HB2        -0.0540    0.7470    1.8380 hc        1 142      0.078200
     22 HB11       -1.5090   -1.5790   -0.6870 hc        1 142      0.093033
     23 HB12       -0.2180   -1.4410   -1.9380 hc        1 142      0.093033
     24 HB13        0.0900   -2.3870   -0.3980 hc        1 142      0.093033
     25 HD1        -1.9570    2.1390    1.1610 ha        1 142      0.156000
     26 HD2        -2.3030   -2.1710    1.5940 ha        1 142      0.136000
     27 HE2        -4.7740   -1.9660    1.7410 ha        1 142      0.156000
     28 HH         -6.5480   -0.4490    1.7450 ho        1 142      0.446000
     29 HE1        -5.4480    2.5550    1.3720 ho        1 142      0.454000
     30 HN21        1.8940   -0.9060    0.5840 hn        1 142      0.460300
     31 HN3         1.8500   -0.8330   -1.9040 hn        1 142      0.418800
@<TRIPOS>BOND
     1    1    2 1   
     2    1    3 1   
     3    1   17 1   
     4    1   30 1   
     5    2   19 1   
     6    2   31 1   
     7    3    4 1   
     8    3    5 1   
     9    3   14 1   
    10    4    6 1   
    11    4   20 1   
    12    4   21 1   
    13    5   22 1   
    14    5   23 1   
    15    5   24 1   
    16    6    7 ar  
    17    6    9 ar  
    18    7    8 ar  
    19    7   25 1   
    20    8   11 ar  
    21    8   13 1   
    22    9   10 ar  
    23    9   26 1   
    24   10   11 ar  
    25   10   27 1   
    26   11   12 1   
    27   12   28 1   
    28   13   29 1   
    29   14   15 2   
    30   14   16 1   
    31   16   18 1   
@<TRIPOS>SUBSTRUCTURE
     1 142         1 TEMP              0 ****  ****    0 ROOT
