@<TRIPOS>MOLECULE
142
   29    27     1     0     0
SMALL
bcc


@<TRIPOS>ATOM
      1 NN          2.0430    1.2010   -0.8500 n3        1 142     -0.204000
      2 N           2.2960    1.2860   -2.2130 n3        1 142     -0.256000
      3 CA          1.6740   -0.1330   -0.5190 c3        1 142     -0.095000
      4 CB          1.1120   -0.1680    0.8900 c3        1 142     -0.105000
      5 CB1         2.8900   -1.0260   -0.5990 c3        1 142     -0.225000
      6 CG         -0.4120   -0.1810    0.8310 c2        1 142     -0.007000
      7 CD1        -1.1150    1.0160    0.8970 c1        1 142     -0.147000
      8 CE1        -2.5000    1.0030    1.0060 c1        1 142      0.000500
      9 CD2        -1.0950   -1.3900    0.8740 c2        1 142     -0.103000
     10 CE2        -2.4810   -1.4010    0.9840 c1        1 142     -0.171000
     11 CZ         -3.1830   -0.2060    1.0490 c1        1 142      0.000500
     12 OH         -4.5840   -0.2180    1.2030 oh        1 142     -0.279000
     13 OE1        -3.2070    2.2130    1.1120 oh        1 142     -0.279000
     14 C           0.6260   -0.6220   -1.4920 c2        1 142      0.345000
     15 O           0.6790   -1.8020   -1.9350 o         1 142     -0.569500
     16 OXT        -0.2690    0.1640   -1.9010 o         1 142     -0.569500
     17 HNN         2.7970    1.4340   -0.3840 hn        1 142      0.127000
     18 HN1         3.1550    1.5820   -2.3460 hn        1 142      0.138000
     19 HN2         1.7090    1.8740   -2.5960 hn        1 142      0.138000
     20 HB1         1.4130    0.6230    1.3810 hc        1 142      0.087500
     21 HB2         1.4280   -0.9740    1.3460 hc        1 142      0.087500
     22 HB11        2.6600   -1.9210   -0.2740 hc        1 142      0.065667
     23 HB12        3.6080   -0.6510   -0.0450 hc        1 142      0.065667
     24 HB13        3.1920   -1.0840   -1.5290 hc        1 142      0.065667
     25 HD1        -0.6370    1.8640    0.8660 ha        1 142      0.136000
     26 HD2        -0.6030   -2.2290    0.8280 ha        1 142      0.200000
     27 HE2        -2.9610   -2.2500    1.0140 ha        1 142      0.122000
     28 HH         -4.9650   -0.4520    0.4320 ho        1 142      0.215500
     29 HE1        -3.2700    2.4470    1.9700 ho        1 142      0.215500
@<TRIPOS>BOND
     1    1    2 1   
     2    1    3 1   
     3    1   17 1   
     4    2   18 1   
     5    2   19 1   
     6    3    4 1   
     7    3    5 1   
     8    3   14 1   
     9    4    6 1   
    10    4   20 1   
    11    4   21 1   
    12    5   22 1   
    13    5   23 1   
    14    5   24 1   
    15    6    7 1   
    16    6    9 1   
    17    7   25 1   
    18    8   11 1   
    19    8   13 1   
    20    9   10 1   
    21    9   26 1   
    22   10   27 1   
    23   11   12 1   
    24   12   28 1   
    25   13   29 1   
    26   14   15 1   
    27   14   16 1   
@<TRIPOS>SUBSTRUCTURE
     1 142         1 TEMP              0 ****  ****    0 ROOT
