@<TRIPOS>MOLECULE
143
   28    28     1     0     0
SMALL
bcc


@<TRIPOS>ATOM
      1 N           1.9480   -0.7380    4.0240 n3        1 143     -0.903800
      2 CA          0.7250    0.0340    3.9210 c3        1 143      0.040500
      3 CB         -0.0890   -0.1810    2.6470 c3        1 143      0.000700
      4 SG          0.8840    0.2860    1.2270 ss        1 143     -0.391200
      5 C          -0.2610   -0.2340    5.1170 c         1 143      0.916600
      6 O          -0.3270   -1.4060    5.5830 o         1 143     -0.840800
      7 CI          0.4890    0.7210   -3.7600 c3        1 143      0.072700
      8 NI         -0.4060    1.5790   -4.5140 n3        1 143     -0.900800
      9 CJ          0.7920   -0.6440   -4.5050 c         1 143      0.925600
     10 OJ1         1.9210   -1.1590   -4.2950 o         1 143     -0.827300
     11 OJ2        -0.0940   -1.1080   -5.2720 o         1 143     -0.827300
     12 CF          0.1110    0.4180   -2.3510 c2        1 143      0.083900
     13 OF         -1.0540    1.0550   -1.8280 os        1 143     -0.190400
     14 NX         -1.2310    0.7110   -0.5140 n3        1 143     -0.528700
     15 CD         -0.1400   -0.2400   -0.1450 c3        1 143      0.246800
     16 CE          0.6900   -0.3540   -1.3960 c2        1 143     -0.277200
     17 OXT        -0.9400    0.7450    5.5300 o         1 143     -0.840800
     18 H           1.7680   -1.5670    4.5650 hn        1 143      0.339300
     19 H2          2.2550   -1.0190    3.1100 hn        1 143      0.339300
     20 HA          1.0240    1.1220    3.9670 h1        1 143      0.056700
     21 HB2        -0.4020   -1.2480    2.5540 h1        1 143      0.063700
     22 HB3        -1.0060    0.4520    2.7020 h1        1 143      0.063700
     23 HI          1.4800    1.2680   -3.6980 h1        1 143      0.066700
     24 HI1        -0.9090    1.0130   -5.1780 hn        1 143      0.344300
     25 HI2        -1.0760    2.0130   -3.9090 hn        1 143      0.344300
     26 HX         -1.0960    1.5660    0.0290 hn        1 143      0.345800
     27 HD         -0.6330   -1.2100    0.1240 h2        1 143      0.088700
     28 HE          1.5760   -0.9760   -1.4860 ha        1 143      0.188000
@<TRIPOS>BOND
     1    1    2 1   
     2    1   18 1   
     3    1   19 1   
     4    2    3 1   
     5    2    5 1   
     6    2   20 1   
     7    3    4 1   
     8    3   21 1   
     9    3   22 1   
    10    4   15 1   
    11    5    6 1   
    12    5   17 1   
    13    7    8 1   
    14    7    9 1   
    15    7   12 1   
    16    7   23 1   
    17    8   24 1   
    18    8   25 1   
    19    9   10 1   
    20    9   11 1   
    21   12   13 1   
    22   12   16 2   
    23   13   14 1   
    24   14   15 1   
    25   14   26 1   
    26   15   16 1   
    27   15   27 1   
    28   16   28 1   
@<TRIPOS>SUBSTRUCTURE
     1 143         1 TEMP              0 ****  ****    0 ROOT
