@<TRIPOS>MOLECULE
144
   20    19     1     0     0
SMALL
bcc


@<TRIPOS>ATOM
      1 C1         -0.0690    0.0220   -0.0360 c3        1 144      0.096100
      2 N           1.4180   -0.0000   -0.0480 n4        1 144     -0.740800
      3 C2          1.9110   -0.0970    1.3860 c3        1 144      0.330933
      4 O2          3.2390   -0.5450    1.4020 oh        1 144     -0.559133
      5 C3          1.9120   -1.2190   -0.8420 c3        1 144      0.330933
      6 O3          1.6390   -2.3900   -0.1400 oh        1 144     -0.559133
      7 C4          1.9540    1.2490   -0.7320 c3        1 144      0.330933
      8 O4          1.3460    2.3950   -0.2130 oh        1 144     -0.559133
      9 H11        -0.4260    0.8610    0.6190 hx        1 144      0.106367
     10 H12        -0.4480   -0.9650    0.3440 hx        1 144      0.106367
     11 H13        -0.4430    0.1920   -1.0810 hx        1 144      0.106367
     12 H21         1.7660    0.9040    1.8780 hx        1 144      0.112533
     13 H22         1.3070   -0.9040    1.9050 hx        1 144      0.112533
     14 HO2         3.8360    0.2070    1.5240 ho        1 144      0.444667
     15 H31         3.0110   -1.0710   -1.0360 hx        1 144      0.112533
     16 H32         1.3070   -1.2720   -1.7940 hx        1 144      0.112533
     17 HO3         2.3920   -2.5990    0.4400 ho        1 144      0.444667
     18 H41         1.6430    1.2020   -1.8190 hx        1 144      0.112533
     19 H42         3.0740    1.2460   -0.6170 hx        1 144      0.112533
     20 HO4         1.9140    2.7830    0.4690 ho        1 144      0.444667
@<TRIPOS>BOND
     1    1    2 1   
     2    1    9 1   
     3    1   10 1   
     4    1   11 1   
     5    2    3 1   
     6    2    5 1   
     7    2    7 1   
     8    3    4 1   
     9    3   12 1   
    10    3   13 1   
    11    4   14 1   
    12    5    6 1   
    13    5   15 1   
    14    5   16 1   
    15    6   17 1   
    16    7    8 1   
    17    7   18 1   
    18    7   19 1   
    19    8   20 1   
@<TRIPOS>SUBSTRUCTURE
     1 144         1 TEMP              0 ****  ****    0 ROOT
