@<TRIPOS>MOLECULE
144
   20    19     1     0     0
SMALL
bcc


@<TRIPOS>ATOM
      1 C1         -1.4790   -0.0360   -0.0380 c3        1 144      0.067100
      2 N          -0.0400    0.0040    0.0000 n4        1 144     -0.738800
      3 C2          0.4060   -0.0040    1.3750 c3        1 144      0.333600
      4 O2         -0.0050    1.1960    2.0160 oh        1 144     -0.560800
      5 C3          0.4970   -1.1520   -0.6880 c3        1 144      0.333600
      6 O3          0.1160   -2.3280   -0.0040 oh        1 144     -0.560800
      7 C4          0.4180    1.1950   -0.6450 c3        1 144      0.333600
      8 O4          0.0920    1.1410   -2.0220 oh        1 144     -0.560800
      9 H11        -1.7730   -0.2920   -0.9340 hx        1 144      0.100700
     10 H12        -1.8080   -0.6960    0.6190 hx        1 144      0.100700
     11 H13        -1.8380    0.8530    0.1830 hx        1 144      0.100700
     12 H21         1.4010   -0.0710    1.4020 hx        1 144      0.119700
     13 H22         0.0120   -0.7770    1.8430 hx        1 144      0.119700
     14 HO2         0.2130    1.1660    2.8500 ho        1 144      0.444000
     15 H31         0.1510   -1.1780   -1.5940 hx        1 144      0.119700
     16 H32         1.4640   -1.0930   -0.7150 hx        1 144      0.119700
     17 HO3         0.4400   -3.0490   -0.4390 ho        1 144      0.444000
     18 H41        -0.0110    1.9660   -0.2420 hx        1 144      0.119700
     19 H42         1.3700    1.2680   -0.5440 hx        1 144      0.119700
     20 HO4         0.3750    1.8880   -2.4240 ho        1 144      0.444000
@<TRIPOS>BOND
     1    1    2 1   
     2    1    9 1   
     3    1   10 1   
     4    1   11 1   
     5    2    3 1   
     6    2    5 1   
     7    2    7 1   
     8    3    4 1   
     9    3   12 1   
    10    3   13 1   
    11    4   14 1   
    12    5    6 1   
    13    5   15 1   
    14    5   16 1   
    15    6   17 1   
    16    7    8 1   
    17    7   18 1   
    18    7   19 1   
    19    8   20 1   
@<TRIPOS>SUBSTRUCTURE
     1 144         1 TEMP              0 ****  ****    0 ROOT
