@<TRIPOS>MOLECULE
144
   20    19     1     0     0
SMALL
bcc


@<TRIPOS>ATOM
      1 C1         -0.0680    0.0370   -0.0420 c3        1 144      0.096100
      2 N           1.4180   -0.0010   -0.0480 n4        1 144     -0.740800
      3 C2          1.9060   -0.0770    1.3890 c3        1 144      0.330933
      4 O2          3.2290   -0.5390    1.4160 oh        1 144     -0.559133
      5 C3          1.9020   -1.2370   -0.8200 c3        1 144      0.330933
      6 O3          1.6160   -2.3940   -0.1000 oh        1 144     -0.559133
      7 C4          1.9690    1.2310   -0.7520 c3        1 144      0.330933
      8 O4          1.3710    2.3920   -0.2550 oh        1 144     -0.559133
      9 H11        -0.4190    0.8900    0.5980 hx        1 144      0.106367
     10 H12        -0.4370    0.1930   -1.0910 hx        1 144      0.106367
     11 H13        -0.4590   -0.9400    0.3530 hx        1 144      0.106367
     12 H21         1.7700    0.9330    1.8630 hx        1 144      0.112533
     13 H22         1.2930   -0.8690    1.9190 hx        1 144      0.112533
     14 HO2         3.8340    0.2090    1.5270 ho        1 144      0.444667
     15 H31         3.0030   -1.1030   -1.0130 hx        1 144      0.112533
     16 H32         1.3000   -1.3000   -1.7740 hx        1 144      0.112533
     17 HO3         2.3650   -2.6010    0.4860 ho        1 144      0.444667
     18 H41         1.6610    1.1690   -1.8390 hx        1 144      0.112533
     19 H42         3.0880    1.2200   -0.6330 hx        1 144      0.112533
     20 HO4         1.9400    2.7870    0.4230 ho        1 144      0.444667
@<TRIPOS>BOND
     1    1    2 1   
     2    1    9 1   
     3    1   10 1   
     4    1   11 1   
     5    2    3 1   
     6    2    5 1   
     7    2    7 1   
     8    3    4 1   
     9    3   12 1   
    10    3   13 1   
    11    4   14 1   
    12    5    6 1   
    13    5   15 1   
    14    5   16 1   
    15    6   17 1   
    16    7    8 1   
    17    7   18 1   
    18    7   19 1   
    19    8   20 1   
@<TRIPOS>SUBSTRUCTURE
     1 144         1 TEMP              0 ****  ****    0 ROOT
