@<TRIPOS>MOLECULE
144
   20    19     1     0     0
SMALL
bcc


@<TRIPOS>ATOM
      1 C1         -0.0360    1.5720    0.8950 c3        1 144      0.096100
      2 N           0.0010    0.3830    0.0030 n4        1 144     -0.740800
      3 C2          0.0780   -0.8660    0.8660 c3        1 144      0.330933
      4 O2          0.5390   -1.9440    0.0980 oh        1 144     -0.559133
      5 C3         -1.2320    0.3610   -0.8890 c3        1 144      0.330933
      6 O3         -2.3920    0.5440   -0.1320 oh        1 144     -0.559133
      7 C4          1.2370    0.4540   -0.9050 c3        1 144      0.330933
      8 O4          2.3940    0.2550   -0.1570 oh        1 144     -0.559133
      9 H11         0.9410    1.6490    1.4450 hx        1 144      0.106367
     10 H12        -0.1920    2.4940    0.2740 hx        1 144      0.106367
     11 H13        -0.8890    1.4710    1.6190 hx        1 144      0.106367
     12 H21         0.8700   -0.6910    1.6570 hx        1 144      0.112533
     13 H22        -0.9320   -1.0400    1.3280 hx        1 144      0.112533
     14 HO2        -0.2090   -2.4960   -0.1730 ho        1 144      0.444667
     15 H31        -1.1700    1.2560   -1.5780 hx        1 144      0.112533
     16 H32        -1.2210   -0.6080   -1.4610 hx        1 144      0.112533
     17 HO3        -2.7870   -0.3170    0.0720 ho        1 144      0.444667
     18 H41         1.1020   -0.3140   -1.7170 hx        1 144      0.112533
     19 H42         1.2990    1.5070   -1.3120 hx        1 144      0.112533
     20 HO4         2.6000   -0.6960   -0.1340 ho        1 144      0.444667
@<TRIPOS>BOND
     1    1    2 1   
     2    1    9 1   
     3    1   10 1   
     4    1   11 1   
     5    2    3 1   
     6    2    5 1   
     7    2    7 1   
     8    3    4 1   
     9    3   12 1   
    10    3   13 1   
    11    4   14 1   
    12    5    6 1   
    13    5   15 1   
    14    5   16 1   
    15    6   17 1   
    16    7    8 1   
    17    7   18 1   
    18    7   19 1   
    19    8   20 1   
@<TRIPOS>SUBSTRUCTURE
     1 144         1 TEMP              0 ****  ****    0 ROOT
