@<TRIPOS>MOLECULE
144
   20    19     1     0     0
SMALL
bcc


@<TRIPOS>ATOM
      1 C1         -0.0670    0.0420   -0.0570 c3        1 144      0.096100
      2 N           1.4200    0.0010   -0.0500 n4        1 144     -0.740800
      3 C2          1.8930   -0.0880    1.3910 c3        1 144      0.330933
      4 O2          3.2150   -0.5530    1.4270 oh        1 144     -0.559133
      5 C3          1.9080   -1.2310   -0.8260 c3        1 144      0.330933
      6 O3          1.6120   -2.3930   -0.1180 oh        1 144     -0.559133
      7 C4          1.9790    1.2370   -0.7390 c3        1 144      0.330933
      8 O4          1.3790    2.3950   -0.2380 oh        1 144     -0.559133
      9 H11        -0.4220    0.8910    0.5860 hx        1 144      0.106367
     10 H12        -0.4260    0.2060   -1.1080 hx        1 144      0.106367
     11 H13        -0.4630   -0.9370    0.3270 hx        1 144      0.106367
     12 H21         1.7550    0.9190    1.8710 hx        1 144      0.112533
     13 H22         1.2740   -0.8820    1.9090 hx        1 144      0.112533
     14 HO2         3.8210    0.1930    1.5500 ho        1 144      0.444667
     15 H31         3.0110   -1.0980   -1.0080 hx        1 144      0.112533
     16 H32         1.3140   -1.2850   -1.7860 hx        1 144      0.112533
     17 HO3         2.3550   -2.6050    0.4730 ho        1 144      0.444667
     18 H41         1.6810    1.1840   -1.8300 hx        1 144      0.112533
     19 H42         3.0970    1.2220   -0.6100 hx        1 144      0.112533
     20 HO4         1.9440    2.7830    0.4470 ho        1 144      0.444667
@<TRIPOS>BOND
     1    1    2 1   
     2    1    9 1   
     3    1   10 1   
     4    1   11 1   
     5    2    3 1   
     6    2    5 1   
     7    2    7 1   
     8    3    4 1   
     9    3   12 1   
    10    3   13 1   
    11    4   14 1   
    12    5    6 1   
    13    5   15 1   
    14    5   16 1   
    15    6   17 1   
    16    7    8 1   
    17    7   18 1   
    18    7   19 1   
    19    8   20 1   
@<TRIPOS>SUBSTRUCTURE
     1 144         1 TEMP              0 ****  ****    0 ROOT
