@<TRIPOS>MOLECULE
145
   36    37     1     0     0
SMALL
bcc


@<TRIPOS>ATOM
      1 C1         -0.1600    0.1200    0.3100 c3        1 145      0.311900
      2 C2          1.3530    0.2270    0.0360 c3        1 145      0.092100
      3 O2          1.7840   -0.8350   -0.7880 oh        1 145     -0.609800
      4 C3          2.1050    0.0960    1.3690 c3        1 145      0.111100
      5 O3          3.4880    0.3450    1.1920 oh        1 145     -0.605800
      6 C4          1.5920    1.1540    2.3630 c3        1 145      0.123100
      7 O4          1.9260    2.4650    1.9460 oh        1 145     -0.591800
      8 C5          0.0650    1.0560    2.4880 c3        1 145      0.112100
      9 C6         -0.5060    2.2320    3.2910 c3        1 145      0.141400
     10 O6         -1.9090    2.1280    3.3930 oh        1 145     -0.598800
     11 O5         -0.6060    1.1080    1.2250 os        1 145     -0.440600
     12 O1'        -0.7940    0.5190   -0.9010 os        1 145     -0.306900
     13 C1'        -2.0870    0.0770   -1.0930 ca        1 145      0.180100
     14 C2'        -2.4460   -0.3350   -2.3980 ca        1 145     -0.200200
     15 C3'        -3.7850   -0.6590   -2.6800 ca        1 145     -0.051000
     16 C4'        -4.7350   -0.6150   -1.6670 ca        1 145     -0.159000
     17 C5'        -4.3710   -0.2380   -0.3710 ca        1 145     -0.064000
     18 C6'        -3.0570    0.1110   -0.0810 ca        1 145     -0.183000
     19 N1'        -1.4360   -0.4330   -3.4800 no        1 145      0.328200
     20 O2'        -1.8160   -0.4590   -4.6210 o         1 145     -0.211500
     21 O3'        -0.2700   -0.5100   -3.1990 o         1 145     -0.211500
     22 H1         -0.4710   -0.9080    0.6380 h2        1 145      0.065700
     23 H2          1.5790    1.2230   -0.4380 h1        1 145      0.090700
     24 HO2         1.3510   -0.7170   -1.6490 ho        1 145      0.447000
     25 H3          1.9580   -0.9370    1.7900 h1        1 145      0.058700
     26 HO3         3.7780   -0.2100    0.4540 ho        1 145      0.434000
     27 H4          2.0560    0.9600    3.3720 h1        1 145      0.059700
     28 HO4         2.8640    2.4530    1.7100 ho        1 145      0.428000
     29 H5         -0.1910    0.0780    2.9840 h1        1 145      0.052700
     30 H61        -0.1240    2.1860    4.3440 h1        1 145      0.070700
     31 H62        -0.2060    3.1990    2.8080 h1        1 145      0.070700
     32 HO6        -2.2650    2.2360    2.5010 ho        1 145      0.411000
     33 H3'        -4.0720   -0.9500   -3.7060 ha        1 145      0.172000
     34 H4'        -5.7800   -0.8770   -1.8910 ha        1 145      0.151000
     35 H5'        -5.1320   -0.2080    0.4250 ha        1 145      0.149000
     36 H6'        -2.7640    0.4340    0.9320 ha        1 145      0.171000
@<TRIPOS>BOND
     1    1    2 1   
     2    1   11 1   
     3    1   12 1   
     4    1   22 1   
     5    2    3 1   
     6    2    4 1   
     7    2   23 1   
     8    3   24 1   
     9    4    5 1   
    10    4    6 1   
    11    4   25 1   
    12    5   26 1   
    13    6    7 1   
    14    6    8 1   
    15    6   27 1   
    16    7   28 1   
    17    8    9 1   
    18    8   11 1   
    19    8   29 1   
    20    9   10 1   
    21    9   30 1   
    22    9   31 1   
    23   10   32 1   
    24   12   13 1   
    25   13   14 ar  
    26   13   18 ar  
    27   14   15 ar  
    28   14   19 1   
    29   15   16 ar  
    30   15   33 1   
    31   16   17 ar  
    32   16   34 1   
    33   17   18 ar  
    34   17   35 1   
    35   18   36 1   
    36   19   20 1   
    37   19   21 1   
@<TRIPOS>SUBSTRUCTURE
     1 145         1 TEMP              0 ****  ****    0 ROOT
