@<TRIPOS>MOLECULE
145
   36    35     1     0     0
SMALL
bcc


@<TRIPOS>ATOM
      1 C1          0.4090   -0.1760   -0.3190 c3        1 145      0.155000
      2 C2          1.8380   -0.5370   -0.1790 c3        1 145     -0.028000
      3 O2          1.9290   -1.9610    0.2340 oh        1 145     -0.322000
      4 C3          2.4890    0.2640    0.7930 c3        1 145     -0.020000
      5 O3          2.9170    1.6320    0.0270 oh        1 145     -0.317000
      6 C4          1.9160    0.6770    2.0160 c3        1 145     -0.013000
      7 O4          2.6210    1.8040    2.4890 oh        1 145     -0.316000
      8 C5          0.4440    1.0490    1.8430 c3        1 145     -0.037000
      9 C6          0.1770    2.1670    2.6070 c3        1 145     -0.007000
     10 O6         -0.9320    1.9400    3.3920 oh        1 145     -0.323000
     11 O5          0.0370    1.3700    0.2890 os        1 145     -0.310000
     12 O1'         0.0900   -0.2220   -1.5600 os        1 145     -0.204000
     13 C1'        -1.0870   -0.9290   -1.7060 c2        1 145      0.140000
     14 C2'        -2.2250   -0.2810   -2.1720 c2        1 145     -0.143000
     15 C3'        -3.3310   -0.9980   -2.4770 c1        1 145     -0.053000
     16 C4'        -3.3270   -2.3950   -2.3220 c1        1 145     -0.110000
     17 C5'        -2.2180   -3.0230   -1.8690 c1        1 145     -0.110000
     18 C6'        -1.0860   -2.2890   -1.5570 c1        1 145     -0.182000
     19 N1'        -2.1400    1.0750   -2.5660 no        1 145      0.581000
     20 O2'        -3.0960    1.6130   -3.2960 o         1 145     -0.355500
     21 O3'        -1.2190    1.7710   -2.1620 o         1 145     -0.355500
     22 H1         -0.1760   -0.9030    0.2140 h2        1 145      0.119000
     23 H2          2.2900   -0.4180   -1.0520 h1        1 145      0.123000
     24 HO2         2.6310   -2.3440   -0.1600 ho        1 145      0.217000
     25 H3          3.2820   -0.1870    1.0120 h1        1 145      0.124000
     26 HO3         3.7940    1.6540   -0.0580 ho        1 145      0.240000
     27 H4          1.9990   -0.0810    2.6980 h1        1 145      0.124000
     28 HO4         3.1700    1.5580    3.1180 ho        1 145      0.223000
     29 H5         -0.1300    0.2730    2.1800 h1        1 145      0.109000
     30 H61         0.9380    2.3560    3.1790 h1        1 145      0.107000
     31 H62        -0.0020    2.9960    1.9700 h1        1 145      0.107000
     32 HO6        -1.2020    2.6990    3.7470 ho        1 145      0.206000
     33 H3'        -4.1320   -0.5440   -2.8030 ha        1 145      0.175000
     34 H4'        -4.1600   -2.9370   -2.5530 ha        1 145      0.150000
     35 H5'        -2.2170   -3.9360   -1.7660 ha        1 145      0.150000
     36 H6'        -0.2900   -2.7370   -1.2330 ha        1 145      0.155000
@<TRIPOS>BOND
     1    1    2 1   
     2    1   11 1   
     3    1   12 1   
     4    1   22 1   
     5    2    3 1   
     6    2    4 1   
     7    2   23 1   
     8    3   24 1   
     9    4    5 1   
    10    4    6 1   
    11    4   25 1   
    12    5   26 1   
    13    6    7 1   
    14    6    8 1   
    15    6   27 1   
    16    7   28 1   
    17    8    9 1   
    18    8   11 1   
    19    8   29 1   
    20    9   10 1   
    21    9   30 1   
    22    9   31 1   
    23   10   32 1   
    24   12   13 1   
    25   13   14 1   
    26   13   18 1   
    27   14   15 1   
    28   14   19 1   
    29   15   33 1   
    30   16   17 1   
    31   16   34 1   
    32   17   35 1   
    33   18   36 1   
    34   19   20 1   
    35   19   21 1   
@<TRIPOS>SUBSTRUCTURE
     1 145         1 TEMP              0 ****  ****    0 ROOT
