@<TRIPOS>MOLECULE
145
   36    37     1     0     0
SMALL
bcc


@<TRIPOS>ATOM
      1 C1         -0.1590    0.1250    0.3090 c3        1 145      0.311900
      2 C2          1.3530    0.2430    0.0300 c3        1 145      0.092100
      3 O2          1.7880   -0.8170   -0.7950 oh        1 145     -0.609800
      4 C3          2.1100    0.1170    1.3610 c3        1 145      0.111100
      5 O3          3.4900    0.3760    1.1790 oh        1 145     -0.605800
      6 C4          1.5930    1.1720    2.3560 c3        1 145      0.123100
      7 O4          1.9150    2.4850    1.9380 oh        1 145     -0.591800
      8 C5          0.0670    1.0630    2.4860 c3        1 145      0.112100
      9 C6         -0.5100    2.2340    3.2900 c3        1 145      0.141400
     10 O6         -1.9120    2.1210    3.3980 oh        1 145     -0.598800
     11 O5         -0.6090    1.1090    1.2250 os        1 145     -0.440600
     12 O1'        -0.8000    0.5180   -0.9000 os        1 145     -0.306900
     13 C1'        -2.0900    0.0670   -1.0880 ca        1 145      0.180100
     14 C2'        -2.4500   -0.3480   -2.3910 ca        1 145     -0.200200
     15 C3'        -3.7880   -0.6820   -2.6690 ca        1 145     -0.051000
     16 C4'        -4.7350   -0.6440   -1.6520 ca        1 145     -0.159000
     17 C5'        -4.3700   -0.2650   -0.3580 ca        1 145     -0.064000
     18 C6'        -3.0570    0.0950   -0.0720 ca        1 145     -0.183000
     19 N1'        -1.4430   -0.4400   -3.4770 no        1 145      0.328200
     20 O2'        -1.8270   -0.4680   -4.6160 o         1 145     -0.211500
     21 O3'        -0.2760   -0.5070   -3.1990 o         1 145     -0.211500
     22 H1         -0.4610   -0.9050    0.6380 h2        1 145      0.065700
     23 H2          1.5690    1.2400   -0.4450 h1        1 145      0.090700
     24 HO2         1.3530   -0.7020   -1.6550 ho        1 145      0.447000
     25 H3          1.9730   -0.9170    1.7820 h1        1 145      0.058700
     26 HO3         3.7820   -0.1760    0.4400 ho        1 145      0.434000
     27 H4          2.0620    0.9810    3.3630 h1        1 145      0.059700
     28 HO4         2.8530    2.4800    1.6980 ho        1 145      0.428000
     29 H5         -0.1800    0.0830    2.9830 h1        1 145      0.052700
     30 H61        -0.1240    2.1910    4.3420 h1        1 145      0.070700
     31 H62        -0.2190    3.2040    2.8070 h1        1 145      0.070700
     32 HO6        -2.2720    2.2250    2.5070 ho        1 145      0.411000
     33 H3'        -4.0770   -0.9760   -3.6930 ha        1 145      0.172000
     34 H4'        -5.7790   -0.9150   -1.8720 ha        1 145      0.151000
     35 H5'        -5.1270   -0.2390    0.4410 ha        1 145      0.149000
     36 H6'        -2.7630    0.4200    0.9400 ha        1 145      0.171000
@<TRIPOS>BOND
     1    1    2 1   
     2    1   11 1   
     3    1   12 1   
     4    1   22 1   
     5    2    3 1   
     6    2    4 1   
     7    2   23 1   
     8    3   24 1   
     9    4    5 1   
    10    4    6 1   
    11    4   25 1   
    12    5   26 1   
    13    6    7 1   
    14    6    8 1   
    15    6   27 1   
    16    7   28 1   
    17    8    9 1   
    18    8   11 1   
    19    8   29 1   
    20    9   10 1   
    21    9   30 1   
    22    9   31 1   
    23   10   32 1   
    24   12   13 1   
    25   13   14 ar  
    26   13   18 ar  
    27   14   15 ar  
    28   14   19 1   
    29   15   16 ar  
    30   15   33 1   
    31   16   17 ar  
    32   16   34 1   
    33   17   18 ar  
    34   17   35 1   
    35   18   36 1   
    36   19   20 1   
    37   19   21 1   
@<TRIPOS>SUBSTRUCTURE
     1 145         1 TEMP              0 ****  ****    0 ROOT
