@<TRIPOS>MOLECULE
145
   36    37     1     0     0
SMALL
bcc


@<TRIPOS>ATOM
      1 C1         -0.1600    0.1240    0.3090 c3        1 145      0.311900
      2 C2          1.3530    0.2410    0.0360 c3        1 145      0.092100
      3 O2          1.7900   -0.8150   -0.7940 oh        1 145     -0.609800
      4 C3          2.1050    0.1080    1.3690 c3        1 145      0.111100
      5 O3          3.4860    0.3660    1.1930 oh        1 145     -0.605800
      6 C4          1.5850    1.1580    2.3670 c3        1 145      0.123100
      7 O4          1.9110    2.4730    1.9570 oh        1 145     -0.591800
      8 C5          0.0590    1.0510    2.4910 c3        1 145      0.112100
      9 C6         -0.5190    2.2180    3.3000 c3        1 145      0.141400
     10 O6         -1.9220    2.1060    3.4010 oh        1 145     -0.598800
     11 O5         -0.6120    1.1040    1.2280 os        1 145     -0.440600
     12 O1'        -0.7960    0.5240   -0.9010 os        1 145     -0.306900
     13 C1'        -2.0860    0.0760   -1.0950 ca        1 145      0.180100
     14 C2'        -2.4420   -0.3310   -2.4020 ca        1 145     -0.200200
     15 C3'        -3.7800   -0.6620   -2.6870 ca        1 145     -0.051000
     16 C4'        -4.7310   -0.6290   -1.6730 ca        1 145     -0.159000
     17 C5'        -4.3690   -0.2560   -0.3760 ca        1 145     -0.064000
     18 C6'        -3.0570    0.1000   -0.0830 ca        1 145     -0.183000
     19 N1'        -1.4320   -0.4190   -3.4850 no        1 145      0.328200
     20 O2'        -1.8110   -0.4400   -4.6250 o         1 145     -0.211500
     21 O3'        -0.2650   -0.4900   -3.2030 o         1 145     -0.211500
     22 H1         -0.4650   -0.9080    0.6310 h2        1 145      0.065700
     23 H2          1.5720    1.2410   -0.4340 h1        1 145      0.090700
     24 HO2         1.3570   -0.6950   -1.6540 ho        1 145      0.447000
     25 H3          1.9640   -0.9280    1.7840 h1        1 145      0.058700
     26 HO3         3.7800   -0.1830    0.4520 ho        1 145      0.434000
     27 H4          2.0510    0.9620    3.3750 h1        1 145      0.059700
     28 HO4         2.8500    2.4680    1.7200 ho        1 145      0.428000
     29 H5         -0.1910    0.0680    2.9820 h1        1 145      0.052700
     30 H61        -0.2250    3.1900    2.8220 h1        1 145      0.070700
     31 H62        -0.1370    2.1700    4.3530 h1        1 145      0.070700
     32 HO6        -2.2780    2.2160    2.5100 ho        1 145      0.411000
     33 H3'        -4.0650   -0.9500   -3.7140 ha        1 145      0.172000
     34 H4'        -5.7740   -0.8960   -1.8980 ha        1 145      0.151000
     35 H5'        -5.1300   -0.2340    0.4210 ha        1 145      0.149000
     36 H6'        -2.7660    0.4190    0.9310 ha        1 145      0.171000
@<TRIPOS>BOND
     1    1    2 1   
     2    1   11 1   
     3    1   12 1   
     4    1   22 1   
     5    2    3 1   
     6    2    4 1   
     7    2   23 1   
     8    3   24 1   
     9    4    5 1   
    10    4    6 1   
    11    4   25 1   
    12    5   26 1   
    13    6    7 1   
    14    6    8 1   
    15    6   27 1   
    16    7   28 1   
    17    8    9 1   
    18    8   11 1   
    19    8   29 1   
    20    9   10 1   
    21    9   30 1   
    22    9   31 1   
    23   10   32 1   
    24   12   13 1   
    25   13   14 ar  
    26   13   18 ar  
    27   14   15 ar  
    28   14   19 1   
    29   15   16 ar  
    30   15   33 1   
    31   16   17 ar  
    32   16   34 1   
    33   17   18 ar  
    34   17   35 1   
    35   18   36 1   
    36   19   20 1   
    37   19   21 1   
@<TRIPOS>SUBSTRUCTURE
     1 145         1 TEMP              0 ****  ****    0 ROOT
