@<TRIPOS>MOLECULE
145
   36    37     1     0     0
SMALL
bcc


@<TRIPOS>ATOM
      1 C1         -0.6690   -0.1210   -0.3940 c3        1 145      0.311900
      2 C2         -1.4550   -1.4070   -0.0720 c3        1 145      0.092100
      3 O2         -0.8970   -2.5120   -0.7510 oh        1 145     -0.609800
      4 C3         -2.8950   -1.2440   -0.5830 c3        1 145      0.111100
      5 O3         -3.6990   -2.3350   -0.1710 oh        1 145     -0.605800
      6 C4         -3.5250    0.0200    0.0280 c3        1 145      0.123100
      7 O4         -3.7040   -0.1100    1.4260 oh        1 145     -0.591800
      8 C5         -2.6220    1.2330   -0.2360 c3        1 145      0.112100
      9 C6         -3.0980    2.4640    0.5440 c3        1 145      0.141400
     10 O6         -2.2560    3.5680    0.2920 oh        1 145     -0.598800
     11 O5         -1.2690    1.0280    0.1830 os        1 145     -0.440600
     12 O1'         0.5490   -0.2270    0.3360 os        1 145     -0.306900
     13 C1'         1.6100    0.5260   -0.1240 ca        1 145      0.180100
     14 C2'         2.8910   -0.0720   -0.0980 ca        1 145     -0.200200
     15 C3'         4.0230    0.6970   -0.4210 ca        1 145     -0.051000
     16 C4'         3.8710    2.0250   -0.8040 ca        1 145     -0.159000
     17 C5'         2.6000    2.6040   -0.8590 ca        1 145     -0.064000
     18 C6'         1.4730    1.8650   -0.5170 ca        1 145     -0.183000
     19 N1'         3.0680   -1.5000    0.2630 no        1 145      0.328200
     20 O2'         4.1600   -1.8790    0.5930 o         1 145     -0.211500
     21 O3'         2.1310   -2.2500    0.1950 o         1 145     -0.211500
     22 H1         -0.4980    0.0200   -1.4950 h2        1 145      0.065700
     23 H2         -1.4570   -1.5760    1.0410 h1        1 145      0.090700
     24 HO2        -0.0090   -2.6480   -0.3850 ho        1 145      0.447000
     25 H3         -2.8960   -1.1780   -1.7050 h1        1 145      0.058700
     26 HO3        -3.2220   -3.1410   -0.4150 ho        1 145      0.434000
     27 H4         -4.5270    0.1960   -0.4560 h1        1 145      0.059700
     28 HO4        -4.1260   -0.9680    1.5750 ho        1 145      0.428000
     29 H5         -2.6200    1.4430   -1.3430 h1        1 145      0.052700
     30 H61        -3.1350    2.2260    1.6400 h1        1 145      0.070700
     31 H62        -4.1120    2.7710    0.1760 h1        1 145      0.070700
     32 HO6        -1.3910    3.3530    0.6650 ho        1 145      0.411000
     33 H3'         5.0270    0.2400   -0.3710 ha        1 145      0.172000
     34 H4'         4.7590    2.6210   -1.0630 ha        1 145      0.151000
     35 H5'         2.4900    3.6560   -1.1650 ha        1 145      0.149000
     36 H6'         0.4680    2.3190   -0.5330 ha        1 145      0.171000
@<TRIPOS>BOND
     1    1    2 1   
     2    1   11 1   
     3    1   12 1   
     4    1   22 1   
     5    2    3 1   
     6    2    4 1   
     7    2   23 1   
     8    3   24 1   
     9    4    5 1   
    10    4    6 1   
    11    4   25 1   
    12    5   26 1   
    13    6    7 1   
    14    6    8 1   
    15    6   27 1   
    16    7   28 1   
    17    8    9 1   
    18    8   11 1   
    19    8   29 1   
    20    9   10 1   
    21    9   30 1   
    22    9   31 1   
    23   10   32 1   
    24   12   13 1   
    25   13   14 ar  
    26   13   18 ar  
    27   14   15 ar  
    28   14   19 1   
    29   15   16 ar  
    30   15   33 1   
    31   16   17 ar  
    32   16   34 1   
    33   17   18 ar  
    34   17   35 1   
    35   18   36 1   
    36   19   20 1   
    37   19   21 1   
@<TRIPOS>SUBSTRUCTURE
     1 145         1 TEMP              0 ****  ****    0 ROOT
