@<TRIPOS>MOLECULE
147
   36    37     1     0     0
SMALL
bcc


@<TRIPOS>ATOM
      1 C1         -1.1940   -0.5080   -0.3200 c3        1 147      0.309900
      2 C2         -2.5170   -1.2550   -0.0560 c3        1 147      0.085100
      3 O2         -2.4960   -2.5330   -0.6630 oh        1 147     -0.600800
      4 C3         -3.6670   -0.4720   -0.7080 c3        1 147      0.112100
      5 O3         -4.9170   -1.0360   -0.3570 oh        1 147     -0.602800
      6 C4         -3.6740    0.9740   -0.1800 c3        1 147      0.123100
      7 O4         -3.9970    1.0210    1.1970 oh        1 147     -0.589800
      8 C5         -2.2900    1.6060   -0.3770 c3        1 147      0.110100
      9 C6         -2.1890    2.9630    0.3300 c3        1 147      0.142400
     10 O6         -0.9440    3.5700    0.0650 oh        1 147     -0.596800
     11 O5         -1.2330    0.8180    0.1790 os        1 147     -0.434600
     12 O1'        -0.2250   -1.1300    0.5130 os        1 147     -0.323900
     13 C1'         1.1020   -0.8270    0.2850 ca        1 147      0.173100
     14 C2'         2.0160   -1.7060    0.8990 ca        1 147     -0.185000
     15 C3'         3.3780   -1.4900    0.7480 ca        1 147     -0.036000
     16 C4'         3.8270   -0.3990   -0.0200 ca        1 147     -0.212200
     17 C5'         2.9140    0.4810   -0.6230 ca        1 147     -0.036000
     18 C6'         1.5480    0.2680   -0.4670 ca        1 147     -0.185000
     19 N1'         5.2830   -0.1760   -0.1900 no        1 147      0.318200
     20 O2'         6.0540   -0.9330    0.3370 o         1 147     -0.211000
     21 O3'         5.6560    0.7550   -0.8530 o         1 147     -0.211000
     22 H1         -0.8960   -0.5300   -1.4040 h2        1 147      0.065700
     23 H2         -2.6880   -1.3380    1.0530 h1        1 147      0.091700
     24 HO2        -1.8230   -3.0490   -0.2000 ho        1 147      0.425000
     25 H3         -3.5460   -0.4790   -1.8260 h1        1 147      0.060700
     26 HO3        -4.8720   -1.9750   -0.5850 ho        1 147      0.432000
     27 H4         -4.4370    1.5680   -0.7600 h1        1 147      0.062700
     28 HO4        -4.8090    0.5060    1.3110 ho        1 147      0.427000
     29 H5         -2.1030    1.7220   -1.4820 h1        1 147      0.055700
     30 H61        -2.3490    2.8260    1.4320 h1        1 147      0.071200
     31 H62        -2.9590    3.6620   -0.0910 h1        1 147      0.071200
     32 HO6        -0.2680    3.0210    0.4820 ho        1 147      0.413000
     33 H2'         1.6420   -2.5490    1.4990 ha        1 147      0.163500
     34 H3'         4.1050   -2.1690    1.2250 ha        1 147      0.174000
     35 H5'         3.2770    1.3410   -1.2130 ha        1 147      0.174000
     36 H6'         0.8290    0.9740   -0.9100 ha        1 147      0.163500
@<TRIPOS>BOND
     1    1    2 1   
     2    1   11 1   
     3    1   12 1   
     4    1   22 1   
     5    2    3 1   
     6    2    4 1   
     7    2   23 1   
     8    3   24 1   
     9    4    5 1   
    10    4    6 1   
    11    4   25 1   
    12    5   26 1   
    13    6    7 1   
    14    6    8 1   
    15    6   27 1   
    16    7   28 1   
    17    8    9 1   
    18    8   11 1   
    19    8   29 1   
    20    9   10 1   
    21    9   30 1   
    22    9   31 1   
    23   10   32 1   
    24   12   13 1   
    25   13   14 ar  
    26   13   18 ar  
    27   14   15 ar  
    28   14   33 1   
    29   15   16 ar  
    30   15   34 1   
    31   16   17 ar  
    32   16   19 1   
    33   17   18 ar  
    34   17   35 1   
    35   18   36 1   
    36   19   20 1   
    37   19   21 1   
@<TRIPOS>SUBSTRUCTURE
     1 147         1 TEMP              0 ****  ****    0 ROOT
