@<TRIPOS>MOLECULE
147
   36    35     1     0     0
SMALL
bcc


@<TRIPOS>ATOM
      1 C1          0.3730   -0.8500   -0.3630 c3        1 147      0.148000
      2 C2          1.8850   -0.7980   -0.3940 c3        1 147      0.016000
      3 O2          2.3770   -1.9580   -1.0930 oh        1 147     -0.323000
      4 C3          2.4760   -0.7720    0.9660 c3        1 147     -0.032000
      5 O3          2.1640    0.5010    1.5890 oh        1 147     -0.340000
      6 C4          1.9550   -1.8730    1.8290 c3        1 147     -0.016000
      7 O4          2.4290   -1.6760    3.1670 oh        1 147     -0.318000
      8 C5          0.4360   -1.9220    1.8490 c3        1 147      0.002000
      9 C6         -0.0770   -0.7200    2.5780 c3        1 147     -0.058000
     10 O6         -0.1720   -1.0110    3.9540 oh        1 147     -0.334000
     11 O5         -0.1410   -1.9420    0.5050 os        1 147     -0.273000
     12 O1'        -0.1050    0.3560    0.1070 os        1 147     -0.242000
     13 C1'        -0.9580    0.9270   -0.8530 c2        1 147      0.130000
     14 C2'        -0.5930    2.1010   -1.4930 c2        1 147     -0.169000
     15 C3'        -1.4540    2.6890   -2.4070 c1        1 147     -0.042000
     16 C4'        -2.6800    2.1040   -2.6790 c1        1 147     -0.167000
     17 C5'        -3.0450    0.9300   -2.0390 c1        1 147     -0.035000
     18 C6'        -2.1850    0.3420   -1.1260 c1        1 147     -0.201000
     19 N1'        -3.5480    2.6890   -3.6370 no        1 147      0.573000
     20 O2'        -3.1060    2.9170   -4.9090 o         1 147     -0.363000
     21 O3'        -4.6960    2.9740   -3.3280 o         1 147     -0.363000
     22 H1          0.0440   -0.9880   -1.2730 h2        1 147      0.153000
     23 H2          2.1650    0.0050   -0.8760 h1        1 147      0.123000
     24 HO2         2.8970   -1.7000   -1.7660 ho        1 147      0.224000
     25 H3          3.4470   -0.8600    0.8920 h1        1 147      0.102000
     26 HO3         2.9160    0.9560    1.7280 ho        1 147      0.229000
     27 H4          2.2950   -2.7260    1.4950 h1        1 147      0.130000
     28 HO4         3.1650   -2.1580    3.2940 ho        1 147      0.228000
     29 H5          0.1530   -2.7250    2.3260 h1        1 147      0.150000
     30 H61        -0.9620   -0.4830    2.2320 h1        1 147      0.089500
     31 H62         0.5370    0.0290    2.4440 h1        1 147      0.089500
     32 HO6        -0.7160   -0.4250    4.3440 ho        1 147      0.213000
     33 H2'         0.2710    2.5130   -1.3010 ha        1 147      0.162000
     34 H3'        -1.1960    3.5160   -2.8580 ha        1 147      0.173000
     35 H5'        -3.9090    0.5180   -2.2310 ha        1 147      0.173000
     36 H6'        -2.4420   -0.4840   -0.6750 ha        1 147      0.168000
@<TRIPOS>BOND
     1    1    2 1   
     2    1   11 1   
     3    1   12 1   
     4    1   22 1   
     5    2    3 1   
     6    2    4 1   
     7    2   23 1   
     8    3   24 1   
     9    4    5 1   
    10    4    6 1   
    11    4   25 1   
    12    5   26 1   
    13    6    7 1   
    14    6    8 1   
    15    6   27 1   
    16    7   28 1   
    17    8    9 1   
    18    8   11 1   
    19    8   29 1   
    20    9   10 1   
    21    9   30 1   
    22    9   31 1   
    23   10   32 1   
    24   12   13 1   
    25   13   14 1   
    26   13   18 1   
    27   14   15 1   
    28   14   33 1   
    29   15   34 1   
    30   16   17 1   
    31   16   19 1   
    32   17   35 1   
    33   18   36 1   
    34   19   20 1   
    35   19   21 1   
@<TRIPOS>SUBSTRUCTURE
     1 147         1 TEMP              0 ****  ****    0 ROOT
