@<TRIPOS>MOLECULE
148
   34    33     1     0     0
SMALL
bcc


@<TRIPOS>ATOM
      1 O1          0.0410    0.2260   -0.2810 oh        1 148     -0.621800
      2 O2          3.9670   -0.2320    2.4610 oh        1 148     -0.621800
      3 O3          0.2630   -2.0280    1.2210 oh        1 148     -0.621800
      4 O4          3.4010    2.6560    0.1630 oh        1 148     -0.616300
      5 O5          0.2510    2.2430    4.3100 oh        1 148     -0.616300
      6 N1          1.4160    0.7970    2.1460 n4        1 148     -0.651400
      7 C1          1.9250   -0.2860    1.2030 c3        1 148      0.101200
      8 C2          1.4080   -0.0940   -0.2500 c3        1 148      0.118400
      9 C3          3.4820   -0.2660    1.1300 c3        1 148      0.118400
     10 C4          1.5570   -1.7120    1.7020 c3        1 148      0.118400
     11 C5          1.5170    2.1970    1.6070 c3        1 148      0.079800
     12 C6          2.9290    2.7810    1.4870 c3        1 148      0.108900
     13 C7         -0.0030    0.5900    2.6030 c3        1 148      0.079800
     14 C8         -0.2090    0.9240    4.0850 c3        1 148      0.108900
     15 HO1        -0.4670   -0.5980   -0.2300 ho        1 148      0.444333
     16 HO2         4.9320   -0.2640    2.4170 ho        1 148      0.444333
     17 HO3         0.1430   -2.9830    1.3120 ho        1 148      0.444333
     18 HO4         3.0820    3.4130   -0.3460 ho        1 148      0.436000
     19 HO5        -0.1330    2.5500    5.1420 ho        1 148      0.436000
     20 H21         1.9360    0.7780   -0.7310 h1        1 148      0.077033
     21 H22         1.6320   -1.0370   -0.8140 h1        1 148      0.077033
     22 H31         3.8260   -1.2000    0.6090 h1        1 148      0.077033
     23 H32         3.8530    0.6180    0.5480 h1        1 148      0.077033
     24 H41         2.3060   -2.4410    1.2900 h1        1 148      0.077033
     25 H42         1.5810   -1.7720    2.8240 h1        1 148      0.077033
     26 H51         1.0020    2.2240    0.6040 hx        1 148      0.122950
     27 H52         0.9380    2.8530    2.3270 hx        1 148      0.122950
     28 H61         2.8930    3.8570    1.8080 h1        1 148      0.074700
     29 H62         3.6760    2.2350    2.1280 h1        1 148      0.074700
     30 H71        -0.3270   -0.4770    2.4510 hx        1 148      0.122950
     31 H72        -0.6730    1.2290    1.9570 hx        1 148      0.122950
     32 H81        -1.3070    0.8310    4.3060 h1        1 148      0.074700
     33 H82         0.3640    0.2130    4.7410 h1        1 148      0.074700
     34 H11         2.0240    0.7460    2.9800 hn        1 148      0.458800
@<TRIPOS>BOND
     1    1    8 1   
     2    1   15 1   
     3    2    9 1   
     4    2   16 1   
     5    3   10 1   
     6    3   17 1   
     7    4   12 1   
     8    4   18 1   
     9    5   14 1   
    10    5   19 1   
    11    6    7 1   
    12    6   11 1   
    13    6   13 1   
    14    6   34 1   
    15    7    8 1   
    16    7    9 1   
    17    7   10 1   
    18    8   20 1   
    19    8   21 1   
    20    9   22 1   
    21    9   23 1   
    22   10   24 1   
    23   10   25 1   
    24   11   12 1   
    25   11   26 1   
    26   11   27 1   
    27   12   28 1   
    28   12   29 1   
    29   13   14 1   
    30   13   30 1   
    31   13   31 1   
    32   14   32 1   
    33   14   33 1   
@<TRIPOS>SUBSTRUCTURE
     1 148         1 TEMP              0 ****  ****    0 ROOT
