@<TRIPOS>MOLECULE
148
   34    33     1     0     0
SMALL
bcc


@<TRIPOS>ATOM
      1 O1          0.0650   -0.3020   -0.1730 oh        1 148     -0.614133
      2 O2          3.8980    0.2170    2.6590 oh        1 148     -0.614133
      3 O3          0.1900   -1.8510    2.0780 oh        1 148     -0.614133
      4 O4          3.1740    2.4570   -0.2440 oh        1 148     -0.628800
      5 O5          0.5630    1.3170    4.7840 oh        1 148     -0.628800
      6 N1          1.3260    1.0210    2.0900 n4        1 148     -0.659400
      7 C1          1.9030   -0.1880    1.3680 c3        1 148      0.103200
      8 C2          1.4790   -0.2730   -0.1160 c3        1 148      0.111067
      9 C3          3.4660   -0.1410    1.3590 c3        1 148      0.111067
     10 C4          1.5540   -1.5300    2.0800 c3        1 148      0.111067
     11 C5          1.4010    2.3070    1.3230 c3        1 148      0.105300
     12 C6          2.7990    2.8720    1.0580 c3        1 148      0.109900
     13 C7         -0.0980    0.8440    2.5550 c3        1 148      0.105300
     14 C8         -0.2120    0.4080    4.0200 c3        1 148      0.109900
     15 HO1        -0.1840   -0.3660   -1.1050 ho        1 148      0.440667
     16 HO2         4.8260   -0.0410    2.7400 ho        1 148      0.440667
     17 HO3        -0.0700   -2.0720    1.1700 ho        1 148      0.440667
     18 HO4         3.7720    3.1230   -0.6050 ho        1 148      0.441500
     19 HO5         0.3830    1.1380    5.7160 ho        1 148      0.441500
     20 H21         1.8830    0.6000   -0.7000 h1        1 148      0.076867
     21 H22         1.9030   -1.2250   -0.5390 h1        1 148      0.076867
     22 H31         3.8430    0.6050    0.6100 h1        1 148      0.076867
     23 H32         3.8470   -1.1590    1.0740 h1        1 148      0.076867
     24 H41         2.1480   -2.3380    1.5710 h1        1 148      0.076867
     25 H42         1.8540   -1.4770    3.1630 h1        1 148      0.076867
     26 H51         0.8540    3.0810    1.9420 hx        1 148      0.115450
     27 H52         0.8530    2.1640    0.3480 hx        1 148      0.115450
     28 H61         3.5580    2.5050    1.8030 h1        1 148      0.071950
     29 H62         2.7370    3.9930    1.1170 h1        1 148      0.071950
     30 H71        -0.6320    1.8330    2.4530 hx        1 148      0.115450
     31 H72        -0.6230    0.0990    1.8920 hx        1 148      0.115450
     32 H81         0.1580   -0.6420    4.1690 h1        1 148      0.071950
     33 H82        -1.2970    0.4610    4.3070 h1        1 148      0.071950
     34 H11         1.9100    1.1330    2.9420 hn        1 148      0.475800
@<TRIPOS>BOND
     1    1    8 1   
     2    1   15 1   
     3    2    9 1   
     4    2   16 1   
     5    3   10 1   
     6    3   17 1   
     7    4   12 1   
     8    4   18 1   
     9    5   14 1   
    10    5   19 1   
    11    6    7 1   
    12    6   11 1   
    13    6   13 1   
    14    6   34 1   
    15    7    8 1   
    16    7    9 1   
    17    7   10 1   
    18    8   20 1   
    19    8   21 1   
    20    9   22 1   
    21    9   23 1   
    22   10   24 1   
    23   10   25 1   
    24   11   12 1   
    25   11   26 1   
    26   11   27 1   
    27   12   28 1   
    28   12   29 1   
    29   13   14 1   
    30   13   30 1   
    31   13   31 1   
    32   14   32 1   
    33   14   33 1   
@<TRIPOS>SUBSTRUCTURE
     1 148         1 TEMP              0 ****  ****    0 ROOT
