@<TRIPOS>MOLECULE
148
   33    32     1     0     0
SMALL
bcc


@<TRIPOS>ATOM
      1 O1         -2.8960    0.0790   -1.5010 oh        1 148     -0.619800
      2 O2         -3.0630   -1.0130    0.4240 oh        1 148     -0.619800
      3 O3         -2.6480    1.6560    0.6640 oh        1 148     -0.619800
      4 O4          2.6840    1.2360   -2.6090 oh        1 148     -0.606800
      5 O5          2.1440   -1.5910    2.8910 oh        1 148     -0.606800
      6 N1          0.4830   -0.1770   -0.0450 n3        1 148     -0.781600
      7 C1         -0.9650    0.0790   -0.0510 c3        1 148      0.117200
      8 C2         -1.4800    0.0790   -1.5010 c3        1 148      0.130067
      9 C3         -1.6830   -1.0210    0.7460 c3        1 148      0.130067
     10 C4         -1.2450    1.4470    0.5900 c3        1 148      0.130067
     11 C5          1.1650    0.8730   -0.7780 c3        1 148      0.187300
     12 C6          2.2090    0.2520   -1.7080 c3        1 148      0.121900
     13 C7          0.9660   -0.2030    1.3210 c3        1 148      0.187300
     14 C8          1.9040   -1.3950    1.5100 c3        1 148      0.121900
     15 HO1        -3.1920    0.0830   -2.3380 ho        1 148      0.429667
     16 HO2        -3.4730   -1.6680    0.8610 ho        1 148      0.429667
     17 HO3        -2.8100    2.4430    1.0420 ho        1 148      0.429667
     18 HO4         3.3020    0.8800   -3.1370 ho        1 148      0.404000
     19 HO5         2.7030   -2.2710    3.0010 ho        1 148      0.404000
     20 H21        -1.1550    0.8760   -1.9620 h1        1 148      0.051533
     21 H22        -1.1550   -0.7180   -1.9620 h1        1 148      0.051533
     22 H31        -1.3010   -1.8900    0.5190 h1        1 148      0.051533
     23 H32        -1.5720   -0.8560    1.7010 h1        1 148      0.051533
     24 H41        -0.8650    1.4680    1.4890 h1        1 148      0.051533
     25 H42        -0.8390    2.1500    0.0480 h1        1 148      0.051533
     26 H51         0.5160    1.3750   -1.3070 h1        1 148      0.052700
     27 H52         1.6070    1.4750   -0.1490 h1        1 148      0.052700
     28 H61         1.8030   -0.4800   -2.2100 h1        1 148      0.027700
     29 H62         2.9540   -0.0910   -1.1780 h1        1 148      0.027700
     30 H71         1.4480    0.6240    1.5110 h1        1 148      0.052700
     31 H72         0.2090   -0.2850    1.9320 h1        1 148      0.052700
     32 H81         2.7500   -1.2200    1.0540 h1        1 148      0.027700
     33 H82         1.4920   -2.1970    1.1340 h1        1 148      0.027700
@<TRIPOS>BOND
     1    1    8 1   
     2    1   15 1   
     3    2    9 1   
     4    2   16 1   
     5    3   10 1   
     6    3   17 1   
     7    4   12 1   
     8    4   18 1   
     9    5   14 1   
    10    5   19 1   
    11    6    7 1   
    12    6   11 1   
    13    6   13 1   
    14    7    8 1   
    15    7    9 1   
    16    7   10 1   
    17    8   20 1   
    18    8   21 1   
    19    9   22 1   
    20    9   23 1   
    21   10   24 1   
    22   10   25 1   
    23   11   12 1   
    24   11   26 1   
    25   11   27 1   
    26   12   28 1   
    27   12   29 1   
    28   13   14 1   
    29   13   30 1   
    30   13   31 1   
    31   14   32 1   
    32   14   33 1   
@<TRIPOS>SUBSTRUCTURE
     1 148         1 TEMP              0 ****  ****    0 ROOT
