@<TRIPOS>MOLECULE
148
   34    33     1     0     0
SMALL
bcc


@<TRIPOS>ATOM
      1 O1          0.0660    0.2880   -0.3080 oh        1 148     -0.621800
      2 O2          3.9460   -0.2770    2.4780 oh        1 148     -0.621800
      3 O3          0.2380   -2.0000    1.1480 oh        1 148     -0.621800
      4 O4          3.4490    2.6650    0.2340 oh        1 148     -0.616300
      5 O5          0.2360    2.2050    4.3270 oh        1 148     -0.616300
      6 N1          1.4130    0.7910    2.1490 nx        1 148     -0.651400
      7 C1          1.9220   -0.2790    1.1900 c3        1 148      0.101200
      8 C2          1.4280   -0.0500   -0.2650 c3        1 148      0.118400
      9 C3          3.4800   -0.2780    1.1400 c3        1 148      0.118400
     10 C4          1.5300   -1.7100    1.6540 c3        1 148      0.118400
     11 C5          1.5390    2.2000    1.6410 c3        1 148      0.079800
     12 C6          2.9600    2.7680    1.5530 c3        1 148      0.108900
     13 C7         -0.0140    0.5920    2.5820 c3        1 148      0.079800
     14 C8         -0.2370    0.8970    4.0680 c3        1 148      0.108900
     15 HO1        -0.4520   -0.5300   -0.2820 ho        1 148      0.444333
     16 HO2         4.9120   -0.3210    2.4460 ho        1 148      0.444333
     17 HO3         0.1060   -2.9550    1.2170 ho        1 148      0.444333
     18 HO4         3.1460    3.4360   -0.2630 ho        1 148      0.436000
     19 HO5        -0.1550    2.4990    5.1610 ho        1 148      0.436000
     20 H21         1.9740    0.8260   -0.7200 h1        1 148      0.077033
     21 H22         1.6490   -0.9830   -0.8460 h1        1 148      0.077033
     22 H31         3.8200   -1.2040    0.6040 h1        1 148      0.077033
     23 H32         3.8700    0.6140    0.5820 h1        1 148      0.077033
     24 H41         2.2750   -2.4400    1.2360 h1        1 148      0.077033
     25 H42         1.5370   -1.7950    2.7740 h1        1 148      0.077033
     26 H51         1.0380    2.2550    0.6320 hx        1 148      0.122950
     27 H52         0.9590    2.8480    2.3680 hx        1 148      0.122950
     28 H61         2.9320    3.8370    1.8960 h1        1 148      0.074700
     29 H62         3.6910    2.1990    2.1930 h1        1 148      0.074700
     30 H71        -0.3490   -0.4680    2.4030 hx        1 148      0.122950
     31 H72        -0.6680    1.2520    1.9400 hx        1 148      0.122950
     32 H81        -1.3390    0.8120    4.2710 h1        1 148      0.074700
     33 H82         0.3180    0.1650    4.7160 h1        1 148      0.074700
     34 H11         2.0090    0.7140    2.9900 hn        1 148      0.458800
@<TRIPOS>BOND
     1    1    8 1   
     2    1   15 1   
     3    2    9 1   
     4    2   16 1   
     5    3   10 1   
     6    3   17 1   
     7    4   12 1   
     8    4   18 1   
     9    5   14 1   
    10    5   19 1   
    11    6    7 1   
    12    6   11 1   
    13    6   13 1   
    14    6   34 1   
    15    7    8 1   
    16    7    9 1   
    17    7   10 1   
    18    8   20 1   
    19    8   21 1   
    20    9   22 1   
    21    9   23 1   
    22   10   24 1   
    23   10   25 1   
    24   11   12 1   
    25   11   26 1   
    26   11   27 1   
    27   12   28 1   
    28   12   29 1   
    29   13   14 1   
    30   13   30 1   
    31   13   31 1   
    32   14   32 1   
    33   14   33 1   
@<TRIPOS>SUBSTRUCTURE
     1 148         1 TEMP              0 ****  ****    0 ROOT
