@<TRIPOS>MOLECULE
148
   33    32     1     0     0
SMALL
bcc


@<TRIPOS>ATOM
      1 O1          2.9040    0.2770   -0.1740 oh        1 148     -0.615467
      2 O2         -1.1890   -2.0840    1.1960 oh        1 148     -0.615467
      3 O3          1.5380   -1.3790   -1.9350 oh        1 148     -0.615467
      4 O4         -1.8920    0.4040    2.5820 oh        1 148     -0.617300
      5 O5         -0.8490    0.0190   -2.8850 oh        1 148     -0.617300
      6 N1         -0.0180    0.4660    0.1810 n3        1 148     -0.771600
      7 C1          0.7220   -0.7900    0.3230 c3        1 148      0.122200
      8 C2          2.2270   -0.6250    0.6700 c3        1 148      0.133733
      9 C3          0.1180   -1.6480    1.4840 c3        1 148      0.133733
     10 C4          0.6010   -1.7060   -0.9300 c3        1 148      0.133733
     11 C5         -0.0550    1.3080    1.3610 c3        1 148      0.190800
     12 C6         -1.4850    1.5610    1.8700 c3        1 148      0.119900
     13 C7          0.1370    1.1990   -1.0590 c3        1 148      0.190800
     14 C8         -1.0890    1.0910   -1.9860 c3        1 148      0.119900
     15 HO1         2.9710   -0.1360   -1.0460 ho        1 148      0.423000
     16 HO2        -1.7630   -1.3060    1.2360 ho        1 148      0.423000
     17 HO3         1.0710   -0.9030   -2.6330 ho        1 148      0.423000
     18 HO4        -2.7990    0.5570    2.8710 ho        1 148      0.405000
     19 HO5        -1.6920   -0.2050   -3.2940 ho        1 148      0.405000
     20 H21         2.3470   -0.1930    1.7010 h1        1 148      0.051533
     21 H22         2.7100   -1.6380    0.6310 h1        1 148      0.051533
     22 H31         0.7220   -2.5900    1.5890 h1        1 148      0.051533
     23 H32         0.1380   -1.0860    2.4550 h1        1 148      0.051533
     24 H41         0.8620   -2.7550   -0.6190 h1        1 148      0.051533
     25 H42        -0.4500   -1.6860   -1.3190 h1        1 148      0.051533
     26 H51         0.4010    2.3220    1.1630 h1        1 148      0.051950
     27 H52         0.5310    0.8520    2.2080 h1        1 148      0.051950
     28 H61        -2.1960    1.7670    1.0260 h1        1 148      0.028200
     29 H62        -1.4720    2.4440    2.5650 h1        1 148      0.028200
     30 H71         0.2780    2.3000   -0.8540 h1        1 148      0.051950
     31 H72         1.0490    0.8600   -1.6270 h1        1 148      0.051950
     32 H81        -2.0360    0.9200   -1.4120 h1        1 148      0.028200
     33 H82        -1.1840    2.0410   -2.5790 h1        1 148      0.028200
@<TRIPOS>BOND
     1    1    8 1   
     2    1   15 1   
     3    2    9 1   
     4    2   16 1   
     5    3   10 1   
     6    3   17 1   
     7    4   12 1   
     8    4   18 1   
     9    5   14 1   
    10    5   19 1   
    11    6    7 1   
    12    6   11 1   
    13    6   13 1   
    14    7    8 1   
    15    7    9 1   
    16    7   10 1   
    17    8   20 1   
    18    8   21 1   
    19    9   22 1   
    20    9   23 1   
    21   10   24 1   
    22   10   25 1   
    23   11   12 1   
    24   11   26 1   
    25   11   27 1   
    26   12   28 1   
    27   12   29 1   
    28   13   14 1   
    29   13   30 1   
    30   13   31 1   
    31   14   32 1   
    32   14   33 1   
@<TRIPOS>SUBSTRUCTURE
     1 148         1 TEMP              0 ****  ****    0 ROOT
