@<TRIPOS>MOLECULE
149
   22    21     1     0     0
SMALL
bcc


@<TRIPOS>ATOM
      1 C1         -0.8670    0.2330   -1.6590 c1        1 149      0.264000
      2 C2          0.7420    0.2330   -1.6590 c2        1 149      0.009000
      3 C3          1.2320    0.2330   -0.2760 c3        1 149      0.044000
      4 C4          0.6010   -0.8600    0.5730 c3        1 149     -0.031000
      5 C5         -0.8600   -0.8230    0.5460 c3        1 149     -0.046000
      6 C6         -1.3280    0.4200    1.3000 c3        1 149     -0.038000
      7 O1         -1.4750    0.6310   -2.6340 o         1 149     -0.300000
      8 O2          1.2920   -0.8590   -2.4370 oh        1 149     -0.308000
      9 O3          0.9350    1.5170    0.3230 oh        1 149     -0.327000
     10 O4          1.0460   -0.7010    1.9450 oh        1 149     -0.324000
     11 O5         -1.4390   -0.7910   -0.8220 os        1 149     -0.240000
     12 O6         -2.6850    0.2640    1.6700 oh        1 149     -0.318000
     13 H2          1.0880    1.0040   -2.1480 h4        1 149      0.137000
     14 H3          2.2000    0.1060   -0.2850 h1        1 149      0.127000
     15 H4          0.9000   -1.7280    0.2430 h1        1 149      0.106000
     16 H5         -1.1990   -1.6130    1.0080 h1        1 149      0.135000
     17 H61        -0.7840    0.5390    2.1010 h1        1 149      0.108500
     18 H62        -1.2360    1.2030    0.7240 h1        1 149      0.108500
     19 HO2         1.5560   -0.5550   -3.2280 ho        1 149      0.231000
     20 HO3         1.6700    2.0150    0.3350 ho        1 149      0.231000
     21 HO4         1.5370   -1.4020    2.1800 ho        1 149      0.220000
     22 HO6        -2.9260    0.9340    2.2000 ho        1 149      0.210000
@<TRIPOS>BOND
     1    1    7 1   
     2    1   11 1   
     3    2    3 1   
     4    2    8 1   
     5    2   13 1   
     6    3    4 1   
     7    3    9 1   
     8    3   14 1   
     9    4    5 1   
    10    4   10 1   
    11    4   15 1   
    12    5    6 1   
    13    5   11 1   
    14    5   16 1   
    15    6   12 1   
    16    6   17 1   
    17    6   18 1   
    18    8   19 1   
    19    9   20 1   
    20   10   21 1   
    21   12   22 1   
@<TRIPOS>SUBSTRUCTURE
     1 149         1 TEMP              0 ****  ****    0 ROOT
