@<TRIPOS>MOLECULE
149
   22    22     1     0     0
SMALL
bcc


@<TRIPOS>ATOM
      1 C1          0.3650    1.3480    0.2980 c         1 149      0.699600
      2 C2          1.4690    0.3190    0.3070 c3        1 149      0.031100
      3 C3          1.1530   -0.8700   -0.6120 c3        1 149      0.112100
      4 C4         -0.2650   -1.3720   -0.3000 c3        1 149      0.119100
      5 C5         -1.2680   -0.2400   -0.5260 c3        1 149      0.108100
      6 C6         -2.6560   -0.6130    0.0140 c3        1 149      0.140400
      7 O1          0.5270    2.5450    0.5380 o         1 149     -0.577500
      8 O2          2.6950    0.8660   -0.1380 oh        1 149     -0.594800
      9 O3          2.0310   -1.9480   -0.3450 oh        1 149     -0.602800
     10 O4         -0.3690   -1.8090    1.0440 oh        1 149     -0.594800
     11 O5         -0.9440    1.0050    0.1110 os        1 149     -0.412900
     12 O6         -3.6270    0.3130   -0.4160 oh        1 149     -0.594800
     13 H2          1.5790   -0.0500    1.3700 h1        1 149      0.093700
     14 H3          1.2390   -0.5600   -1.6890 h1        1 149      0.070700
     15 H4         -0.5140   -2.2260   -0.9920 h1        1 149      0.070700
     16 H5         -1.3240   -0.0210   -1.6310 h1        1 149      0.076700
     17 H61        -2.9710   -1.6000   -0.4170 h1        1 149      0.069200
     18 H62        -2.6200   -0.6730    1.1340 h1        1 149      0.069200
     19 HO2         2.7890    1.7410    0.2690 ho        1 149      0.437000
     20 HO3         2.9300   -1.6120   -0.4680 ho        1 149      0.433000
     21 HO4         0.3230   -2.4740    1.1710 ho        1 149      0.429000
     22 HO6        -3.3920    1.1700   -0.0370 ho        1 149      0.418000
@<TRIPOS>BOND
     1    1    2 1   
     2    1    7 2   
     3    1   11 1   
     4    2    3 1   
     5    2    8 1   
     6    2   13 1   
     7    3    4 1   
     8    3    9 1   
     9    3   14 1   
    10    4    5 1   
    11    4   10 1   
    12    4   15 1   
    13    5    6 1   
    14    5   11 1   
    15    5   16 1   
    16    6   12 1   
    17    6   17 1   
    18    6   18 1   
    19    8   19 1   
    20    9   20 1   
    21   10   21 1   
    22   12   22 1   
@<TRIPOS>SUBSTRUCTURE
     1 149         1 TEMP              0 ****  ****    0 ROOT
