@<TRIPOS>MOLECULE
14A
   54    55     1     0     0
SMALL
bcc


@<TRIPOS>ATOM
      1 N1          0.3200    2.3440    7.5790 n2        1 14A     -0.842100
      2 C2         -0.2110    1.3190    8.1860 c2        1 14A      0.688100
      3 N3         -0.2850    1.2840    9.6140 nh        1 14A     -0.878800
      4 N4         -0.7610    0.1030    7.5400 nh        1 14A     -0.567700
      5 O5         -1.0520    0.3220    6.2450 os        1 14A     -0.246100
      6 C6         -0.1010   -0.2820    5.3250 c3        1 14A      0.133400
      7 C7         -0.6830   -0.0200    3.9500 c3        1 14A     -0.096400
      8 C8          0.2580   -0.5720    2.8930 c3        1 14A      0.130400
      9 O9         -0.3730   -0.2890    1.6370 os        1 14A     -0.323900
     10 C10         0.2730   -0.7700    0.5160 ca        1 14A      0.135100
     11 C11         1.5240   -1.3970    0.5290 ca        1 14A     -0.194000
     12 C12         2.0710   -1.8270   -0.6850 ca        1 14A      0.050400
     13 C13         1.3940   -1.6410   -1.8910 ca        1 14A     -0.131000
     14 C14         0.1460   -1.0070   -1.8800 ca        1 14A     -0.087600
     15 C15        -0.4260   -0.5690   -0.6900 ca        1 14A     -0.132000
     16 CL16        3.5880   -2.5920   -0.6840 cl        1 14A     -0.084400
     17 C17        -0.6110   -0.8700   -3.1670 c         1 14A      0.669700
     18 O18        -1.2620   -1.8380   -3.6060 o         1 14A     -0.582100
     19 N19        -0.5930    0.3590   -3.8160 n         1 14A     -0.457800
     20 C20         0.2770    1.4250   -3.3710 c3        1 14A      0.120200
     21 C21         1.6570    1.4180   -3.9560 c2        1 14A     -0.196200
     22 C22         2.2440    2.5100   -4.4360 c2        1 14A     -0.207000
     23 C23        -1.2330    0.5300   -5.1090 c3        1 14A      0.111700
     24 C24        -2.7670    0.3440   -5.1000 c3        1 14A     -0.095400
     25 C25        -3.1450   -0.0100   -6.5300 c3        1 14A     -0.075900
     26 C26        -1.8790   -0.4750   -7.2410 c3        1 14A     -0.075900
     27 C27        -0.7370   -0.4000   -6.2380 c3        1 14A     -0.095400
     28 HN1         0.2250    2.3490    6.5860 hn        1 14A      0.403400
     29 HN31        0.2020    2.0460   10.0430 hn        1 14A      0.396800
     30 HN32       -0.0010    0.4060    9.9950 hn        1 14A      0.396800
     31 HN4        -1.6430   -0.1490    7.9850 hn        1 14A      0.399800
     32 H61        -0.0130   -1.3800    5.5310 h1        1 14A      0.048200
     33 H62         0.8990    0.2080    5.4500 h1        1 14A      0.048200
     34 H71        -0.8300    1.0800    3.7950 hc        1 14A      0.074700
     35 H72        -1.6900   -0.5050    3.8580 hc        1 14A      0.074700
     36 H81         0.3920   -1.6790    3.0080 h1        1 14A      0.044200
     37 H82         1.2560   -0.0610    2.9320 h1        1 14A      0.044200
     38 H11         2.0750   -1.5560    1.4660 ha        1 14A      0.154000
     39 H13         1.8260   -1.9940   -2.8400 ha        1 14A      0.159000
     40 H15        -1.4120   -0.0800   -0.6730 ha        1 14A      0.164000
     41 H201        0.3800    1.3650   -2.2460 h1        1 14A      0.062200
     42 H202       -0.2310    2.4080   -3.6030 h1        1 14A      0.062200
     43 H21         2.1770    0.4450   -3.9340 ha        1 14A      0.129000
     44 H221        3.2720    2.4990   -4.8230 ha        1 14A      0.114500
     45 H222        1.7470    3.4890   -4.4740 ha        1 14A      0.114500
     46 H23        -1.0250    1.5940   -5.4380 h1        1 14A      0.052700
     47 H241       -3.0600   -0.4840   -4.4070 hc        1 14A      0.055950
     48 H242       -3.2730    1.2790   -4.7590 hc        1 14A      0.055950
     49 H251       -3.5790    0.8800   -7.0530 hc        1 14A      0.041700
     50 H252       -3.9230   -0.8130   -6.5390 hc        1 14A      0.041700
     51 H261       -1.6670    0.1790   -8.1240 hc        1 14A      0.041700
     52 H262       -1.9970   -1.5200   -7.6200 hc        1 14A      0.041700
     53 H271        0.1930    0.0060   -6.7030 hc        1 14A      0.055950
     54 H272       -0.5110   -1.4210   -5.8370 hc        1 14A      0.055950
@<TRIPOS>BOND
     1    1    2 2   
     2    1   28 1   
     3    2    3 1   
     4    2    4 1   
     5    3   29 1   
     6    3   30 1   
     7    4    5 1   
     8    4   31 1   
     9    5    6 1   
    10    6    7 1   
    11    6   32 1   
    12    6   33 1   
    13    7    8 1   
    14    7   34 1   
    15    7   35 1   
    16    8    9 1   
    17    8   36 1   
    18    8   37 1   
    19    9   10 1   
    20   10   11 ar  
    21   10   15 ar  
    22   11   12 ar  
    23   11   38 1   
    24   12   13 ar  
    25   12   16 1   
    26   13   14 ar  
    27   13   39 1   
    28   14   15 ar  
    29   14   17 1   
    30   15   40 1   
    31   17   18 2   
    32   17   19 1   
    33   19   20 1   
    34   19   23 1   
    35   20   21 1   
    36   20   41 1   
    37   20   42 1   
    38   21   22 2   
    39   21   43 1   
    40   22   44 1   
    41   22   45 1   
    42   23   24 1   
    43   23   27 1   
    44   23   46 1   
    45   24   25 1   
    46   24   47 1   
    47   24   48 1   
    48   25   26 1   
    49   25   49 1   
    50   25   50 1   
    51   26   27 1   
    52   26   51 1   
    53   26   52 1   
    54   27   53 1   
    55   27   54 1   
@<TRIPOS>SUBSTRUCTURE
     1 14A         1 TEMP              0 ****  ****    0 ROOT
