@<TRIPOS>MOLECULE
14A
   57    58     1     0     0
SMALL
bcc


@<TRIPOS>ATOM
      1 N1          0.3600   -1.1440    0.6160 n2        1 14A     -0.596100
      2 C2          0.8430   -0.2030   -0.0810 c2        1 14A      0.631100
      3 N3          0.3120    1.1820   -0.3210 n4        1 14A     -0.845600
      4 N4          2.1660   -0.4910   -0.7960 n4        1 14A     -0.510500
      5 O5          2.0840   -0.0330   -2.0760 os        1 14A     -0.270100
      6 C6          2.8190   -0.8090   -3.1130 c3        1 14A      0.125400
      7 C7          2.6010    0.0090   -4.3700 c3        1 14A     -0.106400
      8 C8          3.3830   -0.6370   -5.5160 c3        1 14A      0.136400
      9 O9          3.1820    0.2430   -6.6270 os        1 14A     -0.319900
     10 C10         3.6950   -0.1880   -7.8420 ca        1 14A      0.121100
     11 C11         4.5050   -1.3140   -8.0060 ca        1 14A     -0.148000
     12 C12         4.9600   -1.6400   -9.2910 ca        1 14A      0.052400
     13 C13         4.6200   -0.8490  -10.3940 ca        1 14A     -0.120000
     14 C14         3.8220    0.2860  -10.2100 ca        1 14A     -0.140600
     15 C15         3.3440    0.6230   -8.9360 ca        1 14A     -0.079000
     16 CL16        5.9260   -3.0060   -9.5080 cl        1 14A     -0.001400
     17 C17         3.4030    1.1680  -11.3210 c         1 14A      0.562700
     18 O18         2.4040    1.8780  -11.3080 o         1 14A     -0.419100
     19 N19         4.3050    1.2540  -12.5260 n4        1 14A     -0.583200
     20 C20         4.6770    2.6960  -12.7810 c3        1 14A      0.165000
     21 C21         5.8450    2.8240  -13.6950 c2        1 14A     -0.279200
     22 C22         5.7790    3.4610  -14.8640 c2        1 14A     -0.094000
     23 C23         3.7210    0.6210  -13.7670 c3        1 14A      0.117500
     24 C24         2.4340    1.2690  -14.3070 c3        1 14A     -0.098400
     25 C25         1.6790    0.1530  -15.0180 c3        1 14A     -0.082900
     26 C26         2.3300   -1.1710  -14.6390 c3        1 14A     -0.082900
     27 C27         3.4030   -0.8750  -13.6000 c3        1 14A     -0.098400
     28 HN1        -0.4790   -1.1270    1.1700 hn        1 14A      0.561400
     29 HN31       -0.6780    1.2360   -0.0210 hn        1 14A      0.508133
     30 HN32        0.3580    1.4240   -1.3270 hn        1 14A      0.508133
     31 HN4         2.3470   -1.5240   -0.7630 hn        1 14A      0.515800
     32 H61         3.9010   -0.8540   -2.8210 h1        1 14A      0.099700
     33 H62         2.3550   -1.8280   -3.1780 h1        1 14A      0.099700
     34 H71         1.5130    0.0470   -4.6370 hc        1 14A      0.097700
     35 H72         2.9580    1.0630   -4.2260 hc        1 14A      0.097700
     36 H81         2.9820   -1.6570   -5.7540 h1        1 14A      0.065700
     37 H82         4.4780   -0.6930   -5.2760 h1        1 14A      0.065700
     38 H11         4.7910   -1.9500   -7.1530 ha        1 14A      0.165000
     39 H13         4.9670   -1.1630  -11.3930 ha        1 14A      0.163000
     40 H15         2.6970    1.5040   -8.7870 ha        1 14A      0.185000
     41 H201        4.9300    3.1540  -11.7800 hx        1 14A      0.107200
     42 H202        3.7600    3.2110  -13.1910 hx        1 14A      0.107200
     43 H21         6.7990    2.4240  -13.3120 ha        1 14A      0.149000
     44 H221        4.8490    3.8900  -15.2690 ha        1 14A      0.148500
     45 H222        6.6710    3.6080  -15.4950 ha        1 14A      0.148500
     46 H23         4.5340    0.7400  -14.5490 hx        1 14A      0.114700
     47 H241        2.6890    2.0990  -15.0140 hc        1 14A      0.067700
     48 H242        1.8040    1.7000  -13.4870 hc        1 14A      0.067700
     49 H251        0.6000    0.1670  -14.7190 hc        1 14A      0.077200
     50 H252        1.7160    0.3020  -16.1280 hc        1 14A      0.077200
     51 H261        2.7880   -1.6540  -15.5410 hc        1 14A      0.077200
     52 H262        1.5760   -1.8880  -14.2270 hc        1 14A      0.077200
     53 H271        4.3160   -1.4980  -13.7680 hc        1 14A      0.067700
     54 H272        3.0110   -1.0970  -12.5730 hc        1 14A      0.067700
     55 H33         0.8550    1.8770    0.2180 hn        1 14A      0.508133
     56 H42         2.9360    0.0110   -0.3020 hn        1 14A      0.515800
     57 H191        5.1700    0.7400  -12.3160 hn        1 14A      0.449800
@<TRIPOS>BOND
     1    1    2 2   
     2    1   28 1   
     3    2    3 1   
     4    2    4 1   
     5    3   29 1   
     6    3   30 1   
     7    3   55 1   
     8    4    5 1   
     9    4   31 1   
    10    4   56 1   
    11    5    6 1   
    12    6    7 1   
    13    6   32 1   
    14    6   33 1   
    15    7    8 1   
    16    7   34 1   
    17    7   35 1   
    18    8    9 1   
    19    8   36 1   
    20    8   37 1   
    21    9   10 1   
    22   10   11 ar  
    23   10   15 ar  
    24   11   12 ar  
    25   11   38 1   
    26   12   13 ar  
    27   12   16 1   
    28   13   14 ar  
    29   13   39 1   
    30   14   15 ar  
    31   14   17 1   
    32   15   40 1   
    33   17   18 2   
    34   17   19 1   
    35   19   20 1   
    36   19   23 1   
    37   19   57 1   
    38   20   21 1   
    39   20   41 1   
    40   20   42 1   
    41   21   22 2   
    42   21   43 1   
    43   22   44 1   
    44   22   45 1   
    45   23   24 1   
    46   23   27 1   
    47   23   46 1   
    48   24   25 1   
    49   24   47 1   
    50   24   48 1   
    51   25   26 1   
    52   25   49 1   
    53   25   50 1   
    54   26   27 1   
    55   26   51 1   
    56   26   52 1   
    57   27   53 1   
    58   27   54 1   
@<TRIPOS>SUBSTRUCTURE
     1 14A         1 TEMP              0 ****  ****    0 ROOT
