@<TRIPOS>MOLECULE
14A
   57    58     1     0     0
SMALL
bcc


@<TRIPOS>ATOM
      1 N1          0.2850   -1.0720    0.6030 n2        1 14A     -0.596100
      2 C2          0.8190   -0.1520   -0.0850 c2        1 14A      0.631100
      3 N3          0.3660    1.2620   -0.3120 nz        1 14A     -0.845600
      4 N4          2.1240   -0.5070   -0.8030 ny        1 14A     -0.510500
      5 O5          2.0680   -0.0330   -2.0780 os        1 14A     -0.270100
      6 C6          2.7610   -0.8380   -3.1230 c3        1 14A      0.125400
      7 C7          2.5880    0.0020   -4.3720 c3        1 14A     -0.106400
      8 C8          3.3350   -0.6740   -5.5240 c3        1 14A      0.136400
      9 O9          3.1800    0.2250   -6.6270 os        1 14A     -0.319900
     10 C10         3.6690   -0.2220   -7.8460 ca        1 14A      0.121100
     11 C11         4.4210   -1.3870   -8.0190 ca        1 14A     -0.148000
     12 C12         4.8590   -1.7250   -9.3070 ca        1 14A      0.051400
     13 C13         4.5600   -0.9090  -10.4040 ca        1 14A     -0.120000
     14 C14         3.8210    0.2640  -10.2100 ca        1 14A     -0.140600
     15 C15         3.3610    0.6140   -8.9340 ca        1 14A     -0.079000
     16 Cl16        5.7550   -3.1360   -9.5360 cl        1 14A     -0.001400
     17 C17         3.4470    1.1750  -11.3140 c         1 14A      0.562700
     18 O18         2.4850    1.9350  -11.2940 o         1 14A     -0.419100
     19 N19         4.3510    1.2240  -12.5190 nx        1 14A     -0.583200
     20 C20         4.7960    2.6480  -12.7630 c3        1 14A      0.165000
     21 C21         5.9690    2.7240  -13.6770 c2        1 14A     -0.279200
     22 C22         5.9340    3.3720  -14.8410 c2        1 14A     -0.094000
     23 C23         3.7360    0.6310  -13.7640 c3        1 14A      0.117500
     24 C24         2.4840    1.3480  -14.2980 c3        1 14A     -0.098400
     25 C25         1.6730    0.2770  -15.0180 c3        1 14A     -0.082900
     26 C26         2.2550   -1.0810  -14.6500 c3        1 14A     -0.082900
     27 C27         3.3420   -0.8480  -13.6090 c3        1 14A     -0.098400
     28 HN1        -0.5520   -1.0140    1.1580 hn        1 14A      0.561400
     29 HN31       -0.6200    1.3670   -0.0110 hn        1 14A      0.508133
     30 HN32        0.4250    1.5100   -1.3160 hn        1 14A      0.508133
     31 HN4         2.9210   -0.0530   -0.3040 hn        1 14A      0.515800
     32 H61         3.8390   -0.9440   -2.8310 h1        1 14A      0.099700
     33 H62         2.2430   -1.8300   -3.1970 h1        1 14A      0.099700
     34 H71         2.9990    1.0350   -4.2190 hc        1 14A      0.097700
     35 H72         1.5030    0.1000   -4.6390 hc        1 14A      0.097700
     36 H81         4.4260   -0.7880   -5.2850 h1        1 14A      0.065700
     37 H82         2.8820   -1.6700   -5.7700 h1        1 14A      0.065700
     38 H11         4.6750   -2.0430   -7.1720 ha        1 14A      0.165000
     39 H13         4.8910   -1.2320  -11.4060 ha        1 14A      0.163000
     40 H15         2.7590    1.5260   -8.7770 ha        1 14A      0.185000
     41 H201        3.9060    3.2120  -13.1680 hx        1 14A      0.107200
     42 H202        5.0730    3.0840  -11.7590 hx        1 14A      0.107200
     43 H21         6.9010    2.2720  -13.2980 ha        1 14A      0.149000
     44 H221        5.0270    3.8510  -15.2410 ha        1 14A      0.148500
     45 H222        6.8330    3.4790  -15.4710 ha        1 14A      0.148500
     46 H23         4.5540    0.7150  -14.5460 hx        1 14A      0.114700
     47 H241        1.8770    1.8040  -13.4750 hc        1 14A      0.067700
     48 H242        2.7800    2.1700  -14.9990 hc        1 14A      0.067700
     49 H251        0.5960    0.3440  -14.7190 hc        1 14A      0.077200
     50 H252        1.7170    0.4330  -16.1260 hc        1 14A      0.077200
     51 H261        2.6870   -1.5790  -15.5550 hc        1 14A      0.077200
     52 H262        1.4660   -1.7610  -14.2420 hc        1 14A      0.077200
     53 H271        4.2230   -1.5150  -13.7820 hc        1 14A      0.067700
     54 H272        2.9400   -1.0570  -12.5840 hc        1 14A      0.067700
     55 H33         0.9460    1.9210    0.2330 hn        1 14A      0.508133
     56 H42         2.2480   -1.5490   -0.7800 hn        1 14A      0.515800
     57 H191        5.1900    0.6650  -12.3130 hn        1 14A      0.449800
@<TRIPOS>BOND
     1    1    2 2   
     2    1   28 1   
     3    2    3 1   
     4    2    4 1   
     5    3   29 1   
     6    3   30 1   
     7    3   55 1   
     8    4    5 1   
     9    4   31 1   
    10    4   56 1   
    11    5    6 1   
    12    6    7 1   
    13    6   32 1   
    14    6   33 1   
    15    7    8 1   
    16    7   34 1   
    17    7   35 1   
    18    8    9 1   
    19    8   36 1   
    20    8   37 1   
    21    9   10 1   
    22   10   11 ar  
    23   10   15 ar  
    24   11   12 ar  
    25   11   38 1   
    26   12   13 ar  
    27   12   16 1   
    28   13   14 ar  
    29   13   39 1   
    30   14   15 ar  
    31   14   17 1   
    32   15   40 1   
    33   17   18 2   
    34   17   19 1   
    35   19   20 1   
    36   19   23 1   
    37   19   57 1   
    38   20   21 1   
    39   20   41 1   
    40   20   42 1   
    41   21   22 2   
    42   21   43 1   
    43   22   44 1   
    44   22   45 1   
    45   23   24 1   
    46   23   27 1   
    47   23   46 1   
    48   24   25 1   
    49   24   47 1   
    50   24   48 1   
    51   25   26 1   
    52   25   49 1   
    53   25   50 1   
    54   26   27 1   
    55   26   51 1   
    56   26   52 1   
    57   27   53 1   
    58   27   54 1   
@<TRIPOS>SUBSTRUCTURE
     1 14A         1 TEMP              0 ****  ****    0 ROOT
