@<TRIPOS>MOLECULE
14A
   57    58     1     0     0
SMALL
bcc


@<TRIPOS>ATOM
      1 N1          0.2250   -1.5690    0.2790 n2        1 14A     -0.596100
      2 C2          0.4350   -0.5780   -0.4820 c2        1 14A      0.631100
      3 N3         -0.5010    0.5150   -0.9130 n4        1 14A     -0.845600
      4 N4          1.8450   -0.4510   -1.0650 n4        1 14A     -0.510500
      5 O5          1.7500   -0.1570   -2.3900 os        1 14A     -0.269100
      6 C6          2.8080   -0.7170   -3.2770 c3        1 14A      0.125400
      7 C7          2.4660   -0.1330   -4.6320 c3        1 14A     -0.106400
      8 C8          3.5330   -0.5730   -5.6360 c3        1 14A      0.136400
      9 O9          3.1050   -0.0220   -6.8860 os        1 14A     -0.320900
     10 C10         4.0270   -0.0920   -7.9210 ca        1 14A      0.121100
     11 C11         5.1780   -0.8840   -7.8980 ca        1 14A     -0.148000
     12 C12         6.0320   -0.8730   -9.0090 ca        1 14A      0.052400
     13 C13         5.7360   -0.0910  -10.1320 ca        1 14A     -0.118000
     14 C14         4.5640    0.6760  -10.1480 ca        1 14A     -0.138600
     15 C15         3.7050    0.6930   -9.0420 ca        1 14A     -0.081000
     16 CL16        7.4350   -1.8070   -8.9900 cl        1 14A      0.000600
     17 C17         4.2100    1.5630  -11.2770 c         1 14A      0.561700
     18 O18         3.6270    2.6350  -11.1660 o         1 14A     -0.415100
     19 N19         4.6040    1.1210  -12.6640 n4        1 14A     -0.584200
     20 C20         5.3250    2.2420  -13.3780 c3        1 14A      0.163000
     21 C21         6.0780    1.7610  -14.5670 c2        1 14A     -0.280200
     22 C22         5.8610    2.2310  -15.7960 c2        1 14A     -0.093000
     23 C23         3.4400    0.6170  -13.4840 c3        1 14A      0.120500
     24 C24         2.3160    1.6330  -13.7450 c3        1 14A     -0.097900
     25 C25         1.0380    0.8140  -13.8730 c3        1 14A     -0.082900
     26 C26         1.3330   -0.6000  -13.3880 c3        1 14A     -0.082900
     27 C27         2.7670   -0.6270  -12.8780 c3        1 14A     -0.097900
     28 HN1        -0.6250   -1.7960    0.7670 hn        1 14A      0.561400
     29 HN31       -0.2830    1.3960   -0.4170 hn        1 14A      0.508133
     30 HN32       -1.4780    0.2490   -0.6930 hn        1 14A      0.508133
     31 HN4         2.3580   -1.3510   -0.9000 hn        1 14A      0.515800
     32 H61         3.8050   -0.3630   -2.9050 h1        1 14A      0.099700
     33 H62         2.7220   -1.8350   -3.2570 h1        1 14A      0.099700
     34 H71         1.4600   -0.4910   -4.9780 hc        1 14A      0.097200
     35 H72         2.4360    0.9880   -4.5880 hc        1 14A      0.097200
     36 H81         3.5700   -1.6920   -5.7180 h1        1 14A      0.065700
     37 H82         4.5410   -0.1680   -5.3560 h1        1 14A      0.065700
     38 H11         5.4280   -1.5140   -7.0300 ha        1 14A      0.166000
     39 H13         6.4570   -0.0760  -10.9650 ha        1 14A      0.161000
     40 H15         2.7950    1.3150   -9.0390 ha        1 14A      0.183000
     41 H201        4.5510    3.0170  -13.6500 hx        1 14A      0.109700
     42 H202        6.0430    2.6980  -12.6350 hx        1 14A      0.109700
     43 H21         6.8930    1.0450  -14.3630 ha        1 14A      0.148000
     44 H221        5.0740    2.9630  -16.0340 ha        1 14A      0.149000
     45 H222        6.4790    1.9190  -16.6530 ha        1 14A      0.149000
     46 H23         3.9040    0.3360  -14.4810 hx        1 14A      0.116700
     47 H241        2.5240    2.2030  -14.6860 hc        1 14A      0.068700
     48 H242        2.2170    2.3780  -12.9150 hc        1 14A      0.068700
     49 H251        0.6920    0.7960  -14.9380 hc        1 14A      0.074200
     50 H252        0.2190    1.2810  -13.2690 hc        1 14A      0.074200
     51 H261        1.2070   -1.3330  -14.2260 hc        1 14A      0.074200
     52 H262        0.6250   -0.9020  -12.5760 hc        1 14A      0.074200
     53 H271        3.2960   -1.5580  -13.2020 hc        1 14A      0.068700
     54 H272        2.7810   -0.5940  -11.7580 hc        1 14A      0.068700
     55 H33        -0.4330    0.6760   -1.9340 hn        1 14A      0.508133
     56 H42         2.3450    0.3250   -0.5770 hn        1 14A      0.515800
     57 H191        5.2520    0.3270  -12.5790 hn        1 14A      0.449800
@<TRIPOS>BOND
     1    1    2 2   
     2    1   28 1   
     3    2    3 1   
     4    2    4 1   
     5    3   29 1   
     6    3   30 1   
     7    3   55 1   
     8    4    5 1   
     9    4   31 1   
    10    4   56 1   
    11    5    6 1   
    12    6    7 1   
    13    6   32 1   
    14    6   33 1   
    15    7    8 1   
    16    7   34 1   
    17    7   35 1   
    18    8    9 1   
    19    8   36 1   
    20    8   37 1   
    21    9   10 1   
    22   10   11 ar  
    23   10   15 ar  
    24   11   12 ar  
    25   11   38 1   
    26   12   13 ar  
    27   12   16 1   
    28   13   14 ar  
    29   13   39 1   
    30   14   15 ar  
    31   14   17 1   
    32   15   40 1   
    33   17   18 2   
    34   17   19 1   
    35   19   20 1   
    36   19   23 1   
    37   19   57 1   
    38   20   21 1   
    39   20   41 1   
    40   20   42 1   
    41   21   22 2   
    42   21   43 1   
    43   22   44 1   
    44   22   45 1   
    45   23   24 1   
    46   23   27 1   
    47   23   46 1   
    48   24   25 1   
    49   24   47 1   
    50   24   48 1   
    51   25   26 1   
    52   25   49 1   
    53   25   50 1   
    54   26   27 1   
    55   26   51 1   
    56   26   52 1   
    57   27   53 1   
    58   27   54 1   
@<TRIPOS>SUBSTRUCTURE
     1 14A         1 TEMP              0 ****  ****    0 ROOT
