@<TRIPOS>MOLECULE
14A
   54    50     1     0     0
SMALL
bcc


@<TRIPOS>ATOM
      1 N1          5.9990   -0.2910    5.7060 n1        1 14A     -0.337000
      2 C2          5.6880    0.6680    4.8690 c1        1 14A      0.123000
      3 N3          5.0280    1.8380    5.3400 n2        1 14A     -0.374000
      4 N4          6.0130    0.5380    3.4790 n3        1 14A     -0.109000
      5 O5          5.8340   -0.6730    2.8390 os        1 14A     -0.244000
      6 C6          6.0090   -0.5110    1.4360 c3        1 14A     -0.018000
      7 C7          4.9370   -1.3070    0.6950 c3        1 14A     -0.203000
      8 C8          3.7010   -0.4380    0.5020 c3        1 14A     -0.026000
      9 O9          3.1340   -0.6990   -0.7750 os        1 14A     -0.225000
     10 C10         1.7760   -1.1000   -0.7290 c2        1 14A      0.086000
     11 C11         1.4440   -2.3730   -0.2900 c2        1 14A     -0.192000
     12 C12         0.1170   -2.7880   -0.2970 c1        1 14A     -0.032000
     13 C13        -0.8800   -1.9250   -0.7450 c1        1 14A     -0.135000
     14 C14        -0.5490   -0.6510   -1.1850 c1        1 14A     -0.067000
     15 C15         0.7800   -0.2370   -1.1770 c1        1 14A     -0.122000
     16 CL16       -0.3040   -4.3690    0.3000 cl        1 14A     -0.005000
     17 C17        -1.6620    0.3520   -1.5360 c2        1 14A      0.344000
     18 O18        -1.3740    1.4710   -1.9230 o         1 14A     -0.342000
     19 N19        -3.0490   -0.0400   -1.4280 n         1 14A     -0.315000
     20 C20        -3.3920   -1.3290   -0.8660 c3        1 14A     -0.001000
     21 C21        -4.7180   -1.2250   -0.1290 c2        1 14A     -0.195000
     22 C22        -5.6000   -2.2520   -0.1760 c1        1 14A     -0.207000
     23 C23        -4.1250    0.9210   -1.7900 c3        1 14A      0.030000
     24 C24        -4.1550    1.1500   -3.3820 c3        1 14A     -0.173500
     25 C25        -4.1850    2.6950   -3.5820 c3        1 14A     -0.154500
     26 C26        -4.4430    3.1950   -2.3710 c3        1 14A     -0.154500
     27 C27        -3.8740    2.0910   -1.2860 c3        1 14A     -0.173500
     28 HN1         5.7910   -0.2080    6.5960 DU        1 14A      0.132000
     29 HN31        4.3540    1.7670    5.9570 hn        1 14A      0.201000
     30 HN32        5.3060    2.6630    5.0610 hn        1 14A      0.201000
     31 HN4         6.3070    1.2640    3.0090 hn        1 14A      0.201000
     32 H61         6.8990   -0.8400    1.1770 h1        1 14A      0.098000
     33 H62         5.9320    0.4340    1.2050 h1        1 14A      0.098000
     34 H71         4.7000   -2.0980    1.2170 hc        1 14A      0.107500
     35 H72         5.2800   -1.5840   -0.1780 hc        1 14A      0.107500
     36 H81         3.9540    0.5070    0.5600 h1        1 14A      0.106000
     37 H82         3.0470   -0.6440    1.1970 h1        1 14A      0.106000
     38 H11         2.1440   -2.9790    0.0240 ha        1 14A      0.155000
     39 H13        -1.8050   -2.2150   -0.7500 ha        1 14A      0.160000
     40 H15         1.0130    0.6560   -1.4850 ha        1 14A      0.165000
     41 H201       -3.4690   -1.9900   -1.5870 h1        1 14A      0.102000
     42 H202       -2.6920   -1.6090   -0.2400 h1        1 14A      0.102000
     43 H21        -4.9320   -0.4210    0.3760 ha        1 14A      0.131000
     44 H221       -5.3840   -3.0590   -0.6830 DU        1 14A      0.132000
     45 H222       -6.4560   -2.1850    0.3000 ha        1 14A      0.117000
     46 H23        -4.9900    0.5960   -1.4780 h1        1 14A      0.091000
     47 H241       -4.9540    0.7450   -3.7660 hc        1 14A      0.095250
     48 H242       -3.3520    0.7720   -3.7930 hc        1 14A      0.095250
     49 H251       -4.8960    2.9430   -4.2120 hc        1 14A      0.081500
     50 H252       -3.3160    3.0130   -3.9040 hc        1 14A      0.081500
     51 H261       -3.9820    4.0470   -2.2560 hc        1 14A      0.081500
     52 H262       -5.4060    3.3150   -2.2550 hc        1 14A      0.081500
     53 H271       -4.3360    2.1930   -0.4270 hc        1 14A      0.095250
     54 H272       -2.9070    2.2050   -1.1640 hc        1 14A      0.095250
@<TRIPOS>BOND
     1    1    2 1   
     2    2    4 1   
     3    3   29 1   
     4    3   30 1   
     5    4    5 1   
     6    4   31 1   
     7    5    6 1   
     8    6    7 1   
     9    6   32 1   
    10    6   33 1   
    11    7    8 1   
    12    7   34 1   
    13    7   35 1   
    14    8    9 1   
    15    8   36 1   
    16    8   37 1   
    17    9   10 1   
    18   10   11 1   
    19   10   15 1   
    20   11   12 1   
    21   11   38 1   
    22   12   16 1   
    23   13   14 1   
    24   13   39 1   
    25   14   17 1   
    26   15   40 1   
    27   17   18 1   
    28   17   19 1   
    29   19   20 1   
    30   19   23 1   
    31   20   21 1   
    32   20   41 1   
    33   20   42 1   
    34   21   22 1   
    35   21   43 1   
    36   22   45 1   
    37   23   24 1   
    38   23   27 1   
    39   23   46 1   
    40   24   25 1   
    41   24   47 1   
    42   24   48 1   
    43   25   26 1   
    44   25   49 1   
    45   25   50 1   
    46   26   27 1   
    47   26   51 1   
    48   26   52 1   
    49   27   53 1   
    50   27   54 1   
@<TRIPOS>SUBSTRUCTURE
     1 14A         1 TEMP              0 ****  ****    0 ROOT
