@<TRIPOS>MOLECULE
14B
   22    22     1     0     0
SMALL
bcc


@<TRIPOS>ATOM
      1 CAA        -2.3680    2.5520    0.0750 c3        1 14B     -0.027800
      2 CAB        -2.1250   -2.4220   -0.0100 c3        1 14B     -0.026800
      3 NAC         0.7330   -2.2230   -0.2880 nh        1 14B     -0.816200
      4 OAD         2.6060    1.4720   -0.4960 o         1 14B     -0.837800
      5 OAE         2.8430   -0.5110    0.4840 o         1 14B     -0.837800
      6 CAF        -2.1780    0.0610    0.0460 ca        1 14B     -0.114000
      7 CAG        -0.1640    1.3750   -0.0150 ca        1 14B     -0.076000
      8 CAH         2.1280    0.4010   -0.0310 c         1 14B      0.914200
      9 CAI        -1.5620    1.3110    0.0370 ca        1 14B     -0.156300
     10 CAJ        -1.4290   -1.1150   -0.0190 ca        1 14B     -0.170300
     11 CAK        -0.0110   -1.0490   -0.0970 ca        1 14B      0.156600
     12 CAL         0.6170    0.2250   -0.0600 ca        1 14B     -0.172600
     13 HAA        -2.5690    2.9140   -0.9650 hc        1 14B      0.022700
     14 HAAA       -3.3510    2.3810    0.5780 hc        1 14B      0.022700
     15 HAAB       -1.8270    3.3610    0.6240 hc        1 14B      0.022700
     16 HAB        -1.8860   -3.0030   -0.9360 hc        1 14B      0.022700
     17 HABA       -1.8090   -3.0330    0.8740 hc        1 14B      0.022700
     18 HABB       -3.2340   -2.2900    0.0410 hc        1 14B      0.022700
     19 HNAC        0.4100   -2.9740    0.2860 hn        1 14B      0.390800
     20 HNAA        1.7230   -2.0740   -0.1860 hn        1 14B      0.390800
     21 HAF        -3.2750   -0.0030    0.1040 ha        1 14B      0.100000
     22 HAG         0.3510    2.3500   -0.0190 ha        1 14B      0.147000
@<TRIPOS>BOND
     1    1    9 1   
     2    1   13 1   
     3    1   14 1   
     4    1   15 1   
     5    2   10 1   
     6    2   16 1   
     7    2   17 1   
     8    2   18 1   
     9    3   11 1   
    10    3   19 1   
    11    3   20 1   
    12    4    8 1   
    13    5    8 1   
    14    6    9 ar  
    15    6   10 ar  
    16    6   21 1   
    17    7    9 ar  
    18    7   12 ar  
    19    7   22 1   
    20    8   12 1   
    21   10   11 ar  
    22   11   12 ar  
@<TRIPOS>SUBSTRUCTURE
     1 14B         1 TEMP              0 ****  ****    0 ROOT
