@<TRIPOS>MOLECULE
14B
   22    20     1     0     0
SMALL
bcc


@<TRIPOS>ATOM
      1 CAA        -3.1120   -0.0570   -0.1000 c3        1 14B     -0.153000
      2 CAB         1.2220   -0.0330    2.4320 c3        1 14B     -0.152000
      3 NAC         2.5900    0.0200   -0.0710 n3        1 14B     -0.325000
      4 OAD         1.2250   -0.9470   -3.3450 o         1 14B     -0.572500
      5 OAE         1.2140    1.2300   -3.2360 o         1 14B     -0.572500
      6 CAF        -0.9130   -0.0510    1.1110 c1        1 14B     -0.114000
      7 CAG        -0.9020    0.0240   -1.2880 c1        1 14B     -0.076000
      8 CAH         1.0070    0.1110   -2.6990 c2        1 14B      0.363000
      9 CAI        -1.6000   -0.0190   -0.0920 c1        1 14B     -0.149000
     10 CAJ         0.4730   -0.0380    1.1180 c2        1 14B     -0.163000
     11 CAK         1.1720    0.0050   -0.0780 c2        1 14B      0.075000
     12 CAL         0.4840    0.0370   -1.2810 c1        1 14B     -0.152000
     13 HAA        -3.4370   -0.3410    0.7800 hc        1 14B      0.061667
     14 HAAA       -3.4600    0.8360   -0.3040 hc        1 14B      0.061667
     15 HAAB       -3.4200   -0.6910   -0.7820 hc        1 14B      0.061667
     16 HAB         1.7690    0.7780    2.4930 hc        1 14B      0.062000
     17 HABA        0.5820   -0.0530    3.1730 hc        1 14B      0.062000
     18 HABB        1.8020   -0.8220    2.4800 hc        1 14B      0.062000
     19 HNAC        3.0550   -0.5220   -0.6420 hn        1 14B      0.186000
     20 HNAA        3.0380    0.5640    0.5110 hn        1 14B      0.186000
     21 HAF        -1.4050   -0.0960    1.9530 ha        1 14B      0.100000
     22 HAG        -1.3860    0.0650   -2.1340 ha        1 14B      0.147000
@<TRIPOS>BOND
     1    1    9 1   
     2    1   13 1   
     3    1   14 1   
     4    1   15 1   
     5    2   10 1   
     6    2   16 1   
     7    2   17 1   
     8    2   18 1   
     9    3   11 1   
    10    3   19 1   
    11    3   20 1   
    12    4    8 1   
    13    5    8 1   
    14    6   10 1   
    15    6   21 1   
    16    7    9 1   
    17    7   22 1   
    18    8   12 1   
    19   10   11 1   
    20   11   12 1   
@<TRIPOS>SUBSTRUCTURE
     1 14B         1 TEMP              0 ****  ****    0 ROOT
