@<TRIPOS>MOLECULE
14B
   22    22     1     0     0
SMALL
bcc


@<TRIPOS>ATOM
      1 CAA         0.0210   -0.0690   -0.0050 c3        1 14B     -0.027800
      2 CAB         4.2880    0.0350    2.5620 c3        1 14B     -0.026800
      3 NAC         5.7170    0.2610    0.0740 nv        1 14B     -0.816200
      4 OAD         3.6930    0.4560   -3.5410 o         1 14B     -0.837800
      5 OAE         5.4600   -0.5390   -2.6240 o         1 14B     -0.837800
      6 CAF         2.1950   -0.0180    1.2240 ca        1 14B     -0.114000
      7 CAG         2.2260    0.0150   -1.1810 ca        1 14B     -0.076000
      8 CAH         4.3110   -0.0080   -2.5430 c         1 14B      0.914200
      9 CAI         1.5000   -0.0170    0.0160 ca        1 14B     -0.156300
     10 CAJ         3.5900    0.0330    1.2550 ca        1 14B     -0.170300
     11 CAK         4.3250    0.0860    0.0410 ca        1 14B      0.156600
     12 CAL         3.6160    0.0440   -1.1900 ca        1 14B     -0.172600
     13 HAA        -0.4120    0.3680    0.9280 hc        1 14B      0.022033
     14 HAAA       -0.3830    0.4980   -0.8800 hc        1 14B      0.022033
     15 HAAB       -0.3290   -1.1290   -0.0870 hc        1 14B      0.022033
     16 HAB         4.9610   -0.8560    2.6520 hc        1 14B      0.022700
     17 HABA        3.5610    0.0040    3.4100 hc        1 14B      0.022700
     18 HABB        4.9150    0.9550    2.6730 hc        1 14B      0.022700
     19 HNAC        6.1540   -0.3100    0.7670 hn        1 14B      0.390800
     20 HNAA        6.1430    0.1430   -0.8310 hn        1 14B      0.390800
     21 HAF         1.6370   -0.0540    2.1720 ha        1 14B      0.100000
     22 HAG         1.7020    0.0170   -2.1520 ha        1 14B      0.147000
@<TRIPOS>BOND
     1    1    9 1   
     2    1   13 1   
     3    1   14 1   
     4    1   15 1   
     5    2   10 1   
     6    2   16 1   
     7    2   17 1   
     8    2   18 1   
     9    3   11 1   
    10    3   19 1   
    11    3   20 1   
    12    4    8 1   
    13    5    8 1   
    14    6    9 ar  
    15    6   10 ar  
    16    6   21 1   
    17    7    9 ar  
    18    7   12 ar  
    19    7   22 1   
    20    8   12 1   
    21   10   11 ar  
    22   11   12 ar  
@<TRIPOS>SUBSTRUCTURE
     1 14B         1 TEMP              0 ****  ****    0 ROOT
