@<TRIPOS>MOLECULE
14B
   22    22     1     0     0
SMALL
bcc


@<TRIPOS>ATOM
      1 CAA         0.0210   -0.0680   -0.0080 c3        1 14B     -0.027800
      2 CAB         4.2850    0.0180    2.5640 c3        1 14B     -0.026800
      3 NAC         5.7150    0.2810    0.0800 nh        1 14B     -0.816200
      4 OAD         3.6920    0.4780   -3.5380 o         1 14B     -0.837800
      5 OAE         5.4690   -0.5020   -2.6240 o         1 14B     -0.837800
      6 CAF         2.1940   -0.0390    1.2230 ca        1 14B     -0.114000
      7 CAG         2.2270    0.0110   -1.1810 ca        1 14B     -0.076000
      8 CAH         4.3140    0.0160   -2.5410 c         1 14B      0.914200
      9 CAI         1.5000   -0.0340    0.0140 ca        1 14B     -0.156300
     10 CAJ         3.5880    0.0230    1.2560 ca        1 14B     -0.170300
     11 CAK         4.3250    0.0940    0.0430 ca        1 14B      0.156600
     12 CAL         3.6170    0.0530   -1.1890 ca        1 14B     -0.172600
     13 HAA        -0.3850   -0.5860    0.8960 hc        1 14B      0.022367
     14 HAAA       -0.3900    0.9740   -0.0250 hc        1 14B      0.022367
     15 HAAB       -0.3510   -0.6010   -0.9170 hc        1 14B      0.022367
     16 HAB         4.9660   -0.8670    2.6460 hc        1 14B      0.022700
     17 HABA        3.5570   -0.0280    3.4110 hc        1 14B      0.022700
     18 HABB        4.9030    0.9430    2.6850 hc        1 14B      0.022700
     19 HNAC        6.1430    0.1740   -0.8260 hn        1 14B      0.390800
     20 HNAA        6.1560   -0.2910    0.7680 hn        1 14B      0.390800
     21 HAF         1.6350   -0.0920    2.1690 ha        1 14B      0.100000
     22 HAG         1.7050    0.0120   -2.1530 ha        1 14B      0.147000
@<TRIPOS>BOND
     1    1    9 1   
     2    1   13 1   
     3    1   14 1   
     4    1   15 1   
     5    2   10 1   
     6    2   16 1   
     7    2   17 1   
     8    2   18 1   
     9    3   11 1   
    10    3   19 1   
    11    3   20 1   
    12    4    8 1   
    13    5    8 1   
    14    6    9 ar  
    15    6   10 ar  
    16    6   21 1   
    17    7    9 ar  
    18    7   12 ar  
    19    7   22 1   
    20    8   12 1   
    21   10   11 ar  
    22   11   12 ar  
@<TRIPOS>SUBSTRUCTURE
     1 14B         1 TEMP              0 ****  ****    0 ROOT
