@<TRIPOS>MOLECULE
14B
   23    23     1     0     0
SMALL
bcc


@<TRIPOS>ATOM
      1 CAA         0.0360    0.1970   -0.0340 c3        1 14B     -0.047800
      2 CAB         4.1960   -0.0960    2.6900 c3        1 14B     -0.050800
      3 NAC         5.7260   -0.1840    0.2290 nh        1 14B     -0.835200
      4 OAD         4.2250   -0.9890   -3.2690 o         1 14B     -0.487000
      5 OAE         5.4260    0.6900   -2.5930 oh        1 14B     -0.590100
      6 CAF         2.1670    0.0510    1.2630 ca        1 14B     -0.068000
      7 CAG         2.2700   -0.0110   -1.1390 ca        1 14B     -0.045000
      8 CAH         4.4060   -0.1910   -2.3490 c         1 14B      0.641700
      9 CAI         1.5110    0.0760    0.0250 ca        1 14B     -0.122300
     10 CAJ         3.5500   -0.0610    1.3560 ca        1 14B     -0.140300
     11 CAK         4.3330   -0.1410    0.1690 ca        1 14B      0.177600
     12 CAL         3.6630   -0.1030   -1.0790 ca        1 14B     -0.239600
     13 HAA        -0.2710    1.2550    0.1620 hc        1 14B      0.045367
     14 HAAA       -0.4440   -0.4560    0.7360 hc        1 14B      0.045367
     15 HAAB       -0.3520   -0.1000   -1.0390 hc        1 14B      0.045367
     16 HAB         4.9150    0.7540    2.8030 hc        1 14B      0.045033
     17 HABA        3.4360   -0.0150    3.5060 hc        1 14B      0.045033
     18 HABB        4.7550   -1.0550    2.8350 hc        1 14B      0.045033
     19 HNAC        5.4510    1.3700   -1.9050 ho        1 14B      0.438000
     20 HNAA        6.1740   -0.5740   -0.5730 hn        1 14B      0.405800
     21 HAF         1.5680    0.1170    2.1860 ha        1 14B      0.136000
     22 HAG         1.7780   -0.0130   -2.1260 ha        1 14B      0.150000
     23 HAC3        6.1040   -0.4990    1.0940 hn        1 14B      0.405800
@<TRIPOS>BOND
     1    1    9 1   
     2    1   13 1   
     3    1   14 1   
     4    1   15 1   
     5    2   10 1   
     6    2   16 1   
     7    2   17 1   
     8    2   18 1   
     9    3   11 1   
    10    3   20 1   
    11    3   23 1   
    12    4    8 2   
    13    5    8 1   
    14    5   19 1   
    15    6    9 ar  
    16    6   10 ar  
    17    6   21 1   
    18    7    9 ar  
    19    7   12 ar  
    20    7   22 1   
    21    8   12 1   
    22   10   11 ar  
    23   11   12 ar  
@<TRIPOS>SUBSTRUCTURE
     1 14B         1 TEMP              0 ****  ****    0 ROOT
