@<TRIPOS>MOLECULE
14C
   28    27     1     0     0
SMALL
bcc


@<TRIPOS>ATOM
      1 C10         0.2550   -0.1100    0.2790 c2        1 14C      0.139000
      2 C13        -0.5300   -0.9860   -0.6250 c3        1 14C     -0.207000
      3 C30         7.3140    0.0940    1.4570 c2        1 14C     -0.118000
      4 C28         6.7680    0.7690    0.4250 c1        1 14C     -0.090000
      5 N32         6.8370   -1.0300    2.0880 n2        1 14C     -0.259000
      6 C34         6.4400   -1.9990    2.6370 c1        1 14C      0.053000
      7 C36         3.3400    1.3150   -3.5280 c2        1 14C     -0.224000
      8 C26         4.1010    0.9430   -2.4910 c2        1 14C     -0.056000
      9 N19         3.6320    0.3230   -1.3010 n         1 14C     -0.205000
     10 C21         4.5040    0.0970   -0.2710 c2        1 14C      0.295000
     11 O23         5.7150    0.7250   -0.3510 os        1 14C     -0.020000
     12 C6          4.1150   -0.6620    0.8570 c1        1 14C     -0.270000
     13 C4          3.8720   -1.3290    1.8240 c1        1 14C     -0.008000
     14 C2         -0.9400    0.6560    2.4680 c1        1 14C     -0.129000
     15 C15         2.2410   -0.0830   -1.2060 c2        1 14C      0.350000
     16 O17         1.7380   -0.6890   -2.1590 o         1 14C     -0.271000
     17 C8          1.5220    0.2960    0.0180 c2        1 14C     -0.250000
     18 C1         -0.3860    0.3070    1.4650 c1        1 14C     -0.178000
     19 H13         0.0520   -1.9130   -0.8670 hc        1 14C      0.110667
     20 H13A       -0.7210   -0.4530   -1.5930 hc        1 14C      0.110667
     21 H13B       -1.5080   -1.2770   -0.1720 hc        1 14C      0.110667
     22 H28         5.1990    1.1110   -2.4850 h4        1 14C      0.186000
     23 H34         3.8070    1.7910   -4.4010 ha        1 14C      0.139000
     24 H36         2.2540    1.1680   -3.5930 ha        1 14C      0.139000
     25 H4          2.0520    0.9530    0.7280 ha        1 14C      0.161000
     26 H2          3.6870   -1.9250    2.6890 ha        1 14C      0.255000
     27 H1         -1.4330    0.9650    3.3560 ha        1 14C      0.235000
     28 CL39        8.8210    0.7120    2.0260 cl        1 14C      0.000000
@<TRIPOS>BOND
     1    1    2 1   
     2    1   17 1   
     3    1   18 1   
     4    2   19 1   
     5    2   20 1   
     6    2   21 1   
     7    3    4 1   
     8    3    5 1   
     9    3   28 1   
    10    4   11 1   
    11    5    6 1   
    12    7    8 1   
    13    7   23 1   
    14    7   24 1   
    15    8    9 1   
    16    8   22 1   
    17    9   10 1   
    18    9   15 1   
    19   10   11 1   
    20   10   12 1   
    21   12   13 1   
    22   13   26 1   
    23   14   18 1   
    24   14   27 1   
    25   15   16 1   
    26   15   17 1   
    27   17   25 1   
@<TRIPOS>SUBSTRUCTURE
     1 14C         1 TEMP              0 ****  ****    0 ROOT
