@<TRIPOS>MOLECULE
14C
   28    26     1     0     0
SMALL
bcc


@<TRIPOS>ATOM
      1 C10        -2.7690    0.1710    0.4410 c1        1 14C      0.014000
      2 C13        -3.7560    0.1440   -0.7050 c2        1 14C     -0.203000
      3 CL39        4.5640   -2.9800   -2.2540 cl        1 14C      0.018000
      4 C30         3.8850   -1.4170   -1.8840 c2        1 14C      0.008000
      5 C28         2.6690   -1.3290   -1.2240 c2        1 14C     -0.190000
      6 N32         4.5670   -0.2840   -2.2100 n1        1 14C     -0.137000
      7 C34         4.0560    0.9370   -1.8880 c1        1 14C     -0.123000
      8 C36         2.8400    1.0280   -1.2280 c1        1 14C     -0.123000
      9 C26         2.1560   -0.1070   -0.9000 c1        1 14C      0.116000
     10 N19         0.9420   -0.0170   -0.1710 n         1 14C     -0.310000
     11 C21         0.8200    0.0490    1.2510 c2        1 14C      0.368000
     12 O23         1.7350    0.0090    2.0490 o         1 14C     -0.281000
     13 C6         -0.6620    0.1380    1.5930 c2        1 14C     -0.116000
     14 C4         -1.3410    0.1990    2.8170 c2        1 14C     -0.065000
     15 C2         -2.7260    0.2460    2.8410 c1        1 14C     -0.110000
     16 C15        -0.3700    0.0640   -0.7320 c2        1 14C      0.372000
     17 O17        -0.6390    0.1090   -1.9150 o         1 14C     -0.284000
     18 C8         -1.3700    0.1240    0.4170 c2        1 14C     -0.126000
     19 C1         -3.4400    0.2320    1.6520 c1        1 14C     -0.121000
     20 H13        -4.5160    0.7260   -0.4960 ha        1 14C      0.105000
     21 H13A       -3.3170    0.4610   -1.5220 ha        1 14C      0.105000
     22 H13B       -4.0750   -0.7730   -0.8400 ha        1 14C      0.105000
     23 H28         2.1810   -2.1410   -0.9900 ha        1 14C      0.181000
     24 H34         4.5450    1.7480   -2.1220 ha        1 14C      0.171000
     25 H36         2.4740    1.9030   -0.9970 ha        1 14C      0.171000
     26 H4         -0.8380    0.2090    3.6540 ha        1 14C      0.162000
     27 H2         -3.1990    0.2880    3.6940 ha        1 14C      0.147000
     28 H1         -4.4160    0.2650    1.6690 ha        1 14C      0.146000
@<TRIPOS>BOND
     1    1   18 1   
     2    1   19 1   
     3    2   20 1   
     4    2   21 1   
     5    2   22 1   
     6    3    4 1   
     7    4    5 1   
     8    4    6 1   
     9    5    9 1   
    10    5   23 1   
    11    7    8 1   
    12    7   24 1   
    13    8   25 1   
    14    9   10 1   
    15   10   11 1   
    16   10   16 1   
    17   11   12 1   
    18   11   13 1   
    19   13   14 1   
    20   13   18 1   
    21   14   15 1   
    22   14   26 1   
    23   15   27 1   
    24   16   17 1   
    25   16   18 1   
    26   19   28 1   
@<TRIPOS>SUBSTRUCTURE
     1 14C         1 TEMP              0 ****  ****    0 ROOT
