@<TRIPOS>MOLECULE
14C
   28    30     1     0     0
SMALL
bcc


@<TRIPOS>ATOM
      1 C10        -3.8290   -0.6130   -0.0890 ca        1 14C      0.006700
      2 C13        -4.2760   -2.0100   -0.2720 c3        1 14C     -0.077800
      3 C30         3.5540   -0.0150   -0.3560 ca        1 14C      0.502300
      4 C28         2.2130    0.4110   -0.3540 ca        1 14C     -0.255300
      5 N32         3.9580   -1.2650   -0.0280 nb        1 14C     -0.663000
      6 C34         2.9920   -2.1320    0.3210 ca        1 14C      0.419200
      7 C36         1.6240   -1.8230    0.3680 ca        1 14C     -0.265300
      8 C26         1.2130   -0.5170    0.0200 ca        1 14C      0.108600
      9 N19        -0.1440   -0.1480    0.0430 n         1 14C     -0.436600
     10 C21        -0.6290    1.1930    0.1990 c         1 14C      0.730100
     11 O23         0.0690    2.1970    0.3390 o         1 14C     -0.553500
     12 C6         -2.1220    1.1170    0.1620 ca        1 14C     -0.135600
     13 C4         -3.0610    2.1180    0.2690 ca        1 14C     -0.064000
     14 C2         -4.4180    1.7460    0.1950 ca        1 14C     -0.109000
     15 C15        -1.2440   -1.0590   -0.0910 c         1 14C      0.736100
     16 O17        -1.1400   -2.2780   -0.2410 o         1 14C     -0.562500
     17 C8         -2.4980   -0.2440   -0.0150 ca        1 14C     -0.146600
     18 C1         -4.7890    0.4220    0.0210 ca        1 14C     -0.121000
     19 H13        -4.8770   -2.3380    0.6140 hc        1 14C      0.065367
     20 H13A       -4.9230   -2.0910   -1.1820 hc        1 14C      0.065367
     21 H13B       -3.4070   -2.7060   -0.3900 hc        1 14C      0.065367
     22 H28         1.9650    1.4490   -0.6250 ha        1 14C      0.182000
     23 H34         3.3420   -3.1470    0.5850 h4        1 14C      0.032100
     24 H36         0.9010   -2.6000    0.6580 ha        1 14C      0.173000
     25 H4         -2.7670    3.1690    0.4070 ha        1 14C      0.162000
     26 H2         -5.1910    2.5270    0.2770 ha        1 14C      0.147000
     27 H1         -5.8560    0.1530   -0.0350 ha        1 14C      0.146000
     28 CL39        4.7450    1.1290   -0.8110 cl        1 14C     -0.147000
@<TRIPOS>BOND
     1    1    2 1   
     2    1   17 ar  
     3    1   18 ar  
     4    2   19 1   
     5    2   20 1   
     6    2   21 1   
     7    3    4 ar  
     8    3    5 ar  
     9    3   28 1   
    10    4    8 ar  
    11    4   22 1   
    12    5    6 ar  
    13    6    7 ar  
    14    6   23 1   
    15    7    8 ar  
    16    7   24 1   
    17    8    9 1   
    18    9   10 1   
    19    9   15 1   
    20   10   11 2   
    21   10   12 1   
    22   12   13 ar  
    23   12   17 ar  
    24   13   14 ar  
    25   13   25 1   
    26   14   18 ar  
    27   14   26 1   
    28   15   16 2   
    29   15   17 1   
    30   18   27 1   
@<TRIPOS>SUBSTRUCTURE
     1 14C         1 TEMP              0 ****  ****    0 ROOT
