@<TRIPOS>MOLECULE
14C
   28    28     1     0     0
SMALL
bcc


@<TRIPOS>ATOM
      1 C10        -0.2530   -0.1110    0.3280 c2        1 14C     -0.013000
      2 C13        -0.9730   -0.7530   -0.7740 c3        1 14C     -0.180000
      3 C30         8.4370   -0.3600    0.3560 c2        1 14C     -0.208000
      4 C28         7.4250   -0.1910   -0.5180 c1        1 14C      0.279000
      5 N32         9.7720   -0.5150    0.1120 n2        1 14C     -0.290000
      6 C34        10.9340   -0.6500   -0.0770 c1        1 14C      0.183000
      7 C36         4.0950    0.4330   -3.1180 c2        1 14C     -0.254000
      8 C26         4.1890    0.3070   -1.7870 c2        1 14C     -0.048000
      9 N19         3.1320    0.3670   -0.8680 n         1 14C     -0.291000
     10 C21         3.3370    0.2000    0.5340 c2        1 14C      0.366000
     11 O23         4.4440    0.0330    1.0570 o         1 14C     -0.307000
     12 C6          2.0120    0.2350    1.1970 c2        1 14C     -0.198000
     13 C4          1.6690   -0.2200    2.4200 c2        1 14C     -0.019000
     14 C2          0.2260   -0.1280    2.7440 c2        1 14C     -0.113000
     15 C15         1.7620    0.5900   -1.1670 c2        1 14C      0.328000
     16 O17         1.2910    0.7020   -2.3010 o         1 14C     -0.295000
     17 C8          0.9920    0.7220    0.1500 c3        1 14C     -0.079000
     18 C1         -0.5020   -0.2040    1.6380 c1        1 14C     -0.150000
     19 H13        -0.2860   -0.9800   -1.6280 hc        1 14C      0.104333
     20 H13A       -1.7730   -0.0640   -1.1510 hc        1 14C      0.104333
     21 H13B       -1.4600   -1.7000   -0.4310 hc        1 14C      0.104333
     22 H28         5.1690    0.1350   -1.2850 h4        1 14C      0.175000
     23 H34         5.0000    0.3680   -3.7350 ha        1 14C      0.136000
     24 H36         3.1560    0.6020   -3.6610 ha        1 14C      0.136000
     25 H4          0.7830    1.8180    0.3060 hc        1 14C      0.156000
     26 H2          2.3880   -0.5770    3.1680 ha        1 14C      0.165000
     27 H1         -0.1060    0.0810    3.7630 ha        1 14C      0.169000
     28 Cl39        7.8870   -0.3730    1.9990 cl        1 14C      0.038000
@<TRIPOS>BOND
     1    1    2 1   
     2    1   17 1   
     3    1   18 1   
     4    2   19 1   
     5    2   20 1   
     6    2   21 1   
     7    3    4 1   
     8    3    5 1   
     9    3   28 1   
    10    5    6 1   
    11    7    8 1   
    12    7   23 1   
    13    7   24 1   
    14    8    9 1   
    15    8   22 1   
    16    9   10 1   
    17    9   15 1   
    18   10   11 1   
    19   10   12 1   
    20   12   13 1   
    21   12   17 1   
    22   13   14 1   
    23   13   26 1   
    24   14   18 1   
    25   14   27 1   
    26   15   16 1   
    27   15   17 1   
    28   17   25 1   
@<TRIPOS>SUBSTRUCTURE
     1 14C         1 TEMP              0 ****  ****    0 ROOT
