@<TRIPOS>MOLECULE
14C
   28    29     1     0     0
SMALL
bcc


@<TRIPOS>ATOM
      1 C10         0.1410   -0.2920   -0.2460 c2        1 14C     -0.086500
      2 C13        -0.3050    0.2010   -1.5500 c3        1 14C     -0.056900
      3 C30         7.2200   -0.4100   -0.2190 ce        1 14C      0.654100
      4 C28         6.1690    0.3670    0.1280 cf        1 14C     -0.134000
      5 N32         7.3310   -1.1480   -1.3700 n1        1 14C     -1.127500
      6 C34         7.4380   -1.8020   -2.3540 c1        1 14C      0.511800
      7 C36         5.1050    1.1000   -1.9550 c2        1 14C     -0.203000
      8 C26         4.9840    0.5700   -0.7210 cf        1 14C      0.041600
      9 N19         3.7320    0.2080   -0.1620 n         1 14C     -0.436600
     10 C21         3.3850    0.3490    1.2140 c         1 14C      0.731700
     11 O23         4.1360    0.7830    2.0920 o         1 14C     -0.575500
     12 C6          1.9730   -0.0780    1.3680 ce        1 14C     -0.222400
     13 C4          1.1210    0.1920    2.3800 cf        1 14C     -0.016000
     14 C2         -0.2630   -0.3010    2.1850 cf        1 14C     -0.175100
     15 C15         2.6560   -0.3320   -0.9180 c         1 14C      0.724500
     16 O17         2.6540   -0.4670   -2.1430 o         1 14C     -0.567500
     17 C8          1.5480   -0.7500    0.0490 c3        1 14C     -0.078300
     18 C1         -0.5580   -0.3510    0.8930 c1        1 14C     -0.021800
     19 H13         0.5410    0.6630   -2.1190 hc        1 14C      0.064700
     20 H13A       -0.7010   -0.6540   -2.1590 hc        1 14C      0.064700
     21 H13B       -1.1230    0.9550   -1.4320 hc        1 14C      0.064700
     22 H28         6.1660    0.8970    1.1000 ha        1 14C      0.191000
     23 H34         6.0930    1.3550   -2.3600 ha        1 14C      0.140500
     24 H36         4.2510    1.2840   -2.6210 ha        1 14C      0.140500
     25 H4          1.6050   -1.8700    0.1590 hc        1 14C      0.118700
     26 H2          1.4150    0.6790    3.3180 ha        1 14C      0.167000
     27 H1         -0.8540   -0.6560    3.0320 ha        1 14C      0.170000
     28 CL39        8.5620   -0.5020    0.8660 cl        1 14C     -0.086400
@<TRIPOS>BOND
     1    1    2 1   
     2    1   17 1   
     3    1   18 2   
     4    2   19 1   
     5    2   20 1   
     6    2   21 1   
     7    3    4 2   
     8    3    5 1   
     9    3   28 1   
    10    4    8 1   
    11    4   22 1   
    12    5    6 3   
    13    7    8 2   
    14    7   23 1   
    15    7   24 1   
    16    8    9 1   
    17    9   10 1   
    18    9   15 1   
    19   10   11 2   
    20   10   12 1   
    21   12   13 2   
    22   12   17 1   
    23   13   14 1   
    24   13   26 1   
    25   14   18 2   
    26   14   27 1   
    27   15   16 2   
    28   15   17 1   
    29   17   25 1   
@<TRIPOS>SUBSTRUCTURE
     1 14C         1 TEMP              0 ****  ****    0 ROOT
