@<TRIPOS>MOLECULE
14D
   57    60     1     0     0
SMALL
bcc


@<TRIPOS>ATOM
      1 C1         -0.1740    0.4200    0.5420 c3        1 14D     -0.030900
      2 C2          1.2840    0.3250    0.3360 cc        1 14D     -0.257400
      3 C3          2.1720    0.2080    1.3630 cd        1 14D      0.040600
      4 N1          3.5430    0.1280    1.1680 n         1 14D     -0.372000
      5 C4          4.0660    0.1730   -0.1510 c         1 14D      0.807500
      6 O1          5.2950    0.1170   -0.3800 o         1 14D     -0.647500
      7 N2          3.1660    0.2880   -1.2210 n         1 14D     -0.585500
      8 C5          1.7720    0.3650   -1.0540 c         1 14D      0.715700
      9 O2          1.0550    0.4580   -2.0630 o         1 14D     -0.608500
     10 C6          4.4350   -0.0210    2.3140 c3        1 14D      0.123700
     11 C7          5.2610   -1.3150    2.2820 c3        1 14D     -0.101400
     12 C8          6.0960   -1.4020    3.5400 c3        1 14D     -0.075400
     13 C9          6.9710   -0.1640    3.7140 c3        1 14D      0.158800
     14 N3          6.2100    1.0790    3.6650 n3        1 14D     -0.728600
     15 C10         5.3990    1.1910    2.4590 c3        1 14D      0.145800
     16 C11         7.0540    2.2570    3.8430 c3        1 14D      0.213100
     17 C12         7.7220    2.3310    5.1860 ca        1 14D     -0.068300
     18 C13         9.0860    2.6380    5.2610 ca        1 14D     -0.139000
     19 C14         9.7130    2.7640    6.5000 ca        1 14D     -0.111000
     20 C15         8.9930    2.5800    7.6790 ca        1 14D     -0.164000
     21 C16         7.6310    2.2720    7.5940 ca        1 14D      0.088100
     22 C17         6.9820    2.1510    6.3570 ca        1 14D     -0.114000
     23 O3          6.8630    1.9570    8.7150 os        1 14D     -0.245200
     24 C18         7.0220    2.7720    9.8280 ca        1 14D      0.108100
     25 C19         7.3580    4.1300    9.7550 ca        1 14D     -0.152000
     26 C20         7.4080    4.8820   10.9280 ca        1 14D     -0.107000
     27 C21         7.1220    4.2930   12.1590 ca        1 14D     -0.107000
     28 C22         6.7850    2.9380   12.2150 ca        1 14D     -0.144300
     29 C23         6.7350    2.1600   11.0590 ca        1 14D     -0.101000
     30 C24         6.4540    2.3020   13.5600 c3        1 14D      0.687200
     31 F1          6.7200    0.9570   13.6400 f         1 14D     -0.235633
     32 F2          7.1310    2.8420   14.6270 f         1 14D     -0.235633
     33 F3          5.1310    2.4040   13.9190 f         1 14D     -0.235633
     34 H1         -0.7010   -0.3210   -0.1110 hc        1 14D      0.051700
     35 H2         -0.5340    1.4420    0.2600 hc        1 14D      0.051700
     36 H3         -0.4470    0.2250    1.6080 hc        1 14D      0.051700
     37 H4          1.8320    0.1720    2.4160 h4        1 14D      0.165000
     38 H5          3.5560    0.3120   -2.1390 hn        1 14D      0.352500
     39 H6          3.7770   -0.0540    3.2360 h1        1 14D      0.071700
     40 H7          5.9270   -1.3150    1.3770 hc        1 14D      0.064700
     41 H8          4.5850   -2.2050    2.2120 hc        1 14D      0.064700
     42 H9          5.4300   -1.5260    4.4340 hc        1 14D      0.052200
     43 H10         6.7630   -2.3010    3.4860 hc        1 14D      0.052200
     44 H11         7.7790   -0.1840    2.9230 h1        1 14D      0.042700
     45 H12         7.4740   -0.2070    4.7210 h1        1 14D      0.042700
     46 H14         6.0330    1.2600    1.5260 h1        1 14D      0.054700
     47 H15         4.7890    2.1340    2.5420 h1        1 14D      0.054700
     48 H16         7.8430    2.3230    3.0350 h1        1 14D      0.045200
     49 H17         6.3920    3.1670    3.7440 h1        1 14D      0.045200
     50 H18         9.6690    2.7820    4.3390 ha        1 14D      0.138000
     51 H19        10.7860    3.0050    6.5500 ha        1 14D      0.139000
     52 H20         9.4800    2.6730    8.6610 ha        1 14D      0.148000
     53 H21         5.9110    1.9020    6.3200 ha        1 14D      0.165000
     54 H22         7.5820    4.5900    8.7810 ha        1 14D      0.155000
     55 H23         7.6710    5.9490   10.8800 ha        1 14D      0.145000
     56 H24         7.1630    4.8870   13.0850 ha        1 14D      0.154000
     57 H25         6.4740    1.0920   11.0990 ha        1 14D      0.169000
@<TRIPOS>BOND
     1    1    2 1   
     2    1   34 1   
     3    1   35 1   
     4    1   36 1   
     5    2    3 2   
     6    2    8 1   
     7    3    4 1   
     8    3   37 1   
     9    4    5 1   
    10    4   10 1   
    11    5    6 2   
    12    5    7 1   
    13    7    8 1   
    14    7   38 1   
    15    8    9 2   
    16   10   11 1   
    17   10   15 1   
    18   10   39 1   
    19   11   12 1   
    20   11   40 1   
    21   11   41 1   
    22   12   13 1   
    23   12   42 1   
    24   12   43 1   
    25   13   14 1   
    26   13   44 1   
    27   13   45 1   
    28   14   15 1   
    29   14   16 1   
    30   15   46 1   
    31   15   47 1   
    32   16   17 1   
    33   16   48 1   
    34   16   49 1   
    35   17   18 ar  
    36   17   22 ar  
    37   18   19 ar  
    38   18   50 1   
    39   19   20 ar  
    40   19   51 1   
    41   20   21 ar  
    42   20   52 1   
    43   21   22 ar  
    44   21   23 1   
    45   22   53 1   
    46   23   24 1   
    47   24   25 ar  
    48   24   29 ar  
    49   25   26 ar  
    50   25   54 1   
    51   26   27 ar  
    52   26   55 1   
    53   27   28 ar  
    54   27   56 1   
    55   28   29 ar  
    56   28   30 1   
    57   29   57 1   
    58   30   31 1   
    59   30   32 1   
    60   30   33 1   
@<TRIPOS>SUBSTRUCTURE
     1 14D         1 TEMP              0 ****  ****    0 ROOT
