@<TRIPOS>MOLECULE
14D
   57    60     1     0     0
SMALL
bcc


@<TRIPOS>ATOM
      1 C1          7.0440    3.2380    1.9710 c3        1 14D     -0.030900
      2 C2          6.7690    1.9870    1.2390 cc        1 14D     -0.257400
      3 C3          5.5580    1.7040    0.6830 cd        1 14D      0.040600
      4 N1          5.2970    0.5230    0.0040 n         1 14D     -0.372000
      5 C4          6.3220   -0.4510   -0.1250 c         1 14D      0.807500
      6 O1          6.1350   -1.5370   -0.7160 o         1 14D     -0.647500
      7 N2          7.5780   -0.1740    0.4370 n         1 14D     -0.585500
      8 C5          7.8720    1.0160    1.1250 c         1 14D      0.715700
      9 O2          9.0160    1.1740    1.5810 o         1 14D     -0.608500
     10 C6          3.9810    0.2970   -0.5880 c3        1 14D      0.123700
     11 C7          4.0210    0.1120   -2.1120 c3        1 14D     -0.101400
     12 C8          2.6080   -0.0450   -2.6290 c3        1 14D     -0.075400
     13 C9          1.8850   -1.1920   -1.9280 c3        1 14D      0.158800
     14 N3          1.9090   -1.0740   -0.4750 n3        1 14D     -0.728600
     15 C10         3.2610   -0.9250    0.0510 c3        1 14D      0.145800
     16 C11         1.2060   -2.1690    0.1860 c3        1 14D      0.213100
     17 C12        -0.2650   -2.2190   -0.1160 ca        1 14D     -0.068300
     18 C13        -0.8570   -3.4390   -0.4630 ca        1 14D     -0.139000
     19 C14        -2.2300   -3.5160   -0.6940 ca        1 14D     -0.111000
     20 C15        -3.0290   -2.3790   -0.5880 ca        1 14D     -0.164000
     21 C16        -2.4280   -1.1640   -0.2410 ca        1 14D      0.088100
     22 C17        -1.0510   -1.0700    0.0040 ca        1 14D     -0.114000
     23 O3         -3.1300    0.0420   -0.2280 os        1 14D     -0.245200
     24 C18        -4.3810    0.0270    0.3750 ca        1 14D      0.109100
     25 C19        -4.7230   -0.8220    1.4350 ca        1 14D     -0.152000
     26 C20        -5.9760   -0.6950    2.0310 ca        1 14D     -0.107000
     27 C21        -6.8800    0.2660    1.5790 ca        1 14D     -0.107000
     28 C22        -6.5250    1.1050    0.5200 ca        1 14D     -0.144300
     29 C23        -5.2800    0.9980   -0.0970 ca        1 14D     -0.101000
     30 C24        -7.5230    2.1420    0.0160 c3        1 14D      0.687200
     31 F1         -6.9560    3.2570   -0.5500 f         1 14D     -0.235633
     32 F2         -8.3780    1.6720   -0.9530 f         1 14D     -0.235633
     33 F3         -8.3600    2.6440    0.9840 f         1 14D     -0.235633
     34 H1          7.1850    3.0210    3.0600 hc        1 14D      0.051700
     35 H2          7.9880    3.7040    1.5890 hc        1 14D      0.051700
     36 H3          6.2070    3.9690    1.8560 hc        1 14D      0.051700
     37 H4          4.7130    2.4170    0.7510 h4        1 14D      0.165000
     38 H5          8.2840   -0.8710    0.3290 hn        1 14D      0.352500
     39 H6          3.3630    1.2200   -0.3670 h1        1 14D      0.071700
     40 H7          4.5060    0.9980   -2.5970 hc        1 14D      0.064700
     41 H8          4.6280   -0.7970   -2.3670 hc        1 14D      0.064700
     42 H9          2.0380    0.9090   -2.4830 hc        1 14D      0.052200
     43 H10         2.6330   -0.2630   -3.7280 hc        1 14D      0.052200
     44 H11         0.8030   -1.1920   -2.2440 h1        1 14D      0.042700
     45 H12         2.3450   -2.1670   -2.2700 h1        1 14D      0.042700
     46 H14         3.8900   -1.8460   -0.1270 h1        1 14D      0.054700
     47 H15         3.1810   -0.7610    1.1620 h1        1 14D      0.054700
     48 H16         1.6690   -3.1690   -0.0720 h1        1 14D      0.045200
     49 H17         1.3190   -2.0230    1.3000 h1        1 14D      0.045200
     50 H18        -0.2380   -4.3440   -0.5550 ha        1 14D      0.138000
     51 H19        -2.6860   -4.4790   -0.9680 ha        1 14D      0.139000
     52 H20        -4.1120   -2.4280   -0.7730 ha        1 14D      0.148000
     53 H21        -0.6040   -0.1000    0.2690 ha        1 14D      0.165000
     54 H22        -4.0050   -1.5780    1.7890 ha        1 14D      0.155000
     55 H23        -6.2530   -1.3550    2.8660 ha        1 14D      0.145000
     56 H24        -7.8680    0.3700    2.0540 ha        1 14D      0.154000
     57 H25        -4.9930    1.6620   -0.9260 ha        1 14D      0.169000
@<TRIPOS>BOND
     1    1    2 1   
     2    1   34 1   
     3    1   35 1   
     4    1   36 1   
     5    2    3 2   
     6    2    8 1   
     7    3    4 1   
     8    3   37 1   
     9    4    5 1   
    10    4   10 1   
    11    5    6 2   
    12    5    7 1   
    13    7    8 1   
    14    7   38 1   
    15    8    9 2   
    16   10   11 1   
    17   10   15 1   
    18   10   39 1   
    19   11   12 1   
    20   11   40 1   
    21   11   41 1   
    22   12   13 1   
    23   12   42 1   
    24   12   43 1   
    25   13   14 1   
    26   13   44 1   
    27   13   45 1   
    28   14   15 1   
    29   14   16 1   
    30   15   46 1   
    31   15   47 1   
    32   16   17 1   
    33   16   48 1   
    34   16   49 1   
    35   17   18 ar  
    36   17   22 ar  
    37   18   19 ar  
    38   18   50 1   
    39   19   20 ar  
    40   19   51 1   
    41   20   21 ar  
    42   20   52 1   
    43   21   22 ar  
    44   21   23 1   
    45   22   53 1   
    46   23   24 1   
    47   24   25 ar  
    48   24   29 ar  
    49   25   26 ar  
    50   25   54 1   
    51   26   27 ar  
    52   26   55 1   
    53   27   28 ar  
    54   27   56 1   
    55   28   29 ar  
    56   28   30 1   
    57   29   57 1   
    58   30   31 1   
    59   30   32 1   
    60   30   33 1   
@<TRIPOS>SUBSTRUCTURE
     1 14D         1 TEMP              0 ****  ****    0 ROOT
