@<TRIPOS>MOLECULE
14D
   57    60     1     0     0
SMALL
bcc


@<TRIPOS>ATOM
      1 C1         -0.1650    0.4860    0.5230 c3        1 14D     -0.030900
      2 C2          1.2920    0.3690    0.3230 cc        1 14D     -0.257400
      3 C3          2.1740    0.2420    1.3530 cd        1 14D      0.040600
      4 N1          3.5450    0.1410    1.1650 n         1 14D     -0.372000
      5 C4          4.0740    0.1750   -0.1530 c         1 14D      0.807500
      6 O1          5.3020    0.1010   -0.3760 o         1 14D     -0.647500
      7 N2          3.1790    0.3000   -1.2270 ns        1 14D     -0.585500
      8 C5          1.7860    0.3970   -1.0650 c         1 14D      0.715700
      9 O2          1.0740    0.4970   -2.0780 o         1 14D     -0.608500
     10 C6          4.4300   -0.0170    2.3150 c3        1 14D      0.123700
     11 C7          5.2370   -1.3220    2.2900 c3        1 14D     -0.101400
     12 C8          6.0650   -1.4170    3.5520 c3        1 14D     -0.075400
     13 C9          6.9580   -0.1920    3.7250 c3        1 14D      0.158800
     14 N3          6.2150    1.0620    3.6690 n3        1 14D     -0.728600
     15 C10         5.4110    1.1820    2.4590 c3        1 14D      0.145800
     16 C11         7.0750    2.2280    3.8470 c3        1 14D      0.213100
     17 C12         7.7390    2.2970    5.1920 ca        1 14D     -0.068300
     18 C13         9.1070    2.5830    5.2740 ca        1 14D     -0.139000
     19 C14         9.7290    2.7050    6.5150 ca        1 14D     -0.111000
     20 C15         9.0000    2.5380    7.6910 ca        1 14D     -0.164000
     21 C16         7.6330    2.2510    7.6000 ca        1 14D      0.088100
     22 C17         6.9890    2.1350    6.3610 ca        1 14D     -0.114000
     23 O3          6.8550    1.9540    8.7190 os        1 14D     -0.245200
     24 C18         7.0190    2.7740    9.8280 ca        1 14D      0.109100
     25 C19         7.3770    4.1250    9.7480 ca        1 14D     -0.152000
     26 C20         7.4300    4.8830   10.9160 ca        1 14D     -0.107000
     27 C21         7.1260    4.3080   12.1490 ca        1 14D     -0.107000
     28 C22         6.7670    2.9590   12.2110 ca        1 14D     -0.144300
     29 C23         6.7130    2.1740   11.0610 ca        1 14D     -0.101000
     30 C24         6.4160    2.3370   13.5590 c3        1 14D      0.687200
     31 F1          6.6600    0.9880   13.6490 f         1 14D     -0.235633
     32 F2          7.0930    2.8730   14.6270 f         1 14D     -0.235633
     33 F3          5.0920    2.4610   13.9060 f         1 14D     -0.235633
     34 H1         -0.4460    0.2940    1.5870 hc        1 14D      0.051700
     35 H2         -0.7010   -0.2460   -0.1330 hc        1 14D      0.051700
     36 H3         -0.5080    1.5130    0.2390 hc        1 14D      0.051700
     37 H4          1.8290    0.2140    2.4050 h4        1 14D      0.165000
     38 H5          3.5740    0.3150   -2.1430 hn        1 14D      0.352500
     39 H6          3.7680   -0.0360    3.2340 h1        1 14D      0.071700
     40 H7          4.5480   -2.2030    2.2210 hc        1 14D      0.064700
     41 H8          5.9060   -1.3360    1.3890 hc        1 14D      0.064700
     42 H9          6.7200   -2.3260    3.5040 hc        1 14D      0.052200
     43 H10         5.3940   -1.5280    4.4430 hc        1 14D      0.052200
     44 H11         7.4550   -0.2380    4.7350 h1        1 14D      0.042700
     45 H12         7.7680   -0.2260    2.9380 h1        1 14D      0.042700
     46 H14         6.0490    1.2390    1.5290 h1        1 14D      0.054700
     47 H15         4.8150    2.1340    2.5370 h1        1 14D      0.054700
     48 H16         7.8690    2.2790    3.0420 h1        1 14D      0.045200
     49 H17         6.4280    3.1480    3.7400 h1        1 14D      0.045200
     50 H18         9.6960    2.7130    4.3540 ha        1 14D      0.138000
     51 H19        10.8050    2.9280    6.5690 ha        1 14D      0.139000
     52 H20         9.4830    2.6260    8.6750 ha        1 14D      0.148000
     53 H21         5.9140    1.9030    6.3180 ha        1 14D      0.165000
     54 H22         7.6150    4.5760    8.7730 ha        1 14D      0.155000
     55 H23         7.7110    5.9470   10.8640 ha        1 14D      0.145000
     56 H24         7.1700    4.9070   13.0720 ha        1 14D      0.154000
     57 H25         6.4340    1.1100   11.1050 ha        1 14D      0.169000
@<TRIPOS>BOND
     1    1    2 1   
     2    1   34 1   
     3    1   35 1   
     4    1   36 1   
     5    2    3 2   
     6    2    8 1   
     7    3    4 1   
     8    3   37 1   
     9    4    5 1   
    10    4   10 1   
    11    5    6 2   
    12    5    7 1   
    13    7    8 1   
    14    7   38 1   
    15    8    9 2   
    16   10   11 1   
    17   10   15 1   
    18   10   39 1   
    19   11   12 1   
    20   11   40 1   
    21   11   41 1   
    22   12   13 1   
    23   12   42 1   
    24   12   43 1   
    25   13   14 1   
    26   13   44 1   
    27   13   45 1   
    28   14   15 1   
    29   14   16 1   
    30   15   46 1   
    31   15   47 1   
    32   16   17 1   
    33   16   48 1   
    34   16   49 1   
    35   17   18 ar  
    36   17   22 ar  
    37   18   19 ar  
    38   18   50 1   
    39   19   20 ar  
    40   19   51 1   
    41   20   21 ar  
    42   20   52 1   
    43   21   22 ar  
    44   21   23 1   
    45   22   53 1   
    46   23   24 1   
    47   24   25 ar  
    48   24   29 ar  
    49   25   26 ar  
    50   25   54 1   
    51   26   27 ar  
    52   26   55 1   
    53   27   28 ar  
    54   27   56 1   
    55   28   29 ar  
    56   28   30 1   
    57   29   57 1   
    58   30   31 1   
    59   30   32 1   
    60   30   33 1   
@<TRIPOS>SUBSTRUCTURE
     1 14D         1 TEMP              0 ****  ****    0 ROOT
