@<TRIPOS>MOLECULE
14D
   57    52     1     0     0
SMALL
bcc


@<TRIPOS>ATOM
      1 C1         -4.5620   -2.1340   -3.7120 c3        1 14D     -0.154000
      2 C2         -4.0330   -3.5320   -3.6940 c1        1 14D     -0.229000
      3 C3         -3.9640   -3.8850   -2.6130 c1        1 14D      0.030000
      4 N1         -2.7650   -3.3410   -1.8530 n2        1 14D     -0.251000
      5 C4         -1.5710   -3.1300   -2.5980 c1        1 14D      0.409000
      6 O1         -0.5060   -3.3020   -2.0810 o         1 14D     -0.368000
      7 N2         -1.6870   -3.1010   -4.1450 n2        1 14D     -0.368000
      8 C5         -2.5660   -3.7150   -4.5820 c1        1 14D      0.355000
      9 O2         -2.2190   -4.8680   -4.7010 o         1 14D     -0.338000
     10 C6         -2.7070   -3.4690   -0.3890 c3        1 14D      0.053000
     11 C7         -1.5240   -4.2630   -0.0240 c3        1 14D     -0.155000
     12 C8         -0.2610   -3.5440   -0.2890 c3        1 14D     -0.161000
     13 C9         -0.2460   -2.1510    0.3300 c3        1 14D     -0.078000
     14 N3         -1.4250   -1.3660   -0.0320 n3        1 14D     -0.250000
     15 C10        -2.6830   -2.0770    0.2300 c3        1 14D     -0.090000
     16 C11        -1.4180   -0.1040    0.7080 c3        1 14D     -0.030000
     17 C12        -0.0850    0.6420    0.4510 c2        1 14D     -0.063000
     18 C13         0.1330    1.2600   -0.7760 c2        1 14D     -0.118000
     19 C14         1.2270    2.1090   -0.9450 c1        1 14D     -0.112000
     20 C15         2.1040    2.3390    0.1170 c1        1 14D     -0.163000
     21 C16         1.8880    1.7230    1.3420 c1        1 14D      0.046000
     22 C17         0.7930    0.8730    1.5120 c2        1 14D     -0.134000
     23 O3          2.8310    1.9050    2.4140 o         1 14D     -0.156000
     24 C18         3.0510    3.3090    2.6290 c1        1 14D      0.063000
     25 C19         2.0480    4.0890    3.1840 c1        1 14D     -0.129500
     26 C20         2.3020    5.4120    3.5160 c1        1 14D     -0.129500
     27 C21         3.5600    5.9560    3.2920 c1        1 14D     -0.107000
     28 C22         4.5630    5.1770    2.7370 c1        1 14D     -0.137000
     29 C23         4.3110    3.8550    2.4050 c2        1 14D     -0.101000
     30 C24         5.9490    5.7550    2.5420 c2        1 14D      0.466000
     31 F1          6.6780    5.5480    3.6450 f         1 14D     -0.164333
     32 F2          5.8540    7.0760    2.3080 f         1 14D     -0.164333
     33 F3          6.5370    5.1610    1.5030 f         1 14D     -0.164333
     34 H1         -4.0840   -1.6120   -4.3970 hc        1 14D      0.090333
     35 H2         -5.5150   -2.1490   -3.9200 hc        1 14D      0.090333
     36 H3         -4.4260   -1.7240   -2.8380 hc        1 14D      0.090333
     37 H4         -4.7950   -4.0510   -2.1240 ha        1 14D      0.158000
     38 H5         -0.8950   -3.0520   -4.5960 hn        1 14D      0.265000
     39 H6         -3.5080   -3.9380   -0.0810 h1        1 14D      0.091000
     40 H7         -1.5290   -5.0950   -0.5410 hc        1 14D      0.103500
     41 H8         -1.5700   -4.4820    0.9310 hc        1 14D      0.103500
     42 H9         -0.1420   -3.4630   -1.2390 hc        1 14D      0.104000
     43 H10         0.4850   -4.0630    0.0810 hc        1 14D      0.104000
     44 H11         0.5530   -1.6790    0.0250 h1        1 14D      0.078500
     45 H12        -0.2100   -2.2380    1.3020 h1        1 14D      0.078500
     46 H14        -3.4240   -1.5540   -0.1380 h1        1 14D      0.077500
     47 H15        -2.8040   -2.1590    1.1980 h1        1 14D      0.077500
     48 H16        -2.1680    0.4540    0.4090 h1        1 14D      0.081000
     49 H17        -1.5100   -0.2870    1.6660 h1        1 14D      0.081000
     50 H18        -0.4830    1.0990   -1.5230 ha        1 14D      0.153000
     51 H19         1.3810    2.5450   -1.8120 ha        1 14D      0.141000
     52 H20         2.8730    2.9360   -0.0030 ha        1 14D      0.148000
     53 H21         0.6400    0.4370    2.3800 ha        1 14D      0.151000
     54 H22         1.1680    3.7090    3.3420 ha        1 14D      0.150500
     55 H23         1.5970    5.9600    3.9060 ha        1 14D      0.150500
     56 H24         3.7380    6.8910    3.5270 ha        1 14D      0.154000
     57 H25         5.0160    3.3080    2.0150 ha        1 14D      0.170000
@<TRIPOS>BOND
     1    1    2 1   
     2    1   34 1   
     3    1   35 1   
     4    1   36 1   
     5    2    3 1   
     6    3   37 1   
     7    4    5 1   
     8    4   10 1   
     9    5    6 1   
    10    7    8 1   
    11    7   38 1   
    12    8    9 1   
    13   10   11 1   
    14   10   15 1   
    15   10   39 1   
    16   11   12 1   
    17   11   40 1   
    18   11   41 1   
    19   12   13 1   
    20   12   42 1   
    21   12   43 1   
    22   13   14 1   
    23   13   44 1   
    24   13   45 1   
    25   14   15 1   
    26   14   16 1   
    27   15   46 1   
    28   15   47 1   
    29   16   17 1   
    30   16   48 1   
    31   16   49 1   
    32   17   18 1   
    33   17   22 1   
    34   18   19 1   
    35   18   50 1   
    36   19   51 1   
    37   20   21 1   
    38   20   52 1   
    39   21   22 1   
    40   22   53 1   
    41   23   24 1   
    42   24   29 1   
    43   25   26 1   
    44   25   54 1   
    45   26   55 1   
    46   27   28 1   
    47   27   56 1   
    48   28   29 1   
    49   29   57 1   
    50   30   31 1   
    51   30   32 1   
    52   30   33 1   
@<TRIPOS>SUBSTRUCTURE
     1 14D         1 TEMP              0 ****  ****    0 ROOT
