@<TRIPOS>MOLECULE
14D
   57    60     1     0     0
SMALL
bcc


@<TRIPOS>ATOM
      1 C1         -0.1690    0.4370    0.5390 c3        1 14D     -0.030900
      2 C2          1.2890    0.3370    0.3330 cc        1 14D     -0.257400
      3 C3          2.1760    0.2160    1.3600 cd        1 14D      0.040600
      4 N1          3.5470    0.1330    1.1660 n         1 14D     -0.372000
      5 C4          4.0710    0.1780   -0.1530 c         1 14D      0.807500
      6 O1          5.2990    0.1190   -0.3810 o         1 14D     -0.647500
      7 N2          3.1710    0.2970   -1.2230 n         1 14D     -0.585500
      8 C5          1.7780    0.3770   -1.0570 c         1 14D      0.715700
      9 O2          1.0610    0.4730   -2.0670 o         1 14D     -0.608500
     10 C6          4.4380   -0.0200    2.3130 c3        1 14D      0.123700
     11 C7          5.2600   -1.3160    2.2790 c3        1 14D     -0.101400
     12 C8          6.0940   -1.4060    3.5390 c3        1 14D     -0.075400
     13 C9          6.9720   -0.1710    3.7140 c3        1 14D      0.158800
     14 N3          6.2140    1.0750    3.6660 n3        1 14D     -0.728600
     15 C10         5.4050    1.1900    2.4590 c3        1 14D      0.145800
     16 C11         7.0610    2.2500    3.8460 c3        1 14D      0.213100
     17 C12         7.7280    2.3210    5.1890 ca        1 14D     -0.068300
     18 C13         9.0930    2.6220    5.2680 ca        1 14D     -0.139000
     19 C14         9.7180    2.7460    6.5080 ca        1 14D     -0.111000
     20 C15         8.9950    2.5660    7.6850 ca        1 14D     -0.164000
     21 C16         7.6310    2.2640    7.5970 ca        1 14D      0.088100
     22 C17         6.9840    2.1460    6.3590 ca        1 14D     -0.114000
     23 O3          6.8590    1.9530    8.7170 os        1 14D     -0.245200
     24 C18         7.0180    2.7700    9.8290 ca        1 14D      0.109100
     25 C19         7.3600    4.1260    9.7540 ca        1 14D     -0.152000
     26 C20         7.4090    4.8800   10.9250 ca        1 14D     -0.107000
     27 C21         7.1150    4.2960   12.1560 ca        1 14D     -0.107000
     28 C22         6.7720    2.9420   12.2140 ca        1 14D     -0.144300
     29 C23         6.7230    2.1620   11.0600 ca        1 14D     -0.101000
     30 C24         6.4330    2.3110   13.5600 c3        1 14D      0.687200
     31 F1          6.6930    0.9650   13.6440 f         1 14D     -0.235633
     32 F2          7.1080    2.8500   14.6280 f         1 14D     -0.235633
     33 F3          5.1090    2.4190   13.9120 f         1 14D     -0.235633
     34 H1         -0.6990   -0.2940   -0.1230 hc        1 14D      0.051700
     35 H2         -0.5240    1.4630    0.2670 hc        1 14D      0.051700
     36 H3         -0.4450    0.2300    1.6010 hc        1 14D      0.051700
     37 H4          1.8350    0.1800    2.4130 h4        1 14D      0.165000
     38 H5          3.5620    0.3210   -2.1410 hn        1 14D      0.352500
     39 H6          3.7790   -0.0510    3.2340 h1        1 14D      0.071700
     40 H7          5.9260   -1.3170    1.3760 hc        1 14D      0.064700
     41 H8          4.5810   -2.2040    2.2090 hc        1 14D      0.064700
     42 H9          5.4260   -1.5290    4.4310 hc        1 14D      0.052200
     43 H10         6.7580   -2.3070    3.4840 hc        1 14D      0.052200
     44 H11         7.4740   -0.2160    4.7220 h1        1 14D      0.042700
     45 H12         7.7800   -0.1920    2.9240 h1        1 14D      0.042700
     46 H14         4.7980    2.1350    2.5420 h1        1 14D      0.054700
     47 H15         6.0390    1.2580    1.5270 h1        1 14D      0.054700
     48 H16         7.8520    2.3130    3.0390 h1        1 14D      0.045200
     49 H17         6.4030    3.1620    3.7450 h1        1 14D      0.045200
     50 H18         9.6780    2.7620    4.3460 ha        1 14D      0.138000
     51 H19        10.7920    2.9810    6.5590 ha        1 14D      0.139000
     52 H20         9.4790    2.6560    8.6680 ha        1 14D      0.148000
     53 H21         5.9120    1.9010    6.3190 ha        1 14D      0.165000
     54 H22         7.5890    4.5830    8.7800 ha        1 14D      0.155000
     55 H23         7.6770    5.9470   10.8760 ha        1 14D      0.145000
     56 H24         7.1550    4.8910   13.0820 ha        1 14D      0.154000
     57 H25         6.4570    1.0950   11.1010 ha        1 14D      0.169000
@<TRIPOS>BOND
     1    1    2 1   
     2    1   34 1   
     3    1   35 1   
     4    1   36 1   
     5    2    3 2   
     6    2    8 1   
     7    3    4 1   
     8    3   37 1   
     9    4    5 1   
    10    4   10 1   
    11    5    6 2   
    12    5    7 1   
    13    7    8 1   
    14    7   38 1   
    15    8    9 2   
    16   10   11 1   
    17   10   15 1   
    18   10   39 1   
    19   11   12 1   
    20   11   40 1   
    21   11   41 1   
    22   12   13 1   
    23   12   42 1   
    24   12   43 1   
    25   13   14 1   
    26   13   44 1   
    27   13   45 1   
    28   14   15 1   
    29   14   16 1   
    30   15   46 1   
    31   15   47 1   
    32   16   17 1   
    33   16   48 1   
    34   16   49 1   
    35   17   18 ar  
    36   17   22 ar  
    37   18   19 ar  
    38   18   50 1   
    39   19   20 ar  
    40   19   51 1   
    41   20   21 ar  
    42   20   52 1   
    43   21   22 ar  
    44   21   23 1   
    45   22   53 1   
    46   23   24 1   
    47   24   25 ar  
    48   24   29 ar  
    49   25   26 ar  
    50   25   54 1   
    51   26   27 ar  
    52   26   55 1   
    53   27   28 ar  
    54   27   56 1   
    55   28   29 ar  
    56   28   30 1   
    57   29   57 1   
    58   30   31 1   
    59   30   32 1   
    60   30   33 1   
@<TRIPOS>SUBSTRUCTURE
     1 14D         1 TEMP              0 ****  ****    0 ROOT
