@<TRIPOS>MOLECULE
14E
   43    45     1     0     0
SMALL
bcc


@<TRIPOS>ATOM
      1 O4          0.5170   -4.1660   -1.3710 o         1 14E     -0.829800
      2 N1          5.1030   -1.1730    1.5170 nc        1 14E     -0.388300
      3 O1          4.1510   -2.0810    1.5220 os        1 14E     -0.136100
      4 C25        -0.0800   -3.2280   -0.7820 c         1 14E      0.916600
      5 C17         0.7880   -2.0830   -0.1720 c3        1 14E     -0.175700
      6 C16         2.0390   -2.7030    0.4290 c3        1 14E     -0.116700
      7 C14         3.5450   -0.5840   -0.0580 cd        1 14E     -0.360600
      8 C13         4.8090   -0.2300    0.5900 cd        1 14E      0.353800
      9 C12         5.5990    0.9500    0.2830 ca        1 14E     -0.112500
     10 C11         4.9940    2.0340   -0.3720 ca        1 14E     -0.106000
     11 C10         5.7410    3.1700   -0.6760 ca        1 14E     -0.143000
     12 C7          7.0910    3.2390   -0.3320 ca        1 14E     -0.134000
     13 C8          7.6950    2.1650    0.3210 ca        1 14E     -0.143000
     14 C9          6.9560    1.0240    0.6290 ca        1 14E     -0.106000
     15 C15         3.1550   -1.7570    0.5580 cc        1 14E      0.281000
     16 C18         0.0110   -1.2480    0.8290 c3        1 14E     -0.453600
     17 P1         -0.1690    0.2910    0.3220 py        1 14E      1.577400
     18 O2          0.1470    1.1830    1.6530 oh        1 14E     -0.818400
     19 O3          0.8010    0.8570   -0.6250 o         1 14E     -0.907300
     20 C19        -1.7320    0.5890    0.0020 ca        1 14E     -0.438500
     21 C20        -2.2870    1.8100    0.3910 ca        1 14E     -0.035500
     22 C21        -3.6070    2.1250    0.0870 ca        1 14E     -0.138000
     23 C22        -4.3850    1.2020   -0.6220 ca        1 14E      0.021100
     24 BR1        -6.1680    1.6210   -1.0420 br        1 14E     -0.117100
     25 C23        -3.8430   -0.0220   -1.0140 ca        1 14E     -0.138000
     26 C24        -2.5150   -0.3240   -0.6970 ca        1 14E     -0.035500
     27 H1          1.0940   -1.4350   -1.0420 hc        1 14E      0.068700
     28 H2          1.8080   -3.1550    1.4310 hc        1 14E      0.088200
     29 H3          2.3670   -3.5490   -0.2480 hc        1 14E      0.088200
     30 H4          3.0290   -0.0190   -0.8350 ha        1 14E      0.215000
     31 H5          3.9260    1.9840   -0.6440 ha        1 14E      0.154000
     32 H6          5.2600    4.0150   -1.1910 ha        1 14E      0.125000
     33 H7          7.6760    4.1360   -0.5750 ha        1 14E      0.120000
     34 H8          8.7590    2.2160    0.5940 ha        1 14E      0.125000
     35 H9          7.4410    0.1810    1.1440 ha        1 14E      0.154000
     36 H10        -0.9700   -1.7840    1.0000 hc        1 14E      0.123200
     37 H11         0.5230   -1.2870    1.8270 hc        1 14E      0.123200
     38 H12         0.9030    1.7550    1.5590 ho        1 14E      0.458000
     39 H13        -1.6560    2.5170    0.9550 ha        1 14E      0.189000
     40 H14        -4.0290    3.0900    0.4020 ha        1 14E      0.146500
     41 H15        -4.4450   -0.7600   -1.5650 ha        1 14E      0.146500
     42 H16        -2.0880   -1.3130   -0.9880 ha        1 14E      0.189000
     43 OXT        -1.3400   -3.1430   -0.6820 o         1 14E     -0.829800
@<TRIPOS>BOND
     1    1    4 1   
     2    2    3 1   
     3    2    8 2   
     4    3   15 1   
     5    4    5 1   
     6    4   43 1   
     7    5    6 1   
     8    5   16 1   
     9    5   27 1   
    10    6   15 1   
    11    6   28 1   
    12    6   29 1   
    13    7    8 1   
    14    7   15 2   
    15    7   30 1   
    16    8    9 1   
    17    9   10 ar  
    18    9   14 ar  
    19   10   11 ar  
    20   10   31 1   
    21   11   12 ar  
    22   11   32 1   
    23   12   13 ar  
    24   12   33 1   
    25   13   14 ar  
    26   13   34 1   
    27   14   35 1   
    28   16   17 1   
    29   16   36 1   
    30   16   37 1   
    31   17   18 1   
    32   17   19 2   
    33   17   20 1   
    34   18   38 1   
    35   20   21 ar  
    36   20   26 ar  
    37   21   22 ar  
    38   21   39 1   
    39   22   23 ar  
    40   22   40 1   
    41   23   24 1   
    42   23   25 ar  
    43   25   26 ar  
    44   25   41 1   
    45   26   42 1   
@<TRIPOS>SUBSTRUCTURE
     1 14E         1 TEMP              0 ****  ****    0 ROOT
