@<TRIPOS>MOLECULE
14E
   43    44     1     0     0
SMALL
bcc


@<TRIPOS>ATOM
      1 O4         -0.9230    0.7640   -1.3400 o         1 14E     -0.455500
      2 N1          0.1920   -3.4440    1.5130 n2        1 14E     -0.256700
      3 O1          0.0410   -2.1520    1.2540 os        1 14E     -0.123400
      4 C25         0.0480    0.3670   -1.9020 c1        1 14E      0.906000
      5 C17         2.5850    0.5100    0.3940 c3        1 14E      0.055800
      6 C16         1.3370   -0.2070    0.6980 c2        1 14E     -0.541200
      7 C14         2.2730   -2.5800    1.0750 cc        1 14E     -0.489000
      8 C13         1.5130   -3.7550    1.4220 cd        1 14E      0.051000
      9 C12         2.0690   -5.0660    1.6310 cf        1 14E     -0.021300
     10 C11         3.5640   -5.2430    1.7880 c3        1 14E     -0.022000
     11 C10         3.8410   -6.2320    2.8910 c2        1 14E     -0.173200
     12 C7          2.9580   -7.1750    3.2890 ce        1 14E     -0.141000
     13 C8          1.7480   -7.3500    2.4680 ce        1 14E     -0.209100
     14 C9          1.4410   -6.2280    1.8300 c1        1 14E     -0.016800
     15 C15         1.3080   -1.5430    0.9650 cc        1 14E      0.192100
     16 C18         2.9360    1.5790    1.4260 c3        1 14E     -0.459600
     17 P1          4.0910    1.0350    2.4530 py        1 14E      1.551500
     18 O2          3.5450   -0.3060    3.1560 oh        1 14E     -0.823400
     19 O3          5.4140    0.8020    1.8730 o         1 14E     -0.885300
     20 C19         4.0930    2.0990    3.6900 ce        1 14E     -0.407700
     21 C20         3.1580    1.9050    4.8070 ce        1 14E     -0.059000
     22 C21         2.6920    3.0050    5.4430 c2        1 14E     -0.198200
     23 C22         3.2350    4.3910    5.2230 c3        1 14E      0.096100
     24 BR1         1.9540    5.4850    4.2410 br        1 14E     -0.177400
     25 C23         4.6110    4.3200    4.6160 c2        1 14E     -0.236300
     26 C24         4.7270    3.2500    3.8470 c1        1 14E      0.169200
     27 H1          2.4800    1.0050   -0.6130 hc        1 14E      0.023200
     28 H2          3.4530   -0.2020    0.3120 hc        1 14E      0.023200
     29 H3          0.4140    0.3800    0.7290 ha        1 14E      0.119000
     30 H4          3.3290   -2.5180    0.8650 ha        1 14E      0.140000
     31 H5          3.9930   -4.2420    2.0660 hc        1 14E      0.078700
     32 H6          4.0690   -5.5860    0.8480 hc        1 14E      0.078700
     33 H7          4.8320   -6.1390    3.3550 ha        1 14E      0.119000
     34 H8          3.1490   -7.8700    4.1150 ha        1 14E      0.118000
     35 H9          1.3040   -8.3370    2.3380 ha        1 14E      0.136000
     36 H10         1.9860    1.8820    1.9380 hc        1 14E      0.095200
     37 H11         3.2800    2.4940    0.8790 hc        1 14E      0.095200
     38 H12         3.0570   -0.9370    2.6210 ho        1 14E      0.505000
     39 H13         2.7950    0.8800    4.9840 ha        1 14E      0.188000
     40 H14         1.8550    2.9420    6.1530 ha        1 14E      0.148000
     41 H15         3.3430    4.9140    6.2090 h1        1 14E      0.096700
     42 H16         5.3890    5.0180    4.9310 ha        1 14E      0.166000
     43 OXT         0.9770    0.0160   -2.5580 o         1 14E     -0.455500
@<TRIPOS>BOND
     1    1    4 2   
     2    2    3 1   
     3    2    8 1   
     4    3   15 1   
     5    4   43 2   
     6    5    6 1   
     7    5   16 1   
     8    5   27 1   
     9    5   28 1   
    10    6   15 2   
    11    6   29 1   
    12    7    8 2   
    13    7   15 1   
    14    7   30 1   
    15    8    9 1   
    16    9   10 1   
    17    9   14 2   
    18   10   11 1   
    19   10   31 1   
    20   10   32 1   
    21   11   12 2   
    22   11   33 1   
    23   12   13 1   
    24   12   34 1   
    25   13   14 2   
    26   13   35 1   
    27   16   17 1   
    28   16   36 1   
    29   16   37 1   
    30   17   18 1   
    31   17   19 2   
    32   17   20 1   
    33   18   38 1   
    34   20   21 1   
    35   20   26 2   
    36   21   22 2   
    37   21   39 1   
    38   22   23 1   
    39   22   40 1   
    40   23   24 1   
    41   23   25 1   
    42   23   41 1   
    43   25   26 2   
    44   25   42 1   
@<TRIPOS>SUBSTRUCTURE
     1 14E         1 TEMP              0 ****  ****    0 ROOT
