@<TRIPOS>MOLECULE
14E
   42    44     1     0     0
SMALL
bcc


@<TRIPOS>ATOM
      1 O4         -0.3360    0.4300   -0.2260 o         1 14E     -0.572000
      2 N1          0.5970   -4.3080    2.1280 n2        1 14E     -0.043000
      3 O1          0.1140   -3.1020    2.3060 os        1 14E     -0.075000
      4 C25         0.6890   -0.0890    0.2930 c2        1 14E      0.348000
      5 C17         1.3530    0.0300    2.7500 c3        1 14E     -0.116000
      6 C16         0.5230   -0.7220    1.7150 c3        1 14E     -0.141000
      7 C14         1.9640   -2.8210    1.0420 c2        1 14E     -0.242000
      8 C13         1.7260   -4.2220    1.3720 c2        1 14E     -0.102000
      9 C12         2.5400   -5.3260    0.9510 c2        1 14E      0.049000
     10 C11         3.8780   -5.0760    0.2910 c3        1 14E     -0.112000
     11 C10         4.8930   -6.0520    0.8290 c2        1 14E     -0.161000
     12 C7          4.5690   -7.2470    1.3710 c2        1 14E     -0.146000
     13 C8          3.1660   -7.6780    1.2480 c2        1 14E     -0.139000
     14 C9          2.3530   -6.6350    1.1490 c1        1 14E     -0.147000
     15 C15         0.9270   -2.1340    1.6500 c2        1 14E      0.073000
     16 C18         0.6760    1.2670    3.2630 c3        1 14E     -0.841000
     17 P1          1.5830    1.9480    4.5100 p5        1 14E      2.106000
     18 O2          0.8510    3.1480    5.0300 o         1 14E     -0.894500
     19 O3          2.0350    0.9280    5.4910 o         1 14E     -0.894500
     20 C19         2.8980    2.5810    3.6680 c2        1 14E     -0.675000
     21 C20         2.7480    4.0010    3.1700 c3        1 14E     -0.201000
     22 C21         3.9150    4.8260    3.4600 c1        1 14E     -0.036000
     23 C22         5.1730    4.2170    3.9720 c3        1 14E     -0.139000
     24 Br1         6.7070    5.3000    3.4550 br        1 14E     -0.075000
     25 C23         5.3270    2.7920    3.4830 c2        1 14E     -0.249000
     26 C24         4.1460    2.1960    3.5520 c1        1 14E     -0.021000
     27 H1          2.3360    0.3140    2.2880 hc        1 14E      0.092500
     28 H2          1.5700   -0.6300    3.6340 hc        1 14E      0.092500
     29 H3         -0.5650   -0.6610    1.9950 hc        1 14E      0.109000
     30 H4          2.7390   -2.3830    0.4190 ha        1 14E      0.197000
     31 H5          4.1930   -4.0280    0.5490 hc        1 14E      0.124000
     32 H6          3.8410   -5.1570   -0.8260 hc        1 14E      0.124000
     33 H7          5.9380   -5.7230    0.7440 ha        1 14E      0.121000
     34 H8          5.3060   -7.9360    1.7960 ha        1 14E      0.118000
     35 H9          2.9190   -8.7330    1.1210 ha        1 14E      0.135000
     36 H10        -0.3440    1.0110    3.6470 hc        1 14E      0.111000
     37 H11         0.5070    1.9800    2.4190 hc        1 14E      0.111000
     38 H13         2.5340    4.0880    2.0670 hc        1 14E      0.191000
     39 H14         1.8450    4.4310    3.7280 hc        1 14E      0.191000
     40 H15         5.1320    4.2840    5.0930 h1        1 14E      0.154000
     41 H16         6.2520    2.4330    3.0400 ha        1 14E      0.150000
     42 OXT         1.8200   -0.1490   -0.2660 o         1 14E     -0.572000
@<TRIPOS>BOND
     1    1    4 1   
     2    2    3 1   
     3    2    8 1   
     4    3   15 1   
     5    4    6 1   
     6    4   42 1   
     7    5    6 1   
     8    5   16 1   
     9    5   27 1   
    10    5   28 1   
    11    6   15 1   
    12    6   29 1   
    13    7    8 1   
    14    7   15 1   
    15    7   30 1   
    16    8    9 1   
    17    9   10 1   
    18    9   14 1   
    19   10   11 1   
    20   10   31 1   
    21   10   32 1   
    22   11   12 1   
    23   11   33 1   
    24   12   13 1   
    25   12   34 1   
    26   13   14 1   
    27   13   35 1   
    28   16   17 1   
    29   16   36 1   
    30   16   37 1   
    31   17   18 1   
    32   17   19 1   
    33   17   20 1   
    34   20   21 1   
    35   20   26 1   
    36   21   22 1   
    37   21   38 1   
    38   21   39 1   
    39   22   23 1   
    40   23   24 1   
    41   23   25 1   
    42   23   40 1   
    43   25   26 1   
    44   25   41 1   
@<TRIPOS>SUBSTRUCTURE
     1 14E         1 TEMP              0 ****  ****    0 ROOT
