@<TRIPOS>MOLECULE
14E
   43    35     1     0     0
SMALL
bcc


@<TRIPOS>ATOM
      1 O4         -1.0220    0.1880   -3.8090 o         1 14E     -0.564500
      2 N1          0.3450   -3.1430   -0.1940 n2        1 14E     -0.053000
      3 O1         -0.0000   -1.9090   -0.7380 os        1 14E     -0.079000
      4 C25        -1.6160    0.5380   -2.7550 c1        1 14E      0.336000
      5 C17        -0.8610    0.6010   -1.4510 c2        1 14E     -0.165000
      6 C16        -1.6730   -0.0780   -0.3640 c3        1 14E     -0.101000
      7 C14        -1.5090   -2.4430    0.7830 c1        1 14E     -0.230000
      8 C13        -0.5810   -3.4640    0.7350 c1        1 14E     -0.082000
      9 C12        -0.5990   -4.7300    1.5800 c1        1 14E     -0.005000
     10 C11        -0.2240   -4.6790    2.9140 c1        1 14E     -0.106000
     11 C10        -0.2630   -5.8270    3.6900 c1        1 14E     -0.114750
     12 C7         -0.6760   -7.0270    3.1320 c1        1 14E     -0.114750
     13 C8         -1.0500   -7.0780    1.7980 c1        1 14E     -0.146000
     14 C9         -1.0120   -5.9290    1.0220 c2        1 14E     -0.106000
     15 C15        -1.1370   -1.4880   -0.1340 c2        1 14E     -0.008000
     16 C18        -0.6240    2.0520   -1.0730 c3        1 14E     -0.940000
     17 P1          1.0330    2.5640   -1.6400 p3        1 14E      2.879000
     18 O2          2.1200    1.5670   -1.0630 oh        1 14E     -0.851000
     19 O3          1.0780    2.5400   -3.1210 o         1 14E     -1.178000
     20 C19         1.3840    4.2520   -1.0500 c1        1 14E     -0.473500
     21 C20         1.1090    5.3400   -1.8640 c1        1 14E     -0.114750
     22 C21         1.4670    6.6180   -1.4590 c1        1 14E     -0.114750
     23 C22         2.0980    6.8070   -0.2400 c1        1 14E     -0.473500
     24 BR1         2.5680    8.5710    0.3290 br        1 14E      0.023000
     25 C23         2.3720    5.7190    0.5740 c1        1 14E     -0.081000
     26 C24         2.0150    4.4410    0.1690 c1        1 14E     -0.081000
     27 H1         -0.0040    0.1460   -1.5490 ha        1 14E      0.108000
     28 H2         -1.6030    0.4370    0.4640 hc        1 14E      0.127500
     29 H3         -2.6110   -0.1270   -0.6400 hc        1 14E      0.127500
     30 H4         -2.2750   -2.3910    1.3870 DU        1 14E      0.215000
     31 H5          0.1070   -3.8440    3.2950 ha        1 14E      0.164000
     32 H6          0.0260   -5.7970    4.6230 ha        1 14E      0.134000
     33 H7         -0.7340   -7.8300    3.6870 ha        1 14E      0.134000
     34 H8         -1.3100   -7.9300    1.3970 ha        1 14E      0.122000
     35 H9         -1.3820   -6.0350    0.1250 ha        1 14E      0.144000
     36 H10        -0.6810    2.1490   -0.1010 hc        1 14E      0.162500
     37 H11        -1.3020    2.6150   -1.4980 hc        1 14E      0.162500
     38 H12         2.8550    1.6110   -1.5600 ho        1 14E      0.257000
     39 H13         0.6640    5.2070   -2.7230 ha        1 14E      0.134000
     40 H14         1.2730    7.3840   -2.0320 ha        1 14E      0.134000
     41 H15         2.8530    5.8480    1.4140 ha        1 14E      0.191500
     42 H16         2.2080    3.6760    0.7420 ha        1 14E      0.191500
     43 OXT        -2.8260    0.8800   -2.7990 o         1 14E     -0.564500
@<TRIPOS>BOND
     1    1    4 1   
     2    2    3 1   
     3    2    8 1   
     4    3   15 1   
     5    4   43 1   
     6    5    6 1   
     7    5   16 1   
     8    5   27 1   
     9    6   15 1   
    10    6   28 1   
    11    6   29 1   
    12    7    8 1   
    13    7   15 1   
    14    9   10 1   
    15    9   14 1   
    16   10   31 1   
    17   11   12 1   
    18   11   32 1   
    19   12   33 1   
    20   13   14 1   
    21   13   34 1   
    22   14   35 1   
    23   16   17 1   
    24   16   36 1   
    25   16   37 1   
    26   17   18 1   
    27   17   19 1   
    28   18   38 1   
    29   20   26 1   
    30   21   22 1   
    31   21   39 1   
    32   22   40 1   
    33   23   25 1   
    34   25   41 1   
    35   26   42 1   
@<TRIPOS>SUBSTRUCTURE
     1 14E         1 TEMP              0 ****  ****    0 ROOT
