@<TRIPOS>MOLECULE
14F
   24    24     1     0     0
SMALL
bcc


@<TRIPOS>ATOM
      1 CAA         0.0450    0.2150    1.7130 c2        1 14F     -0.874000
      2 CAB         5.6290    0.2920    1.8740 c2        1 14F     -0.184000
      3 OAD         4.9110    1.1550    4.4730 o         1 14F     -0.543000
      4 OAE         3.6610   -0.3810    5.5100 o         1 14F     -0.543000
      5 CAF         1.4500    0.4750    1.7750 c3        1 14F      0.095000
      6 CAG         4.3380   -0.0630    1.8760 c2        1 14F     -0.038000
      7 OAH         1.5770   -0.1380   -0.6090 oh        1 14F     -0.305000
      8 CAK         2.1190   -0.1530    3.0250 c2        1 14F      0.168000
      9 CAL         2.2420    0.0130    0.5860 c2        1 14F     -0.044000
     10 CAM         3.5800   -0.2020    0.6320 c2        1 14F     -0.046000
     11 CAN         3.5890   -0.4170    3.1160 c3        1 14F     -0.179000
     12 HAA         0.6280    0.0080   -0.4090 ho        1 14F      0.256000
     13 HAAA       -0.3310   -0.7720    1.4690 ha        1 14F      0.078500
     14 HAAB       -0.6700    1.0150    1.8560 ha        1 14F      0.078500
     15 HAB         3.7360   -0.5770   -1.2310 ho        1 14F      0.211000
     16 HABA        6.2000    0.4220    2.8040 ha        1 14F      0.125000
     17 HABB        6.1620    0.4920    0.9360 ha        1 14F      0.125000
     18 HNAC        0.3380   -0.2790    3.9090 hn        1 14F      0.270500
     19 HNAA        1.7040   -0.7500    4.9170 hn        1 14F      0.270500
     20 HAF         1.6540    1.5830    1.9060 hc        1 14F      0.102000
     21 HAG         3.7250   -1.5350    3.2570 hc        1 14F      0.128000
     22 OAI         4.3380   -0.5620   -0.4730 oh        1 14F     -0.274000
     23 CAJ         4.1170    0.1900    4.4730 c2        1 14F      0.346000
     24 NAC         1.3250   -0.4510    4.0330 n3        1 14F     -0.222000
@<TRIPOS>BOND
     1    1    5 1   
     2    1   13 1   
     3    1   14 1   
     4    2    6 1   
     5    2   16 1   
     6    2   17 1   
     7    3   23 1   
     8    4   23 1   
     9    5    8 1   
    10    5    9 1   
    11    5   20 1   
    12    6   10 1   
    13    6   11 1   
    14    7    9 1   
    15    7   12 1   
    16    8   11 1   
    17    8   24 1   
    18    9   10 1   
    19   10   22 1   
    20   11   21 1   
    21   11   23 1   
    22   15   22 1   
    23   18   24 1   
    24   19   24 1   
@<TRIPOS>SUBSTRUCTURE
     1 14F         1 TEMP              0 ****  ****    0 ROOT
