@<TRIPOS>MOLECULE
14F
   24    22     1     0     0
SMALL
bcc


@<TRIPOS>ATOM
      1 CAA        -1.0430    1.7860   -2.4940 c3        1 14F     -0.071000
      2 CAB         1.3490   -1.6230   -2.3600 c3        1 14F     -0.071000
      3 NAC        -0.7430    1.3270    2.9200 n3        1 14F     -0.326000
      4 OAD         0.5320   -1.9360    3.7130 o         1 14F     -0.568500
      5 OAE         2.2630   -0.7050    3.1730 o         1 14F     -0.568500
      6 CAF        -1.0230    1.0280    0.4820 c1        1 14F     -0.214000
      7 CAG         0.4670   -1.3070    0.6220 c1        1 14F     -0.099000
      8 OAH        -1.5240    0.6390   -1.8440 os        1 14F     -0.225500
      9 OAI         0.0900   -1.6890   -1.7960 os        1 14F     -0.225500
     10 CAJ         1.0580   -1.1520    2.9340 c2        1 14F      0.365000
     11 CAK        -0.4880    0.5810    1.7070 c2        1 14F      0.075000
     12 CAL        -0.8100    0.3110   -0.6500 c1        1 14F      0.000000
     13 CAM        -0.0610   -0.8690   -0.5980 c1        1 14F      0.000000
     14 CAN         0.2530   -0.5880    1.7570 c2        1 14F     -0.147000
     15 HAA        -0.7460    2.3890   -1.8640 h1        1 14F      0.068833
     16 HAAA       -1.7850    2.2040   -3.0390 h1        1 14F      0.068833
     17 HAAB       -0.3530    1.5580   -3.0460 h1        1 14F      0.068833
     18 HAB         2.0380   -1.2660   -1.6360 h1        1 14F      0.068833
     19 HABA        1.3340   -1.0010   -3.1420 h1        1 14F      0.068833
     20 HABB        1.6100   -2.4810   -2.6490 h1        1 14F      0.068833
     21 HNAC       -1.4750    2.0480    2.9300 hn        1 14F      0.189000
     22 HNAA       -0.3230    1.0470    3.7610 hn        1 14F      0.189000
     23 HAF        -1.6430    1.8560    0.4610 ha        1 14F      0.126000
     24 HAG         1.0240   -2.1570    0.6590 ha        1 14F      0.159000
@<TRIPOS>BOND
     1    1    8 1   
     2    1   15 1   
     3    1   16 1   
     4    1   17 1   
     5    2    9 1   
     6    2   18 1   
     7    2   19 1   
     8    2   20 1   
     9    3   11 1   
    10    3   21 1   
    11    3   22 1   
    12    4   10 1   
    13    5   10 1   
    14    6   11 1   
    15    6   23 1   
    16    7   14 1   
    17    7   24 1   
    18    8   12 1   
    19    9   13 1   
    20   10   14 1   
    21   11   14 1   
    22   12   13 1   
@<TRIPOS>SUBSTRUCTURE
     1 14F         1 TEMP              0 ****  ****    0 ROOT
