@<TRIPOS>MOLECULE
14F
   24    24     1     0     0
SMALL
bcc


@<TRIPOS>ATOM
      1 CAA         3.6300    1.0580   -0.3120 c3        1 14F      0.121700
      2 CAB         1.6410   -2.8050   -0.0970 c3        1 14F      0.119700
      3 OAD        -2.9490   -1.3070   -0.9250 o         1 14F     -0.833300
      4 OAE        -3.6630    0.4070    0.3050 o         1 14F     -0.833300
      5 CAF         0.4420    1.8050    0.4760 ca        1 14F     -0.193000
      6 CAG        -0.3150   -0.8100   -0.1480 ca        1 14F     -0.134000
      7 OAH         2.7100    1.1290    0.7720 os        1 14F     -0.344900
      8 CAK        -0.9200    1.5150    0.2330 ca        1 14F      0.132600
      9 CAL         1.4060    0.7970    0.4140 ca        1 14F      0.071100
     10 CAM         1.0330   -0.5180    0.0850 ca        1 14F      0.030100
     11 CAN        -1.2930    0.1760   -0.0570 ca        1 14F     -0.151600
     12 HAA         3.6640    0.0230   -0.7330 h1        1 14F      0.030033
     13 HAAA        3.3520    1.7900   -1.1090 h1        1 14F      0.030033
     14 HAAB        4.6120    1.3310    0.1480 h1        1 14F      0.030033
     15 HAB         2.5960   -3.3850   -0.0330 h1        1 14F      0.034033
     16 HABA        0.9630   -3.0690    0.7510 h1        1 14F      0.034033
     17 HABB        1.1310   -2.9960   -1.0730 h1        1 14F      0.034033
     18 HNAC       -1.7330    3.1900    0.9760 hn        1 14F      0.388800
     19 HNAA       -2.7960    2.2430    0.1280 hn        1 14F      0.388800
     20 HAF         0.7650    2.8250    0.7270 ha        1 14F      0.127000
     21 HAG        -0.6460   -1.8280   -0.4110 ha        1 14F      0.160000
     22 OAI         2.0620   -1.4500   -0.0130 os        1 14F     -0.344900
     23 CAJ        -2.7400   -0.2640   -0.2460 c         1 14F      0.915200
     24 NAC        -1.8470    2.5720    0.2000 nh        1 14F     -0.813200
@<TRIPOS>BOND
     1    1    7 1   
     2    1   12 1   
     3    1   13 1   
     4    1   14 1   
     5    2   15 1   
     6    2   16 1   
     7    2   17 1   
     8    2   22 1   
     9    3   23 1   
    10    4   23 1   
    11    5    8 ar  
    12    5    9 ar  
    13    5   20 1   
    14    6   10 ar  
    15    6   11 ar  
    16    6   21 1   
    17    7    9 1   
    18    8   11 ar  
    19    8   24 1   
    20    9   10 ar  
    21   10   22 1   
    22   11   23 1   
    23   18   24 1   
    24   19   24 1   
@<TRIPOS>SUBSTRUCTURE
     1 14F         1 TEMP              0 ****  ****    0 ROOT
