@<TRIPOS>MOLECULE
14H
   69    69     1     0     0
SMALL
bcc


@<TRIPOS>ATOM
      1 O21         2.0280   -1.7520    1.4280 o         1 14H     -0.603100
      2 C21         2.1400   -1.1840    0.3250 c         1 14H      0.649100
      3 N2          3.3840   -0.9940   -0.2640 n         1 14H     -0.552900
      4 C2          4.5690   -1.6280    0.2680 c3        1 14H      0.096700
      5 C1          4.7440   -3.0860   -0.2180 c3        1 14H      0.098400
      6 O1          4.8960   -3.0630   -1.6280 oh        1 14H     -0.610800
      7 C3          5.8450   -0.8420   -0.0660 c3        1 14H     -0.107400
      8 C4          5.9520    0.4410    0.7590 c3        1 14H      0.182400
      9 C5          7.0650    1.3060    0.2340 ca        1 14H     -0.116300
     10 C6          6.7740    2.5620   -0.3080 ca        1 14H     -0.119000
     11 C7          7.8000    3.3680   -0.8000 ca        1 14H     -0.128000
     12 C8          9.1220    2.9290   -0.7500 ca        1 14H     -0.125000
     13 C9          9.4180    1.6780   -0.2080 ca        1 14H     -0.128000
     14 C10         8.3930    0.8690    0.2810 ca        1 14H     -0.119000
     15 O4          6.1200    0.1420    2.1360 oh        1 14H     -0.586800
     16 C22         0.9480   -0.6070   -0.4160 c3        1 14H     -0.150400
     17 C23        -0.3420   -0.8980    0.3200 c3        1 14H     -0.074400
     18 C24        -1.5280   -0.3070   -0.4110 c3        1 14H     -0.079400
     19 C25        -2.8200   -0.5980    0.3220 c3        1 14H     -0.078400
     20 C26        -4.0090   -0.0090   -0.4060 c3        1 14H     -0.079400
     21 C27        -5.3010   -0.3000    0.3270 c3        1 14H     -0.079400
     22 C28        -6.4900    0.2890   -0.4010 c3        1 14H     -0.078400
     23 C29        -7.7820   -0.0030    0.3320 c3        1 14H     -0.079400
     24 C30        -8.9720    0.5860   -0.3950 c3        1 14H     -0.078400
     25 C31       -10.2630    0.2950    0.3380 c3        1 14H     -0.079400
     26 C32       -11.4530    0.8840   -0.3890 c3        1 14H     -0.079400
     27 C33       -12.7460    0.5930    0.3440 c3        1 14H     -0.080400
     28 C34       -13.9330    1.1780   -0.3770 c3        1 14H     -0.092100
     29 HN2         3.4120   -0.7860   -1.2360 hn        1 14H      0.305500
     30 H2          4.4570   -1.6690    1.3960 h1        1 14H      0.104700
     31 H1          5.6570   -3.5300    0.2600 h1        1 14H      0.035200
     32 H1A         3.8450   -3.6970    0.0660 h1        1 14H      0.035200
     33 HO1         4.9590   -3.9820   -1.9140 ho        1 14H      0.403000
     34 H3          6.7270   -1.4970    0.1580 hc        1 14H      0.058700
     35 H3A         5.8790   -0.5950   -1.1580 hc        1 14H      0.058700
     36 H4          4.9750    1.0050    0.7330 h1        1 14H      0.091700
     37 H6          5.7330    2.9170   -0.3430 ha        1 14H      0.129500
     38 H7          7.5640    4.3550   -1.2250 ha        1 14H      0.132500
     39 H8          9.9300    3.5660   -1.1370 ha        1 14H      0.133000
     40 H9         10.4600    1.3280   -0.1660 ha        1 14H      0.132500
     41 H10         8.6310   -0.1190    0.7040 ha        1 14H      0.129500
     42 HO4         6.9900   -0.2610    2.2450 ho        1 14H      0.395000
     43 H22         1.0860    0.5020   -0.5180 hc        1 14H      0.062200
     44 H22A        0.9040   -1.0440   -1.4480 hc        1 14H      0.062200
     45 H23        -0.4690   -2.0070    0.4280 hc        1 14H      0.059200
     46 H23A       -0.2810   -0.4780    1.3590 hc        1 14H      0.059200
     47 H24        -1.3950    0.8020   -0.5130 hc        1 14H      0.037200
     48 H24A       -1.5810   -0.7300   -1.4490 hc        1 14H      0.037200
     49 H25        -2.9520   -1.7080    0.4230 hc        1 14H      0.043200
     50 H25A       -2.7660   -0.1760    1.3600 hc        1 14H      0.043200
     51 H26        -3.8760    1.1010   -0.5080 hc        1 14H      0.038700
     52 H26A       -4.0620   -0.4310   -1.4440 hc        1 14H      0.038700
     53 H27        -5.4340   -1.4100    0.4280 hc        1 14H      0.040200
     54 H27A       -5.2470    0.1220    1.3650 hc        1 14H      0.040200
     55 H28        -6.3570    1.3980   -0.5020 hc        1 14H      0.039200
     56 H28A       -6.5430   -0.1340   -1.4390 hc        1 14H      0.039200
     57 H29        -7.9150   -1.1120    0.4340 hc        1 14H      0.039700
     58 H29A       -7.7290    0.4200    1.3700 hc        1 14H      0.039700
     59 H30        -8.8390    1.6960   -0.4960 hc        1 14H      0.039200
     60 H30A       -9.0250    0.1640   -1.4330 hc        1 14H      0.039200
     61 H31       -10.3960   -0.8150    0.4400 hc        1 14H      0.039700
     62 H31A      -10.2100    0.7170    1.3760 hc        1 14H      0.039700
     63 H32       -11.3210    1.9930   -0.4900 hc        1 14H      0.039700
     64 H32A      -11.5070    0.4620   -1.4270 hc        1 14H      0.039700
     65 H33       -12.8760   -0.5170    0.4460 hc        1 14H      0.038700
     66 H33A      -12.6900    1.0150    1.3820 hc        1 14H      0.038700
     67 H34       -13.8340    2.2870   -0.4660 hc        1 14H      0.032700
     68 H34A      -14.0200    0.7510   -1.4050 hc        1 14H      0.032700
     69 H34B      -14.8750    0.9520    0.1800 hc        1 14H      0.032700
@<TRIPOS>BOND
     1    1    2 2   
     2    2    3 1   
     3    2   16 1   
     4    3    4 1   
     5    3   29 1   
     6    4    5 1   
     7    4    7 1   
     8    4   30 1   
     9    5    6 1   
    10    5   31 1   
    11    5   32 1   
    12    6   33 1   
    13    7    8 1   
    14    7   34 1   
    15    7   35 1   
    16    8    9 1   
    17    8   15 1   
    18    8   36 1   
    19    9   10 ar  
    20    9   14 ar  
    21   10   11 ar  
    22   10   37 1   
    23   11   12 ar  
    24   11   38 1   
    25   12   13 ar  
    26   12   39 1   
    27   13   14 ar  
    28   13   40 1   
    29   14   41 1   
    30   15   42 1   
    31   16   17 1   
    32   16   43 1   
    33   16   44 1   
    34   17   18 1   
    35   17   45 1   
    36   17   46 1   
    37   18   19 1   
    38   18   47 1   
    39   18   48 1   
    40   19   20 1   
    41   19   49 1   
    42   19   50 1   
    43   20   21 1   
    44   20   51 1   
    45   20   52 1   
    46   21   22 1   
    47   21   53 1   
    48   21   54 1   
    49   22   23 1   
    50   22   55 1   
    51   22   56 1   
    52   23   24 1   
    53   23   57 1   
    54   23   58 1   
    55   24   25 1   
    56   24   59 1   
    57   24   60 1   
    58   25   26 1   
    59   25   61 1   
    60   25   62 1   
    61   26   27 1   
    62   26   63 1   
    63   26   64 1   
    64   27   28 1   
    65   27   65 1   
    66   27   66 1   
    67   28   67 1   
    68   28   68 1   
    69   28   69 1   
@<TRIPOS>SUBSTRUCTURE
     1 14H         1 TEMP              0 ****  ****    0 ROOT
