@<TRIPOS>MOLECULE
14H
   70    70     1     0     0
SMALL
bcc


@<TRIPOS>ATOM
      1 O21         0.1690    0.3560    0.0520 o         1 14H     -0.412100
      2 C21         1.3640    0.2890   -0.1850 c         1 14H      0.551100
      3 N2          2.3100    0.4390    0.9890 n4        1 14H     -0.676800
      4 C2          1.6790    0.1800    2.3300 c3        1 14H      0.137500
      5 C1          1.2800   -1.3030    2.4810 c3        1 14H      0.107400
      6 O1          2.4110   -2.0870    2.1430 oh        1 14H     -0.635800
      7 C3          2.6020    0.5780    3.4830 c3        1 14H     -0.117400
      8 C4          3.1940    1.9880    3.3800 c3        1 14H      0.191400
      9 C5          3.4260    2.5660    4.7420 ca        1 14H     -0.163300
     10 C6          4.7220    2.6230    5.2650 ca        1 14H     -0.114000
     11 C7          4.9380    3.1600    6.5340 ca        1 14H     -0.118500
     12 C8          3.8640    3.6450    7.2810 ca        1 14H     -0.099000
     13 C9          2.5700    3.5920    6.7590 ca        1 14H     -0.118500
     14 C10         2.3500    3.0530    5.4930 ca        1 14H     -0.114000
     15 O4          2.3110    2.7750    2.5830 oh        1 14H     -0.659800
     16 C22         2.0410    0.0700   -1.5070 c3        1 14H     -0.155400
     17 C23         1.0580    0.2550   -2.6490 c3        1 14H     -0.082400
     18 C24         1.7370   -0.0180   -3.9750 c3        1 14H     -0.080400
     19 C25         0.7670    0.1720   -5.1220 c3        1 14H     -0.079400
     20 C26         1.4390   -0.0980   -6.4520 c3        1 14H     -0.079400
     21 C27         0.4710    0.0930   -7.6010 c3        1 14H     -0.079400
     22 C28         1.1420   -0.1750   -8.9310 c3        1 14H     -0.079400
     23 C29         0.1760    0.0180  -10.0800 c3        1 14H     -0.079400
     24 C30         0.8470   -0.2480  -11.4110 c3        1 14H     -0.079400
     25 C31        -0.1190   -0.0550  -12.5600 c3        1 14H     -0.079400
     26 C32         0.5510   -0.3200  -13.8910 c3        1 14H     -0.079400
     27 C33        -0.4130   -0.1270  -15.0420 c3        1 14H     -0.079400
     28 C34         0.2500   -0.3900  -16.3690 c3        1 14H     -0.093100
     29 HN2         3.0940   -0.2140    0.8700 hn        1 14H      0.471800
     30 H2          0.7410    0.8150    2.3700 hx        1 14H      0.132700
     31 H1          0.4320   -1.5510    1.7850 h1        1 14H      0.073200
     32 H1A         0.9580   -1.4770    3.5410 h1        1 14H      0.073200
     33 HO1         2.2960   -2.9580    2.5460 ho        1 14H      0.449000
     34 H3          3.4420   -0.1610    3.5740 hc        1 14H      0.093200
     35 H3A         1.9840    0.5090    4.4200 hc        1 14H      0.093200
     36 H4          4.1750    1.9410    2.8180 h1        1 14H      0.044700
     37 H6          5.5740    2.2470    4.6790 ha        1 14H      0.135500
     38 H7          5.9590    3.2030    6.9440 ha        1 14H      0.150500
     39 H8          4.0370    4.0710    8.2820 ha        1 14H      0.152000
     40 H9          1.7220    3.9770    7.3470 ha        1 14H      0.150500
     41 H10         1.3310    3.0100    5.0810 ha        1 14H      0.135500
     42 HO4         2.2920    3.6730    2.9390 ho        1 14H      0.452000
     43 H22         2.4510   -0.9790   -1.5230 hc        1 14H      0.099200
     44 H22A        2.9030    0.7810   -1.6290 hc        1 14H      0.099200
     45 H23         0.6540    1.3020   -2.6340 hc        1 14H      0.069700
     46 H23A        0.1870   -0.4400   -2.5140 hc        1 14H      0.069700
     47 H24         2.6110    0.6740   -4.1040 hc        1 14H      0.047700
     48 H24A        2.1350   -1.0670   -3.9890 hc        1 14H      0.047700
     49 H25         0.3660    1.2200   -5.1090 hc        1 14H      0.048200
     50 H25A       -0.1080   -0.5190   -4.9950 hc        1 14H      0.048200
     51 H26         2.3140    0.5920   -6.5790 hc        1 14H      0.042700
     52 H26A        1.8380   -1.1470   -6.4670 hc        1 14H      0.042700
     53 H27         0.0710    1.1410   -7.5860 hc        1 14H      0.042700
     54 H27A       -0.4040   -0.5970   -7.4750 hc        1 14H      0.042700
     55 H28         1.5420   -1.2230   -8.9470 hc        1 14H      0.040700
     56 H28A        2.0180    0.5150   -9.0570 hc        1 14H      0.040700
     57 H29        -0.2240    1.0660  -10.0640 hc        1 14H      0.040700
     58 H29A       -0.7000   -0.6720   -9.9560 hc        1 14H      0.040700
     59 H30         1.2460   -1.2970  -11.4280 hc        1 14H      0.040700
     60 H30A        1.7230    0.4420  -11.5360 hc        1 14H      0.040700
     61 H31        -0.5190    0.9930  -12.5430 hc        1 14H      0.040200
     62 H31A       -0.9950   -0.7450  -12.4360 hc        1 14H      0.040200
     63 H32         0.9520   -1.3680  -13.9090 hc        1 14H      0.039700
     64 H32A        1.4270    0.3700  -14.0160 hc        1 14H      0.039700
     65 H33        -1.2890   -0.8170  -14.9150 hc        1 14H      0.038700
     66 H33A       -0.8140    0.9210  -15.0210 hc        1 14H      0.038700
     67 H34        -0.4780   -0.2420  -17.2030 hc        1 14H      0.034367
     68 H34A        0.6340   -1.4370  -16.4180 hc        1 14H      0.034367
     69 H34B        1.1110    0.3060  -16.5250 hc        1 14H      0.034367
     70 H221        2.6700    1.4060    0.9860 hn        1 14H      0.471800
@<TRIPOS>BOND
     1    1    2 2   
     2    2    3 1   
     3    2   16 1   
     4    3    4 1   
     5    3   29 1   
     6    3   70 1   
     7    4    5 1   
     8    4    7 1   
     9    4   30 1   
    10    5    6 1   
    11    5   31 1   
    12    5   32 1   
    13    6   33 1   
    14    7    8 1   
    15    7   34 1   
    16    7   35 1   
    17    8    9 1   
    18    8   15 1   
    19    8   36 1   
    20    9   10 ar  
    21    9   14 ar  
    22   10   11 ar  
    23   10   37 1   
    24   11   12 ar  
    25   11   38 1   
    26   12   13 ar  
    27   12   39 1   
    28   13   14 ar  
    29   13   40 1   
    30   14   41 1   
    31   15   42 1   
    32   16   17 1   
    33   16   43 1   
    34   16   44 1   
    35   17   18 1   
    36   17   45 1   
    37   17   46 1   
    38   18   19 1   
    39   18   47 1   
    40   18   48 1   
    41   19   20 1   
    42   19   49 1   
    43   19   50 1   
    44   20   21 1   
    45   20   51 1   
    46   20   52 1   
    47   21   22 1   
    48   21   53 1   
    49   21   54 1   
    50   22   23 1   
    51   22   55 1   
    52   22   56 1   
    53   23   24 1   
    54   23   57 1   
    55   23   58 1   
    56   24   25 1   
    57   24   59 1   
    58   24   60 1   
    59   25   26 1   
    60   25   61 1   
    61   25   62 1   
    62   26   27 1   
    63   26   63 1   
    64   26   64 1   
    65   27   28 1   
    66   27   65 1   
    67   27   66 1   
    68   28   67 1   
    69   28   68 1   
    70   28   69 1   
@<TRIPOS>SUBSTRUCTURE
     1 14H         1 TEMP              0 ****  ****    0 ROOT
