@<TRIPOS>MOLECULE
14H
   70    70     1     0     0
SMALL
bcc


@<TRIPOS>ATOM
      1 O21         0.1640    0.4610    0.0390 o         1 14H     -0.412100
      2 C21         1.3570    0.3560   -0.1950 c         1 14H      0.551100
      3 N2          2.3040    0.4780    0.9820 n4        1 14H     -0.676800
      4 C2          1.6660    0.2160    2.3190 c3        1 14H      0.137500
      5 C1          1.2350   -1.2600    2.4510 c3        1 14H      0.107400
      6 O1          2.3490   -2.0640    2.1040 oh        1 14H     -0.635800
      7 C3          2.5950    0.5790    3.4780 c3        1 14H     -0.117400
      8 C4          3.2170    1.9780    3.3930 c3        1 14H      0.191400
      9 C5          3.4620    2.5340    4.7610 ca        1 14H     -0.163300
     10 C6          4.7580    2.5550    5.2850 ca        1 14H     -0.114000
     11 C7          4.9850    3.0720    6.5610 ca        1 14H     -0.118500
     12 C8          3.9210    3.5710    7.3140 ca        1 14H     -0.099000
     13 C9          2.6270    3.5520    6.7910 ca        1 14H     -0.118500
     14 C10         2.3960    3.0340    5.5190 ca        1 14H     -0.114000
     15 O4          2.3520    2.7930    2.6050 oh        1 14H     -0.659800
     16 C22         2.0310    0.1140   -1.5150 c3        1 14H     -0.155400
     17 C23         1.0530    0.3110   -2.6590 c3        1 14H     -0.082400
     18 C24         1.7280    0.0160   -3.9820 c3        1 14H     -0.080400
     19 C25         0.7620    0.2150   -5.1320 c3        1 14H     -0.079400
     20 C26         1.4300   -0.0800   -6.4590 c3        1 14H     -0.079400
     21 C27         0.4670    0.1180   -7.6100 c3        1 14H     -0.079400
     22 C28         1.1330   -0.1760   -8.9370 c3        1 14H     -0.079400
     23 C29         0.1700    0.0220  -10.0880 c3        1 14H     -0.079400
     24 C30         0.8350   -0.2720  -11.4160 c3        1 14H     -0.079400
     25 C31        -0.1270   -0.0750  -12.5670 c3        1 14H     -0.079400
     26 C32         0.5380   -0.3680  -13.8950 c3        1 14H     -0.079400
     27 C33        -0.4240   -0.1720  -15.0480 c3        1 14H     -0.079400
     28 C34         0.2340   -0.4630  -16.3720 c3        1 14H     -0.093100
     29 HN2         2.6790    1.4390    0.9900 hn        1 14H      0.472300
     30 H2          0.7410    0.8700    2.3650 hx        1 14H      0.133700
     31 H1          0.9060   -1.4400    3.5080 h1        1 14H      0.073200
     32 H1A         0.3830   -1.4810    1.7500 h1        1 14H      0.073200
     33 HO1         2.2160   -2.9360    2.4990 ho        1 14H      0.449000
     34 H3          1.9740    0.5130    4.4130 hc        1 14H      0.093200
     35 H3A         3.4190   -0.1780    3.5610 hc        1 14H      0.093200
     36 H4          4.1980    1.9160    2.8310 h1        1 14H      0.043700
     37 H6          5.6030    2.1690    4.6950 ha        1 14H      0.135500
     38 H7          6.0060    3.0870    6.9720 ha        1 14H      0.150500
     39 H8          4.1030    3.9800    8.3200 ha        1 14H      0.152000
     40 H9          1.7880    3.9480    7.3840 ha        1 14H      0.150500
     41 H10         1.3760    3.0180    5.1060 ha        1 14H      0.135500
     42 HO4         2.3520    3.6870    2.9720 ho        1 14H      0.452000
     43 H22         2.9070    0.8080   -1.6400 hc        1 14H      0.099200
     44 H22A        2.4200   -0.9430   -1.5230 hc        1 14H      0.099200
     45 H23         0.6700    1.3660   -2.6520 hc        1 14H      0.070200
     46 H23A        0.1680   -0.3650   -2.5200 hc        1 14H      0.070200
     47 H24         2.6150    0.6900   -4.1160 hc        1 14H      0.047700
     48 H24A        2.1070   -1.0400   -3.9880 hc        1 14H      0.047700
     49 H25         0.3830    1.2700   -5.1280 hc        1 14H      0.048200
     50 H25A       -0.1250   -0.4580   -5.0000 hc        1 14H      0.048200
     51 H26         1.8100   -1.1360   -6.4640 hc        1 14H      0.042700
     52 H26A        2.3180    0.5930   -6.5920 hc        1 14H      0.042700
     53 H27         0.0860    1.1740   -7.6050 hc        1 14H      0.042700
     54 H27A       -0.4210   -0.5540   -7.4770 hc        1 14H      0.042700
     55 H28         1.5130   -1.2310   -8.9420 hc        1 14H      0.040700
     56 H28A        2.0210    0.4970   -9.0700 hc        1 14H      0.040700
     57 H29        -0.7180   -0.6510   -9.9560 hc        1 14H      0.040700
     58 H29A       -0.2110    1.0770  -10.0840 hc        1 14H      0.040700
     59 H30         1.2160   -1.3270  -11.4210 hc        1 14H      0.040700
     60 H30A        1.7230    0.4000  -11.5490 hc        1 14H      0.040700
     61 H31        -0.5080    0.9810  -12.5630 hc        1 14H      0.040700
     62 H31A       -1.0160   -0.7470  -12.4350 hc        1 14H      0.040700
     63 H32         0.9180   -1.4240  -13.9000 hc        1 14H      0.039700
     64 H32A        1.4260    0.3040  -14.0280 hc        1 14H      0.039700
     65 H33        -0.8050    0.8840  -15.0400 hc        1 14H      0.038700
     66 H33A       -1.3120   -0.8440  -14.9120 hc        1 14H      0.038700
     67 H34         0.5980   -1.5180  -16.4080 hc        1 14H      0.034367
     68 H34A       -0.4920   -0.3120  -17.2070 hc        1 14H      0.034367
     69 H34B        1.1070    0.2140  -16.5360 hc        1 14H      0.034367
     70 H221        3.0770   -0.1870    0.8580 hn        1 14H      0.472300
@<TRIPOS>BOND
     1    1    2 2   
     2    2    3 1   
     3    2   16 1   
     4    3    4 1   
     5    3   29 1   
     6    3   70 1   
     7    4    5 1   
     8    4    7 1   
     9    4   30 1   
    10    5    6 1   
    11    5   31 1   
    12    5   32 1   
    13    6   33 1   
    14    7    8 1   
    15    7   34 1   
    16    7   35 1   
    17    8    9 1   
    18    8   15 1   
    19    8   36 1   
    20    9   10 ar  
    21    9   14 ar  
    22   10   11 ar  
    23   10   37 1   
    24   11   12 ar  
    25   11   38 1   
    26   12   13 ar  
    27   12   39 1   
    28   13   14 ar  
    29   13   40 1   
    30   14   41 1   
    31   15   42 1   
    32   16   17 1   
    33   16   43 1   
    34   16   44 1   
    35   17   18 1   
    36   17   45 1   
    37   17   46 1   
    38   18   19 1   
    39   18   47 1   
    40   18   48 1   
    41   19   20 1   
    42   19   49 1   
    43   19   50 1   
    44   20   21 1   
    45   20   51 1   
    46   20   52 1   
    47   21   22 1   
    48   21   53 1   
    49   21   54 1   
    50   22   23 1   
    51   22   55 1   
    52   22   56 1   
    53   23   24 1   
    54   23   57 1   
    55   23   58 1   
    56   24   25 1   
    57   24   59 1   
    58   24   60 1   
    59   25   26 1   
    60   25   61 1   
    61   25   62 1   
    62   26   27 1   
    63   26   63 1   
    64   26   64 1   
    65   27   28 1   
    66   27   65 1   
    67   27   66 1   
    68   28   67 1   
    69   28   68 1   
    70   28   69 1   
@<TRIPOS>SUBSTRUCTURE
     1 14H         1 TEMP              0 ****  ****    0 ROOT
