@<TRIPOS>MOLECULE
14H
   70    70     1     0     0
SMALL
bcc


@<TRIPOS>ATOM
      1 O21         0.1660    0.4330    0.0430 o         1 14H     -0.412100
      2 C21         1.3610    0.3440   -0.1910 c         1 14H      0.551100
      3 N2          2.3060    0.4780    0.9850 ny        1 14H     -0.676800
      4 C2          1.6710    0.2110    2.3230 c3        1 14H      0.137500
      5 C1          1.2570   -1.2690    2.4580 c3        1 14H      0.107400
      6 O1          2.3800   -2.0610    2.1130 oh        1 14H     -0.635800
      7 C3          2.5960    0.5880    3.4810 c3        1 14H     -0.117400
      8 C4          3.2020    1.9940    3.3930 c3        1 14H      0.191400
      9 C5          3.4400    2.5550    4.7600 ca        1 14H     -0.163300
     10 C6          4.7350    2.5940    5.2850 ca        1 14H     -0.114000
     11 C7          4.9550    3.1150    6.5590 ca        1 14H     -0.118500
     12 C8          3.8860    3.6030    7.3110 ca        1 14H     -0.099000
     13 C9          2.5920    3.5680    6.7880 ca        1 14H     -0.118500
     14 C10         2.3680    3.0440    5.5170 ca        1 14H     -0.114000
     15 O4          2.3280    2.7970    2.6030 oh        1 14H     -0.659800
     16 C22         2.0370    0.1110   -1.5120 c3        1 14H     -0.155400
     17 C23         1.0570    0.2990   -2.6550 c3        1 14H     -0.082400
     18 C24         1.7350    0.0130   -3.9790 c3        1 14H     -0.080400
     19 C25         0.7670    0.2030   -5.1290 c3        1 14H     -0.079400
     20 C26         1.4380   -0.0820   -6.4560 c3        1 14H     -0.079400
     21 C27         0.4730    0.1070   -7.6060 c3        1 14H     -0.079400
     22 C28         1.1420   -0.1770   -8.9340 c3        1 14H     -0.079400
     23 C29         0.1770    0.0120  -10.0850 c3        1 14H     -0.079400
     24 C30         0.8450   -0.2730  -11.4130 c3        1 14H     -0.079400
     25 C31        -0.1190   -0.0850  -12.5640 c3        1 14H     -0.079400
     26 C32         0.5490   -0.3700  -13.8920 c3        1 14H     -0.079400
     27 C33        -0.4150   -0.1810  -15.0450 c3        1 14H     -0.079400
     28 C34         0.2460   -0.4650  -16.3690 c3        1 14H     -0.093100
     29 HN2         3.0860   -0.1790    0.8620 hn        1 14H      0.472300
     30 H2          0.7390    0.8550    2.3680 hx        1 14H      0.133700
     31 H1          0.4080   -1.5010    1.7580 h1        1 14H      0.073200
     32 H1A         0.9310   -1.4510    3.5160 h1        1 14H      0.073200
     33 HO1         2.2570   -2.9340    2.5100 ho        1 14H      0.449000
     34 H3          1.9760    0.5160    4.4160 hc        1 14H      0.093200
     35 H3A         3.4290   -0.1600    3.5650 hc        1 14H      0.093200
     36 H4          4.1830    1.9420    2.8310 h1        1 14H      0.043700
     37 H6          5.5850    2.2160    4.6950 ha        1 14H      0.135500
     38 H7          5.9770    3.1440    6.9700 ha        1 14H      0.150500
     39 H8          4.0630    4.0170    8.3160 ha        1 14H      0.152000
     40 H9          1.7480    3.9540    7.3800 ha        1 14H      0.150500
     41 H10         1.3480    3.0150    5.1040 ha        1 14H      0.135500
     42 HO4         2.3170    3.6920    2.9690 ho        1 14H      0.452000
     43 H22         2.9050    0.8150   -1.6360 hc        1 14H      0.099200
     44 H22A        2.4380   -0.9410   -1.5210 hc        1 14H      0.099200
     45 H23         0.1790   -0.3870   -2.5180 hc        1 14H      0.069700
     46 H23A        0.6620    1.3500   -2.6470 hc        1 14H      0.069700
     47 H24         2.1250   -1.0390   -3.9860 hc        1 14H      0.047700
     48 H24A        2.6140    0.6970   -4.1120 hc        1 14H      0.047700
     49 H25        -0.1130   -0.4800   -4.9970 hc        1 14H      0.048200
     50 H25A        0.3760    1.2550   -5.1230 hc        1 14H      0.048200
     51 H26         2.3190    0.6010   -6.5880 hc        1 14H      0.042700
     52 H26A        1.8300   -1.1330   -6.4630 hc        1 14H      0.042700
     53 H27        -0.4080   -0.5750   -7.4750 hc        1 14H      0.042700
     54 H27A        0.0810    1.1590   -7.6000 hc        1 14H      0.042700
     55 H28         1.5340   -1.2280   -8.9410 hc        1 14H      0.040700
     56 H28A        2.0220    0.5050   -9.0660 hc        1 14H      0.040700
     57 H29        -0.2150    1.0630  -10.0790 hc        1 14H      0.040700
     58 H29A       -0.7040   -0.6700   -9.9540 hc        1 14H      0.040700
     59 H30         1.7260    0.4090  -11.5450 hc        1 14H      0.040700
     60 H30A        1.2370   -1.3240  -11.4190 hc        1 14H      0.040700
     61 H31        -0.5110    0.9670  -12.5590 hc        1 14H      0.040700
     62 H31A       -1.0000   -0.7660  -12.4320 hc        1 14H      0.040700
     63 H32         1.4300    0.3120  -14.0250 hc        1 14H      0.039700
     64 H32A        0.9410   -1.4210  -13.8990 hc        1 14H      0.039700
     65 H33        -0.8070    0.8700  -15.0360 hc        1 14H      0.038700
     66 H33A       -1.2960   -0.8630  -14.9100 hc        1 14H      0.038700
     67 H34         0.6210   -1.5160  -16.4060 hc        1 14H      0.034367
     68 H34A       -0.4820   -0.3200  -17.2040 hc        1 14H      0.034367
     69 H34B        1.1120    0.2220  -16.5330 hc        1 14H      0.034367
     70 H221        2.6710    1.4430    0.9910 hn        1 14H      0.472300
@<TRIPOS>BOND
     1    1    2 2   
     2    2    3 1   
     3    2   16 1   
     4    3    4 1   
     5    3   29 1   
     6    3   70 1   
     7    4    5 1   
     8    4    7 1   
     9    4   30 1   
    10    5    6 1   
    11    5   31 1   
    12    5   32 1   
    13    6   33 1   
    14    7    8 1   
    15    7   34 1   
    16    7   35 1   
    17    8    9 1   
    18    8   15 1   
    19    8   36 1   
    20    9   10 ar  
    21    9   14 ar  
    22   10   11 ar  
    23   10   37 1   
    24   11   12 ar  
    25   11   38 1   
    26   12   13 ar  
    27   12   39 1   
    28   13   14 ar  
    29   13   40 1   
    30   14   41 1   
    31   15   42 1   
    32   16   17 1   
    33   16   43 1   
    34   16   44 1   
    35   17   18 1   
    36   17   45 1   
    37   17   46 1   
    38   18   19 1   
    39   18   47 1   
    40   18   48 1   
    41   19   20 1   
    42   19   49 1   
    43   19   50 1   
    44   20   21 1   
    45   20   51 1   
    46   20   52 1   
    47   21   22 1   
    48   21   53 1   
    49   21   54 1   
    50   22   23 1   
    51   22   55 1   
    52   22   56 1   
    53   23   24 1   
    54   23   57 1   
    55   23   58 1   
    56   24   25 1   
    57   24   59 1   
    58   24   60 1   
    59   25   26 1   
    60   25   61 1   
    61   25   62 1   
    62   26   27 1   
    63   26   63 1   
    64   26   64 1   
    65   27   28 1   
    66   27   65 1   
    67   27   66 1   
    68   28   67 1   
    69   28   68 1   
    70   28   69 1   
@<TRIPOS>SUBSTRUCTURE
     1 14H         1 TEMP              0 ****  ****    0 ROOT
