@<TRIPOS>MOLECULE
14H
   69    66     1     0     0
SMALL
bcc


@<TRIPOS>ATOM
      1 O21        -1.4040    1.0320    3.3980 o         1 14H     -0.372000
      2 C21        -0.2350    0.9910    3.3170 c1        1 14H      0.303000
      3 N2          0.5520    0.6130    4.4600 n2        1 14H     -0.382000
      4 C2         -0.0990    0.0760    5.6500 c3        1 14H     -0.018000
      5 C1         -0.3780   -1.3960    5.4430 c3        1 14H     -0.030000
      6 O1         -1.5170   -1.7990    6.2400 oh        1 14H     -0.321000
      7 C3          0.8040    0.2670    6.8450 c3        1 14H     -0.175000
      8 C4          0.0120    0.9210    7.9740 c3        1 14H      0.064000
      9 C5          0.8120    0.8860    9.2290 c2        1 14H     -0.119000
     10 C6          1.5100    2.0460    9.6540 c1        1 14H     -0.122000
     11 C7          2.2580    2.0180   10.8180 c1        1 14H     -0.130000
     12 C8          2.3270    0.8640   11.5650 c1        1 14H     -0.130000
     13 C9          1.6370   -0.2840   11.1450 c1        1 14H     -0.131000
     14 C10         0.8780   -0.2550    9.9650 c2        1 14H     -0.113000
     15 O4         -1.2130    0.2120    8.1650 oh        1 14H     -0.330000
     16 C22         0.4610    1.3710    1.9890 c3        1 14H     -0.184000
     17 C23        -0.5280    1.1640    0.7980 c3        1 14H     -0.155000
     18 C24         0.2690    1.1430   -0.5490 c3        1 14H     -0.159000
     19 C25        -0.6520    0.6460   -1.6730 c3        1 14H     -0.158000
     20 C26         0.1670    0.4600   -2.9770 c3        1 14H     -0.158000
     21 C27        -0.7780    0.0300   -4.1170 c3        1 14H     -0.158000
     22 C28         0.0100    0.0220   -5.4770 c3        1 14H     -0.158000
     23 C29        -0.9440   -0.4540   -6.6470 c3        1 14H     -0.158000
     24 C30        -0.1360   -0.6210   -7.9080 c3        1 14H     -0.158000
     25 C31        -1.0570   -1.1270   -9.0500 c3        1 14H     -0.158000
     26 C32        -0.2110   -1.3400  -10.3440 c3        1 14H     -0.158000
     27 C33        -1.1320   -1.6570  -11.5070 c3        1 14H     -0.159000
     28 C34        -0.2980   -1.9560  -12.7420 c3        1 14H     -0.210000
     29 HN2         1.4440    0.6480    4.4190 hn        1 14H      0.221000
     30 H2         -0.9240    0.5370    5.7990 h1        1 14H      0.138000
     31 H1          0.3950   -1.9110    5.7020 h1        1 14H      0.086000
     32 H1A        -0.5760   -1.5560    4.4920 h1        1 14H      0.086000
     33 HO1        -1.7630   -2.6590    6.0090 ho        1 14H      0.209000
     34 H3          1.1460   -0.6070    7.1420 hc        1 14H      0.109000
     35 H3A         1.5910    0.8710    6.5830 hc        1 14H      0.109000
     36 H4         -0.1880    1.8740    7.7320 h1        1 14H      0.100000
     37 H6          1.4640    2.8260    9.1500 ha        1 14H      0.130000
     38 H7          2.7660    2.8660   11.1250 ha        1 14H      0.131000
     39 H8          2.8640    0.8440   12.4000 ha        1 14H      0.131000
     40 H9          1.6830   -1.0630   11.6490 ha        1 14H      0.133000
     41 H10         0.4040   -1.0390    9.6780 ha        1 14H      0.147000
     42 HO4        -1.8610    0.7920    8.4480 ho        1 14H      0.206000
     43 H22         0.7360    2.2970    2.0220 hc        1 14H      0.110000
     44 H22A        1.2640    0.7910    1.8570 hc        1 14H      0.110000
     45 H23        -1.0060    0.3060    0.9100 hc        1 14H      0.086500
     46 H23A       -1.1940    1.9190    0.7800 hc        1 14H      0.086500
     47 H24         0.5900    2.0750   -0.7660 hc        1 14H      0.082000
     48 H24A        1.0310    0.5460   -0.4650 hc        1 14H      0.082000
     49 H25        -1.3770    1.3140   -1.8280 hc        1 14H      0.081000
     50 H25A       -1.0450   -0.2060   -1.4150 hc        1 14H      0.081000
     51 H26         0.5970    1.2930   -3.2110 hc        1 14H      0.080000
     52 H26A        0.8340   -0.2160   -2.8430 hc        1 14H      0.080000
     53 H27        -1.5390    0.6710   -4.1770 hc        1 14H      0.079500
     54 H27A       -1.1330   -0.8930   -3.9270 hc        1 14H      0.079500
     55 H28         0.3580    0.9840   -5.6820 hc        1 14H      0.079000
     56 H28A        0.7700   -0.5930   -5.4080 hc        1 14H      0.079000
     57 H29        -1.3620   -1.3220   -6.4010 hc        1 14H      0.079000
     58 H29A       -1.6330    0.2050   -6.7930 hc        1 14H      0.079000
     59 H30         0.5530   -1.2450   -7.7600 hc        1 14H      0.079000
     60 H30A        0.2430    0.2140   -8.1540 hc        1 14H      0.079000
     61 H31        -1.7470   -0.4740   -9.2210 hc        1 14H      0.079000
     62 H31A       -1.4800   -1.9980   -8.7790 hc        1 14H      0.079000
     63 H32         0.3090   -0.5010  -10.5490 hc        1 14H      0.079000
     64 H32A        0.4010   -2.0730  -10.2110 hc        1 14H      0.079000
     65 H33        -1.6790   -2.4310  -11.2850 hc        1 14H      0.078000
     66 H33A       -1.6900   -0.9170  -11.6770 hc        1 14H      0.078000
     67 H34        -0.8730   -2.0340  -13.5060 hc        1 14H      0.072000
     68 H34A        0.3410   -1.2300  -12.8860 hc        1 14H      0.072000
     69 H34B        0.1730   -2.7710  -12.6170 hc        1 14H      0.072000
@<TRIPOS>BOND
     1    1    2 1   
     2    2   16 1   
     3    3    4 1   
     4    3   29 1   
     5    4    5 1   
     6    4    7 1   
     7    4   30 1   
     8    5    6 1   
     9    5   31 1   
    10    5   32 1   
    11    6   33 1   
    12    7    8 1   
    13    7   34 1   
    14    7   35 1   
    15    8    9 1   
    16    8   15 1   
    17    8   36 1   
    18    9   10 1   
    19    9   14 1   
    20   10   37 1   
    21   11   12 1   
    22   11   38 1   
    23   12   39 1   
    24   13   14 1   
    25   13   40 1   
    26   14   41 1   
    27   15   42 1   
    28   16   17 1   
    29   16   43 1   
    30   16   44 1   
    31   17   18 1   
    32   17   45 1   
    33   17   46 1   
    34   18   19 1   
    35   18   47 1   
    36   18   48 1   
    37   19   20 1   
    38   19   49 1   
    39   19   50 1   
    40   20   21 1   
    41   20   51 1   
    42   20   52 1   
    43   21   22 1   
    44   21   53 1   
    45   21   54 1   
    46   22   23 1   
    47   22   55 1   
    48   22   56 1   
    49   23   24 1   
    50   23   57 1   
    51   23   58 1   
    52   24   25 1   
    53   24   59 1   
    54   24   60 1   
    55   25   26 1   
    56   25   61 1   
    57   25   62 1   
    58   26   27 1   
    59   26   63 1   
    60   26   64 1   
    61   27   28 1   
    62   27   65 1   
    63   27   66 1   
    64   28   67 1   
    65   28   68 1   
    66   28   69 1   
@<TRIPOS>SUBSTRUCTURE
     1 14H         1 TEMP              0 ****  ****    0 ROOT
