@<TRIPOS>MOLECULE
14I
   28    31     1     0     0
SMALL
bcc


@<TRIPOS>ATOM
      1 CAA         0.0160   -0.0020    0.0570 ca        1 14I     -0.147000
      2 CAB         1.3890   -0.0040   -0.0040 ca        1 14I     -0.117000
      3 CAC         2.0740   -0.0050    1.2190 ca        1 14I      0.008100
      4 CAD         1.4320   -0.0030    2.4880 ca        1 14I     -0.080800
      5 CAE         0.0170   -0.0010    2.5420 ca        1 14I      0.054000
      6 CAF        -0.6890    0.0000    1.2980 ca        1 14I     -0.071000
      7 CAG        -0.7560    0.0010    3.7290 ca        1 14I     -0.080800
      8 CAH        -2.1740    0.0030    3.6290 ca        1 14I      0.008100
      9 CAI        -2.8720    0.0040    2.4120 ca        1 14I     -0.117000
     10 CAJ        -2.1150    0.0030    1.2650 ca        1 14I     -0.147000
     11 CAK         2.5070   -0.0050    3.4570 cc        1 14I     -0.194200
     12 CAL         3.6990   -0.0070    2.7510 cd        1 14I     -0.000100
     13 OAM         3.4550   -0.0070    1.3670 os        1 14I     -0.172200
     14 CAN        -0.4760    0.0010    5.1490 cc        1 14I     -0.194200
     15 CAO        -1.6940    0.0030    5.8100 cd        1 14I     -0.000100
     16 OAP        -2.7560    0.0050    4.8900 os        1 14I     -0.172200
     17 CAQ        -2.0850    0.0040    7.2750 c         1 14I      0.933800
     18 CAR         5.1570   -0.0100    3.1680 c         1 14I      0.933800
     19 OAS         6.0380   -0.0130    2.2670 o         1 14I     -0.811300
     20 OAT        -1.1420    0.0040    8.1120 o         1 14I     -0.811300
     21 OAU        -3.3100    0.0050    7.5680 o         1 14I     -0.811300
     22 OAV         5.3920   -0.0090    4.4060 o         1 14I     -0.811300
     23 HAA        -0.5740   -0.0010   -0.8710 ha        1 14I      0.103000
     24 HAB         1.9390   -0.0050   -0.9520 ha        1 14I      0.125000
     25 HAI        -3.9680    0.0060    2.3980 ha        1 14I      0.125000
     26 HAJ        -2.6090    0.0030    0.2830 ha        1 14I      0.103000
     27 HAK         2.4010   -0.0040    4.5380 ha        1 14I      0.174000
     28 HAN         0.5070   -0.0010    5.6120 ha        1 14I      0.174000
@<TRIPOS>BOND
     1    1    2 ar  
     2    1    6 ar  
     3    1   23 1   
     4    2    3 ar  
     5    2   24 1   
     6    3    4 ar  
     7    3   13 1   
     8    4    5 ar  
     9    4   11 1   
    10    5    6 ar  
    11    5    7 ar  
    12    6   10 ar  
    13    7    8 ar  
    14    7   14 1   
    15    8    9 ar  
    16    8   16 1   
    17    9   10 ar  
    18    9   25 1   
    19   10   26 1   
    20   11   12 2   
    21   11   27 1   
    22   12   13 1   
    23   12   18 1   
    24   14   15 2   
    25   14   28 1   
    26   15   16 1   
    27   15   17 1   
    28   17   20 1   
    29   17   21 1   
    30   18   19 1   
    31   18   22 1   
@<TRIPOS>SUBSTRUCTURE
     1 14I         1 TEMP              0 ****  ****    0 ROOT
