@<TRIPOS>MOLECULE
14I
   28    19     1     0     0
SMALL
bcc


@<TRIPOS>ATOM
      1 CAA        -0.3600   -0.1080   -3.1020 c1        1 14I     -0.152000
      2 CAB         1.0290   -0.1610   -3.0810 c1        1 14I     -0.114000
      3 CAC         1.7150   -0.2000   -1.8490 c1        1 14I     -0.041000
      4 CAD         1.0100   -0.1850   -0.6680 c1        1 14I     -0.045500
      5 CAE        -0.4140   -0.1300   -0.6890 c1        1 14I     -0.009000
      6 CAF        -1.0840   -0.0920   -1.8920 c1        1 14I     -0.066000
      7 CAG        -1.1450   -0.1120    0.5340 c1        1 14I     -0.009000
      8 CAH        -2.5200   -0.0570    0.5120 c1        1 14I     -0.045500
      9 CAI        -3.2050   -0.0190   -0.7200 c1        1 14I     -0.116000
     10 CAJ        -2.4920   -0.0360   -1.9130 c2        1 14I     -0.148000
     11 CAK         1.9220   -0.2340    0.3740 c1        1 14I     -0.221500
     12 CAL         3.1920   -0.2790   -0.1720 c1        1 14I     -0.009500
     13 OAM         3.0680   -0.2590   -1.5410 o         1 14I     -0.091500
     14 CAN        -0.7400   -0.1400    1.8580 c1        1 14I     -0.221500
     15 CAO        -1.8730   -0.1030    2.6520 c1        1 14I     -0.009500
     16 OAP        -2.9690   -0.0520    1.8260 o         1 14I     -0.091500
     17 CAQ        -1.6690    0.6790    3.9300 c1        1 14I      0.387500
     18 CAR         4.4080    0.0160    0.6810 c1        1 14I      0.387500
     19 OAS         4.8800   -0.8760    1.4340 o         1 14I     -0.544250
     20 OAT        -1.8700    1.9220    3.9470 o         1 14I     -0.544250
     21 OAU        -1.2800    0.0910    4.9720 o         1 14I     -0.544250
     22 OAV         4.9340    1.1600    0.6520 o         1 14I     -0.544250
     23 HAA        -0.8350   -0.0910   -3.9550 ha        1 14I      0.103000
     24 HAB         1.5290   -0.1610   -3.9190 ha        1 14I      0.123000
     25 HAI        -4.1710    0.0850   -0.6260 ha        1 14I      0.124000
     26 HAJ        -2.9490   -0.2610   -2.7450 ha        1 14I      0.103000
     27 HAK         1.7060   -0.2350    1.3250 DU        1 14I      0.169000
     28 HAN         0.1820   -0.1620    2.1750 DU        1 14I      0.169000
@<TRIPOS>BOND
     1    1    6 1   
     2    1   23 1   
     3    2    3 1   
     4    2   24 1   
     5    4    5 1   
     6    5    7 1   
     7    6   10 1   
     8    7    8 1   
     9    9   10 1   
    10    9   25 1   
    11   10   26 1   
    12   11   12 1   
    13   12   13 1   
    14   14   15 1   
    15   15   16 1   
    16   17   20 1   
    17   17   21 1   
    18   18   19 1   
    19   18   22 1   
@<TRIPOS>SUBSTRUCTURE
     1 14I         1 TEMP              0 ****  ****    0 ROOT
