@<TRIPOS>MOLECULE
14I
   28    31     1     0     0
SMALL
bcc


@<TRIPOS>ATOM
      1 CAA         1.2250   -3.2870   -0.0000 ca        1 14I     -0.147000
      2 CAB         2.4490   -2.6630   -0.0000 ca        1 14I     -0.117000
      3 CAC         2.4420   -1.2600   -0.0000 ca        1 14I      0.008100
      4 CAD         1.2580   -0.4730   -0.0000 ca        1 14I     -0.080800
      5 CAE        -0.0000   -1.1250   -0.0000 ca        1 14I      0.054000
      6 CAF        -0.0000   -2.5560   -0.0000 ca        1 14I     -0.071000
      7 CAG        -1.2580   -0.4730   -0.0000 ca        1 14I     -0.080800
      8 CAH        -2.4420   -1.2600   -0.0000 ca        1 14I      0.008100
      9 CAI        -2.4490   -2.6630    0.0000 ca        1 14I     -0.117000
     10 CAJ        -1.2250   -3.2870    0.0000 ca        1 14I     -0.147000
     11 CAK         1.7150    0.8990   -0.0000 cc        1 14I     -0.194200
     12 CAL         3.1000    0.8740   -0.0000 cd        1 14I     -0.000100
     13 OAM         3.5710   -0.4510   -0.0000 os        1 14I     -0.172200
     14 CAN        -1.7150    0.8990   -0.0000 cc        1 14I     -0.194200
     15 CAO        -3.1000    0.8740   -0.0000 cd        1 14I     -0.000100
     16 OAP        -3.5710   -0.4510   -0.0000 os        1 14I     -0.172200
     17 CAQ        -4.1630    1.9560   -0.0000 c         1 14I      0.933800
     18 CAR         4.1630    1.9560   -0.0000 c         1 14I      0.933800
     19 OAS         5.3730    1.6060    0.0000 o         1 14I     -0.811300
     20 OAT        -3.7560    3.1480   -0.0010 o         1 14I     -0.811300
     21 OAU        -5.3730    1.6060    0.0000 o         1 14I     -0.811300
     22 OAV         3.7560    3.1480   -0.0010 o         1 14I     -0.811300
     23 HAA         1.1700   -4.3850    0.0000 ha        1 14I      0.103000
     24 HAB         3.3960   -3.2160   -0.0000 ha        1 14I      0.125000
     25 HAI        -3.3960   -3.2160    0.0000 ha        1 14I      0.125000
     26 HAJ        -1.1700   -4.3850    0.0000 ha        1 14I      0.103000
     27 HAK         1.0890    1.7880   -0.0000 ha        1 14I      0.174000
     28 HAN        -1.0890    1.7880   -0.0000 ha        1 14I      0.174000
@<TRIPOS>BOND
     1    1    2 ar  
     2    1    6 ar  
     3    1   23 1   
     4    2    3 ar  
     5    2   24 1   
     6    3    4 ar  
     7    3   13 1   
     8    4    5 ar  
     9    4   11 1   
    10    5    6 ar  
    11    5    7 ar  
    12    6   10 ar  
    13    7    8 ar  
    14    7   14 1   
    15    8    9 ar  
    16    8   16 1   
    17    9   10 ar  
    18    9   25 1   
    19   10   26 1   
    20   11   12 2   
    21   11   27 1   
    22   12   13 1   
    23   12   18 1   
    24   14   15 2   
    25   14   28 1   
    26   15   16 1   
    27   15   17 1   
    28   17   20 1   
    29   17   21 1   
    30   18   19 1   
    31   18   22 1   
@<TRIPOS>SUBSTRUCTURE
     1 14I         1 TEMP              0 ****  ****    0 ROOT
