@<TRIPOS>MOLECULE
14J
   11     7     1     0     0
SMALL
bcc


@<TRIPOS>ATOM
      1 C01        -0.8890   -0.0020   -0.4420 cg        1 14J     -0.202500
      2 C02         0.4910   -0.0020   -0.4420 c1        1 14J     -0.090400
      3 O03         0.9140   -0.0020    0.8620 os        1 14J     -0.105200
      4 C04        -0.1940   -0.0020    1.6680 c1        1 14J     -0.090400
      5 C05        -1.3110   -0.0020    0.8580 cg        1 14J     -0.202500
      6 BR1        -0.1920    0.0080    3.5800 br        1 14J      0.073000
      7 C07         1.3800   -0.0050   -1.6660 c1        1 14J      0.854000
      8 O08         1.7080   -1.0960   -2.2020 o         1 14J     -0.766500
      9 O09         1.7960    1.0820   -2.1450 o         1 14J     -0.766500
     10 H1         -1.4630    0.0210   -1.2310 DU        1 14J      0.149000
     11 H2         -2.2390   -0.0020    1.1600 DU        1 14J      0.149000
@<TRIPOS>BOND
     1    1    2 3   
     2    1    5 1   
     3    2    3 1   
     4    3    4 1   
     5    4    5 3   
     6    7    8 2   
     7    7    9 2   
@<TRIPOS>SUBSTRUCTURE
     1 14J         1 TEMP              0 ****  ****    0 ROOT
