@<TRIPOS>MOLECULE
14J
   11    11     1     0     0
SMALL
bcc


@<TRIPOS>ATOM
      1 C01        -0.0680    0.0430   -0.0180 cc        1 14J     -0.312300
      2 C02         1.3230    0.0150   -0.0360 cd        1 14J      0.266200
      3 O03         1.8100   -0.0140    1.2640 os        1 14J     -0.306800
      4 C04         0.6930   -0.0040    2.1150 cd        1 14J      0.205900
      5 C05        -0.4710    0.0310    1.3610 cc        1 14J     -0.223300
      6 BR1         0.9490   -0.0360    3.9400 br        1 14J     -0.158200
      7 C07         2.3220    0.0110   -1.1840 c         1 14J      0.828100
      8 O08         1.8190    0.0380   -2.3390 o         1 14J     -0.798300
      9 O09         3.5480   -0.0180   -0.9120 o         1 14J     -0.798300
     10 H1         -0.7170    0.0690   -0.8860 ha        1 14J      0.160000
     11 H2         -1.4910    0.0470    1.7330 ha        1 14J      0.138000
@<TRIPOS>BOND
     1    1    2 2   
     2    1    5 1   
     3    1   10 1   
     4    2    3 1   
     5    2    7 1   
     6    3    4 1   
     7    4    5 2   
     8    4    6 1   
     9    5   11 1   
    10    7    8 1   
    11    7    9 1   
@<TRIPOS>SUBSTRUCTURE
     1 14J         1 TEMP              0 ****  ****    0 ROOT
