@<TRIPOS>MOLECULE
14J
   11    11     1     0     0
SMALL
bcc


@<TRIPOS>ATOM
      1 C01         1.2630   -1.6370   -0.0010 cc        1 14J     -0.312300
      2 C02         1.6490   -0.3000   -0.0000 cd        1 14J      0.266200
      3 O03         0.5230    0.5140   -0.0000 os        1 14J     -0.306800
      4 C04        -0.5920   -0.3390   -0.0000 cd        1 14J      0.205900
      5 C05        -0.1730   -1.6610   -0.0010 cc        1 14J     -0.223300
      6 BR1        -2.2850    0.3920   -0.0000 br        1 14J     -0.158200
      7 C07         3.0200    0.3600   -0.0000 c         1 14J      0.828100
      8 O08         4.0010   -0.4310   -0.0000 o         1 14J     -0.798300
      9 O09         3.0820    1.6140    0.0000 o         1 14J     -0.798300
     10 H1          1.9290   -2.4930   -0.0010 ha        1 14J      0.160000
     11 H2         -0.8010   -2.5460   -0.0010 ha        1 14J      0.138000
@<TRIPOS>BOND
     1    1    2 2   
     2    1    5 1   
     3    1   10 1   
     4    2    3 1   
     5    2    7 1   
     6    3    4 1   
     7    4    5 2   
     8    4    6 1   
     9    5   11 1   
    10    7    8 1   
    11    7    9 1   
@<TRIPOS>SUBSTRUCTURE
     1 14J         1 TEMP              0 ****  ****    0 ROOT
