@<TRIPOS>MOLECULE
14K
   66    69     1     0     0
SMALL
bcc


@<TRIPOS>ATOM
      1 C15         0.0350    0.1770   -0.5060 c3        1 14K      0.115700
      2 O14         0.9580   -0.8010    0.0090 os        1 14K     -0.393100
      3 C11         1.6380   -0.5210    1.1450 ca        1 14K      0.684600
      4 C12         2.5390   -1.5710    1.5870 ca        1 14K      0.031600
      5 C13         3.2760   -1.3630    2.7490 ca        1 14K     -0.099000
      6 F16         2.6460   -2.7110    0.8830 f         1 14K     -0.075900
      7 N10         1.4930    0.6470    1.8240 nb        1 14K     -0.696000
      8 C9          2.2100    0.8270    2.9400 ca        1 14K      0.512200
      9 C8          3.1250   -0.1340    3.4320 ca        1 14K     -0.226700
     10 N7          3.9010    0.1230    4.6430 n4        1 14K     -0.584100
     11 C2          3.1810   -0.1040    5.9260 ca        1 14K      0.506200
     12 N1          1.8270   -0.0880    5.8570 nb        1 14K     -0.628000
     13 C6          1.1250   -0.2880    6.9830 ca        1 14K      0.461200
     14 C5          1.7280   -0.5210    8.2390 ca        1 14K     -0.131600
     15 C25         0.8660   -0.7860    9.4560 c3        1 14K      0.215800
     16 C36         0.8850   -2.2970    9.7090 c3        1 14K     -0.103100
     17 N26         1.3160    0.0310   10.5930 n3        1 14K     -0.737600
     18 C31         0.8710   -0.5030   11.8770 c3        1 14K      0.140300
     19 C30         1.1780    0.4270   13.0740 c3        1 14K      0.225300
     20 C27         0.9430    1.4310   10.4000 c3        1 14K      0.140300
     21 C28         1.2720    2.3290   11.6140 c3        1 14K      0.225300
     22 N29         0.7870    1.7910   12.8530 n3        1 14K     -0.814500
     23 S32        -0.3400    2.5590   13.7790 s6        1 14K      1.458900
     24 C33         0.5900    3.3140   14.9730 c3        1 14K     -0.369300
     25 O35        -0.9600    3.5490   12.9930 o         1 14K     -0.641300
     26 O34        -1.1590    1.5910   14.3880 o         1 14K     -0.641300
     27 C4          3.1240   -0.5240    8.3040 ca        1 14K     -0.015000
     28 C3          3.8930   -0.3100    7.1430 cp        1 14K     -0.273800
     29 C17         5.3700   -0.2640    7.2750 cp        1 14K      0.787500
     30 N22         5.9370   -1.0140    8.2880 nb        1 14K     -0.708000
     31 N18         6.0920    0.5390    6.4300 nb        1 14K     -0.764000
     32 C19         7.4410    0.6280    6.6450 ca        1 14K      0.773300
     33 C23         8.2700    1.5300    5.7720 c3        1 14K     -0.166400
     34 N20         8.1010   -0.0640    7.6450 nb        1 14K     -0.697000
     35 C21         7.2950   -0.8590    8.4080 ca        1 14K      0.769900
     36 N24         7.9630   -1.6380    9.4950 n4        1 14K     -0.825300
     37 H1         -0.3570   -0.3350   -1.4240 h1        1 14K      0.079367
     38 H2         -0.7780    0.3650    0.2340 h1        1 14K      0.079367
     39 H3          0.5760    1.1180   -0.7640 h1        1 14K      0.079367
     40 H4          3.9550   -2.1550    3.1020 ha        1 14K      0.167000
     41 H5          2.0320    1.7930    3.4540 h4        1 14K      0.053100
     42 H6          4.7240   -0.4900    4.6230 hn        1 14K      0.466800
     43 H7          0.0210   -0.2570    6.8590 h4        1 14K      0.080100
     44 H8         -0.2030   -0.5130    9.1760 h1        1 14K      0.060700
     45 H9          1.8890   -2.6380   10.0570 hc        1 14K      0.058700
     46 H10         0.6290   -2.8310    8.7620 hc        1 14K      0.058700
     47 H11         0.1220   -2.5700   10.4790 hc        1 14K      0.058700
     48 H13        -0.2360   -0.7250   11.8720 h1        1 14K      0.047950
     49 H14         1.4220   -1.4680   12.0570 h1        1 14K      0.047950
     50 H15         0.6260    0.0150   13.9690 h1        1 14K      0.065200
     51 H16         2.2850    0.3870   13.2860 h1        1 14K      0.065200
     52 H17         1.5260    1.8180    9.5190 h1        1 14K      0.047950
     53 H18        -0.1560    1.5430   10.1630 h1        1 14K      0.047950
     54 H19         2.3910    2.4580   11.6750 h1        1 14K      0.065200
     55 H20         0.8040    3.3390   11.4280 h1        1 14K      0.065200
     56 H21         1.3040    4.0770   14.5780 h1        1 14K      0.124700
     57 H22         1.1880    2.6070   15.5990 h1        1 14K      0.124700
     58 H23        -0.0740    3.8650   15.6920 h1        1 14K      0.124700
     59 H24         3.6060   -0.6830    9.2860 ha        1 14K      0.194000
     60 H25         7.6720    1.9360    4.9190 hc        1 14K      0.107700
     61 H26         9.1540    0.9710    5.3690 hc        1 14K      0.107700
     62 H27         8.6480    2.3890    6.3890 hc        1 14K      0.107700
     63 H28         7.6770   -2.6260    9.4380 hn        1 14K      0.496133
     64 H29         7.6770   -1.2520   10.4060 hn        1 14K      0.496133
     65 H72         4.2050    1.1090    4.6310 hn        1 14K      0.466800
     66 H243        8.9890   -1.5690    9.4010 hn        1 14K      0.496133
@<TRIPOS>BOND
     1    1    2 1   
     2    1   37 1   
     3    1   38 1   
     4    1   39 1   
     5    2    3 1   
     6    3    4 ar  
     7    3    7 ar  
     8    4    5 ar  
     9    4    6 1   
    10    5    9 ar  
    11    5   40 1   
    12    7    8 ar  
    13    8    9 ar  
    14    8   41 1   
    15    9   10 1   
    16   10   11 1   
    17   10   42 1   
    18   10   65 1   
    19   11   12 ar  
    20   11   28 ar  
    21   12   13 ar  
    22   13   14 ar  
    23   13   43 1   
    24   14   15 1   
    25   14   27 ar  
    26   15   16 1   
    27   15   17 1   
    28   15   44 1   
    29   16   45 1   
    30   16   46 1   
    31   16   47 1   
    32   17   18 1   
    33   17   20 1   
    34   18   19 1   
    35   18   48 1   
    36   18   49 1   
    37   19   22 1   
    38   19   50 1   
    39   19   51 1   
    40   20   21 1   
    41   20   52 1   
    42   20   53 1   
    43   21   22 1   
    44   21   54 1   
    45   21   55 1   
    46   22   23 1   
    47   23   24 1   
    48   23   25 2   
    49   23   26 2   
    50   24   56 1   
    51   24   57 1   
    52   24   58 1   
    53   27   28 ar  
    54   27   59 1   
    55   28   29 1   
    56   29   30 ar  
    57   29   31 ar  
    58   30   35 ar  
    59   31   32 ar  
    60   32   33 1   
    61   32   34 ar  
    62   33   60 1   
    63   33   61 1   
    64   33   62 1   
    65   34   35 ar  
    66   35   36 1   
    67   36   63 1   
    68   36   64 1   
    69   36   66 1   
@<TRIPOS>SUBSTRUCTURE
     1 14K         1 TEMP              0 ****  ****    0 ROOT
