@<TRIPOS>MOLECULE
14K
   64    67     1     0     0
SMALL
bcc


@<TRIPOS>ATOM
      1 C15         0.1490    1.3300   -0.3010 c3        1 14K      0.125700
      2 O14         1.2810    0.4720   -0.1530 os        1 14K     -0.435100
      3 C11         1.8420    0.3780    1.1030 ca        1 14K      0.585600
      4 C12         2.9670   -0.5030    1.1930 ca        1 14K      0.011600
      5 C13         3.5910   -0.6580    2.4360 ca        1 14K     -0.150000
      6 F16         3.4090   -1.1700    0.1060 f         1 14K     -0.118900
      7 N10         1.3640    1.0670    2.1660 nb        1 14K     -0.699000
      8 C9          1.9820    0.9130    3.3450 ca        1 14K      0.438200
      9 C8          3.1050    0.0640    3.5480 ca        1 14K      0.005300
     10 N7          3.7740    0.0130    4.7900 nh        1 14K     -0.704300
     11 C2          3.1010   -0.3530    5.9720 ca        1 14K      0.673200
     12 N1          1.7410   -0.5460    5.9470 nb        1 14K     -0.719000
     13 C6          1.1130   -0.8060    7.0990 ca        1 14K      0.449200
     14 C5          1.7530   -0.9030    8.3510 ca        1 14K     -0.252600
     15 C25         0.9580   -1.2470    9.5840 c3        1 14K      0.242800
     16 C36         1.2380   -2.7120    9.9370 c3        1 14K     -0.095100
     17 N26         1.2460   -0.3180   10.6900 n3        1 14K     -0.725600
     18 C31         0.6640   -0.7500   11.9520 c3        1 14K      0.153800
     19 C30         0.8940    0.2560   13.1010 c3        1 14K      0.221800
     20 C27         0.8660    1.0480   10.3470 c3        1 14K      0.153800
     21 C28         1.1120    2.0480   11.4950 c3        1 14K      0.221800
     22 N29         0.5690    1.6160   12.7570 n3        1 14K     -0.825500
     23 S32        -0.3760    2.5580   13.6810 s6        1 14K      1.460900
     24 C33         0.7390    3.3450   14.7030 c3        1 14K     -0.358300
     25 O35        -1.0050    3.5470   12.8960 o         1 14K     -0.653300
     26 O34        -1.2120    1.7650   14.4960 o         1 14K     -0.653300
     27 C4          3.1350   -0.7100    8.3860 ca        1 14K     -0.004000
     28 C3          3.8290   -0.4410    7.2030 cp        1 14K     -0.305800
     29 C17         5.3010   -0.2540    7.2780 cp        1 14K      0.774500
     30 N22         5.7540    0.6790    8.1640 nb        1 14K     -0.782000
     31 N18         6.0900   -1.0450    6.4840 nb        1 14K     -0.796000
     32 C19         7.4430   -0.8560    6.6230 ca        1 14K      0.713300
     33 C23         8.3490   -1.7070    5.7660 c3        1 14K     -0.142400
     34 N20         8.0300    0.0370    7.4680 nb        1 14K     -0.790000
     35 C21         7.1440    0.7930    8.2380 ca        1 14K      0.907900
     36 N24         7.6740    1.6810    9.1530 nh        1 14K     -0.944500
     37 H1         -0.1030    1.2210   -1.3870 h1        1 14K      0.051700
     38 H2          0.4200    2.3850   -0.0590 h1        1 14K      0.051700
     39 H3         -0.6950    0.9830    0.3410 h1        1 14K      0.051700
     40 H4          4.4530   -1.3370    2.5230 ha        1 14K      0.156000
     41 H5          1.5480    1.4990    4.1770 h4        1 14K      0.045100
     42 H6          4.7000   -0.3610    4.7190 hn        1 14K      0.441800
     43 H7          0.0200   -0.9540    7.0070 h4        1 14K      0.027100
     44 H8         -0.1450   -1.1790    9.3110 h1        1 14K      0.027700
     45 H9          2.2710   -2.8380   10.3390 hc        1 14K      0.045033
     46 H10         1.1380   -3.3290    9.0120 hc        1 14K      0.045033
     47 H11         0.5030   -3.0850   10.6900 hc        1 14K      0.045033
     48 H13         1.1680   -1.7110   12.2570 h1        1 14K      0.045950
     49 H14        -0.4430   -0.9490   11.8590 h1        1 14K      0.045950
     50 H15         1.9790    0.2050   13.4090 h1        1 14K      0.059950
     51 H16         0.2570   -0.0700   13.9730 h1        1 14K      0.059950
     52 H17         1.4990    1.3690    9.4730 h1        1 14K      0.045950
     53 H18        -0.2180    1.1150   10.0370 h1        1 14K      0.045950
     54 H19         0.6390    3.0300   11.2020 h1        1 14K      0.059950
     55 H20         2.2250    2.2030   11.6060 h1        1 14K      0.059950
     56 H21         0.1990    4.0360   15.4000 h1        1 14K      0.112700
     57 H22         1.4790    3.9740   14.1530 h1        1 14K      0.112700
     58 H23         1.3230    2.6460   15.3480 h1        1 14K      0.112700
     59 H24         3.6750   -0.7680    9.3460 ha        1 14K      0.165000
     60 H25         9.4250   -1.5290    6.0080 hc        1 14K      0.067033
     61 H26         8.1750   -1.4610    4.6890 hc        1 14K      0.067033
     62 H27         8.1130   -2.7870    5.9320 hc        1 14K      0.067033
     63 H28         8.6460    1.8700    9.1320 hn        1 14K      0.447800
     64 H29         7.0690    2.3170    9.6120 hn        1 14K      0.447800
@<TRIPOS>BOND
     1    1    2 1   
     2    1   37 1   
     3    1   38 1   
     4    1   39 1   
     5    2    3 1   
     6    3    4 ar  
     7    3    7 ar  
     8    4    5 ar  
     9    4    6 1   
    10    5    9 ar  
    11    5   40 1   
    12    7    8 ar  
    13    8    9 ar  
    14    8   41 1   
    15    9   10 1   
    16   10   11 1   
    17   10   42 1   
    18   11   12 ar  
    19   11   28 ar  
    20   12   13 ar  
    21   13   14 ar  
    22   13   43 1   
    23   14   15 1   
    24   14   27 ar  
    25   15   16 1   
    26   15   17 1   
    27   15   44 1   
    28   16   45 1   
    29   16   46 1   
    30   16   47 1   
    31   17   18 1   
    32   17   20 1   
    33   18   19 1   
    34   18   48 1   
    35   18   49 1   
    36   19   22 1   
    37   19   50 1   
    38   19   51 1   
    39   20   21 1   
    40   20   52 1   
    41   20   53 1   
    42   21   22 1   
    43   21   54 1   
    44   21   55 1   
    45   22   23 1   
    46   23   24 1   
    47   23   25 2   
    48   23   26 2   
    49   24   56 1   
    50   24   57 1   
    51   24   58 1   
    52   27   28 ar  
    53   27   59 1   
    54   28   29 1   
    55   29   30 ar  
    56   29   31 ar  
    57   30   35 ar  
    58   31   32 ar  
    59   32   33 1   
    60   32   34 ar  
    61   33   60 1   
    62   33   61 1   
    63   33   62 1   
    64   34   35 ar  
    65   35   36 1   
    66   36   63 1   
    67   36   64 1   
@<TRIPOS>SUBSTRUCTURE
     1 14K         1 TEMP              0 ****  ****    0 ROOT
