@<TRIPOS>MOLECULE
14K
   64    67     1     0     0
SMALL
bcc


@<TRIPOS>ATOM
      1 C15        -6.8450    4.5160   -1.7900 c3        1 14K      0.125700
      2 O14        -7.1170    3.3180   -1.0630 os        1 14K     -0.435100
      3 C11        -6.0630    2.4550   -0.8510 ca        1 14K      0.585600
      4 C12        -6.3920    1.2760   -0.1080 ca        1 14K      0.011600
      5 C13        -5.3750    0.3500    0.1530 ca        1 14K     -0.150000
      6 F16        -7.6510    1.0680    0.3320 f         1 14K     -0.118900
      7 N10        -4.8150    2.7060   -1.3120 nb        1 14K     -0.699000
      8 C9         -3.8570    1.8020   -1.0610 ca        1 14K      0.438200
      9 C8         -4.0730    0.5990   -0.3320 ca        1 14K      0.005300
     10 N7         -3.0500   -0.3610   -0.1790 nh        1 14K     -0.704300
     11 C2         -1.8250   -0.0360    0.4380 ca        1 14K      0.673200
     12 N1         -1.5640    1.2660    0.7870 nb        1 14K     -0.719000
     13 C6         -0.3610    1.5630    1.2880 ca        1 14K      0.449200
     14 C5          0.6710    0.6250    1.4920 ca        1 14K     -0.252600
     15 C25         1.9770    1.0560    2.1080 c3        1 14K      0.242800
     16 C36         1.9970    0.5770    3.5630 c3        1 14K     -0.095100
     17 N26         3.1290    0.5790    1.3230 n3        1 14K     -0.725600
     18 C31         4.3980    0.7880    2.0050 c3        1 14K      0.153800
     19 C30         5.6170    0.3620    1.1570 c3        1 14K      0.221800
     20 C27         3.1240    1.1430   -0.0210 c3        1 14K      0.153800
     21 C28         4.3380    0.7000   -0.8640 c3        1 14K      0.221800
     22 N29         5.5980    0.8740   -0.1880 n3        1 14K     -0.825500
     23 S32         6.8650    1.6320   -0.8620 s6        1 14K      1.460900
     24 C33         7.7180    0.3670   -1.6220 c3        1 14K     -0.358300
     25 O35         6.4300    2.5180   -1.8710 o         1 14K     -0.653300
     26 O34         7.7040    2.1700    0.1380 o         1 14K     -0.653300
     27 C4          0.4150   -0.7020    1.1420 ca        1 14K     -0.004000
     28 C3         -0.8330   -1.0540    0.6190 cp        1 14K     -0.305800
     29 C17        -1.0720   -2.4780    0.2710 cp        1 14K      0.774500
     30 N22        -0.1680   -3.0630   -0.5670 nb        1 14K     -0.782000
     31 N18        -2.1550   -3.1040    0.8350 nb        1 14K     -0.796000
     32 C19        -2.3050   -4.4290    0.5070 ca        1 14K      0.713300
     33 C23        -3.4850   -5.1560    1.1070 c3        1 14K     -0.142400
     34 N20        -1.4790   -5.1360   -0.3120 nb        1 14K     -0.790000
     35 C21        -0.4030   -4.4140   -0.8340 ca        1 14K      0.907900
     36 N24         0.5030   -5.0840   -1.6320 nh        1 14K     -0.944500
     37 H1         -6.0930    5.1420   -1.2530 h1        1 14K      0.051700
     38 H2         -6.4940    4.2790   -2.8230 h1        1 14K      0.051700
     39 H3         -7.8440    5.0230   -1.8140 h1        1 14K      0.051700
     40 H4         -5.6120   -0.5570    0.7290 ha        1 14K      0.156000
     41 H5         -2.8580    2.0590   -1.4610 h4        1 14K      0.045100
     42 H6         -3.3980   -1.2660    0.0670 hn        1 14K      0.441800
     43 H7         -0.2180    2.6290    1.5500 h4        1 14K      0.027100
     44 H8          1.9850    2.1940    2.1350 h1        1 14K      0.027700
     45 H9          2.8250    1.0670    4.1300 hc        1 14K      0.045033
     46 H10         1.0280    0.8540    4.0460 hc        1 14K      0.045033
     47 H11         2.1200   -0.5310    3.6210 hc        1 14K      0.045033
     48 H13         4.5320    1.8640    2.3210 h1        1 14K      0.045950
     49 H14         4.4060    0.1470    2.9300 h1        1 14K      0.045950
     50 H15         6.5440    0.7330    1.6840 h1        1 14K      0.059950
     51 H16         5.6490   -0.7650    1.1210 h1        1 14K      0.059950
     52 H17         2.1960    0.7760   -0.5420 h1        1 14K      0.045950
     53 H18         3.0910    2.2720   -0.0010 h1        1 14K      0.045950
     54 H19         4.2120   -0.3880   -1.1350 h1        1 14K      0.059950
     55 H20         4.3370    1.3110   -1.8130 h1        1 14K      0.059950
     56 H21         7.1270   -0.1580   -2.4090 h1        1 14K      0.113033
     57 H22         8.6300    0.7710   -2.1320 h1        1 14K      0.113033
     58 H23         8.0790   -0.4150   -0.9120 h1        1 14K      0.113033
     59 H24         1.1970   -1.4680    1.2760 ha        1 14K      0.165000
     60 H25        -4.4310   -4.7060    0.7150 hc        1 14K      0.067033
     61 H26        -3.4670   -6.2430    0.8490 hc        1 14K      0.067033
     62 H27        -3.4660   -5.0460    2.2190 hc        1 14K      0.067033
     63 H28         1.1940   -4.5640   -2.1160 hn        1 14K      0.447800
     64 H29         0.2890   -6.0020   -1.9370 hn        1 14K      0.447800
@<TRIPOS>BOND
     1    1    2 1   
     2    1   37 1   
     3    1   38 1   
     4    1   39 1   
     5    2    3 1   
     6    3    4 ar  
     7    3    7 ar  
     8    4    5 ar  
     9    4    6 1   
    10    5    9 ar  
    11    5   40 1   
    12    7    8 ar  
    13    8    9 ar  
    14    8   41 1   
    15    9   10 1   
    16   10   11 1   
    17   10   42 1   
    18   11   12 ar  
    19   11   28 ar  
    20   12   13 ar  
    21   13   14 ar  
    22   13   43 1   
    23   14   15 1   
    24   14   27 ar  
    25   15   16 1   
    26   15   17 1   
    27   15   44 1   
    28   16   45 1   
    29   16   46 1   
    30   16   47 1   
    31   17   18 1   
    32   17   20 1   
    33   18   19 1   
    34   18   48 1   
    35   18   49 1   
    36   19   22 1   
    37   19   50 1   
    38   19   51 1   
    39   20   21 1   
    40   20   52 1   
    41   20   53 1   
    42   21   22 1   
    43   21   54 1   
    44   21   55 1   
    45   22   23 1   
    46   23   24 1   
    47   23   25 2   
    48   23   26 2   
    49   24   56 1   
    50   24   57 1   
    51   24   58 1   
    52   27   28 ar  
    53   27   59 1   
    54   28   29 1   
    55   29   30 ar  
    56   29   31 ar  
    57   30   35 ar  
    58   31   32 ar  
    59   32   33 1   
    60   32   34 ar  
    61   33   60 1   
    62   33   61 1   
    63   33   62 1   
    64   34   35 ar  
    65   35   36 1   
    66   36   63 1   
    67   36   64 1   
@<TRIPOS>SUBSTRUCTURE
     1 14K         1 TEMP              0 ****  ****    0 ROOT
