@<TRIPOS>MOLECULE
14K
   64    67     1     0     0
SMALL
bcc


@<TRIPOS>ATOM
      1 C15         0.1120    1.2810   -0.2960 c3        1 14K      0.125700
      2 O14         1.2540    0.4370   -0.1490 os        1 14K     -0.435100
      3 C11         1.8200    0.3520    1.1060 ca        1 14K      0.585600
      4 C12         2.9550   -0.5170    1.1940 ca        1 14K      0.011600
      5 C13         3.5850   -0.6610    2.4360 ca        1 14K     -0.150000
      6 F16         3.4010   -1.1810    0.1080 f         1 14K     -0.118900
      7 N10         1.3370    1.0390    2.1680 nb        1 14K     -0.699000
      8 C9          1.9610    0.8950    3.3460 ca        1 14K      0.438200
      9 C8          3.0940    0.0590    3.5470 ca        1 14K      0.005300
     10 N7          3.7670    0.0190    4.7880 nu        1 14K     -0.704300
     11 C2          3.1020   -0.3530    5.9720 ca        1 14K      0.673200
     12 N1          1.7440   -0.5600    5.9530 nb        1 14K     -0.719000
     13 C6          1.1230   -0.8240    7.1070 ca        1 14K      0.449200
     14 C5          1.7670   -0.9110    8.3570 ca        1 14K     -0.252600
     15 C25         0.9800   -1.2610    9.5930 c3        1 14K      0.242800
     16 C36         1.2780   -2.7210    9.9490 c3        1 14K     -0.095100
     17 N26         1.2600   -0.3250   10.6960 n3        1 14K     -0.725600
     18 C31         0.6880   -0.7610   11.9610 c3        1 14K      0.153800
     19 C30         0.9100    0.2520   13.1060 c3        1 14K      0.221800
     20 C27         0.8640    1.0350   10.3500 c3        1 14K      0.153800
     21 C28         1.1020    2.0410   11.4950 c3        1 14K      0.221800
     22 N29         0.5670    1.6060   12.7600 n3        1 14K     -0.825500
     23 S32        -0.3850    2.5400   13.6840 s6        1 14K      1.460900
     24 C33         0.7230    3.3450   14.6990 c3        1 14K     -0.358300
     25 O35        -1.0290    3.5190   12.8970 o         1 14K     -0.653300
     26 O34        -1.2100    1.7400   14.5040 o         1 14K     -0.653300
     27 C4          3.1470   -0.7030    8.3870 ca        1 14K     -0.004000
     28 C3          3.8350   -0.4300    7.2010 cp        1 14K     -0.305800
     29 C17         5.3050   -0.2280    7.2710 cp        1 14K      0.774500
     30 N22         5.7510    0.7110    8.1550 nb        1 14K     -0.782000
     31 N18         6.1000   -1.0120    6.4760 nb        1 14K     -0.796000
     32 C19         7.4510   -0.8080    6.6110 ca        1 14K      0.713300
     33 C23         8.3630   -1.6510    5.7510 c3        1 14K     -0.142400
     34 N20         8.0310    0.0910    7.4520 nb        1 14K     -0.790000
     35 C21         7.1400    0.8390    8.2240 ca        1 14K      0.907900
     36 N24         7.6640    1.7340    9.1360 nv        1 14K     -0.944500
     37 H1          0.3720    2.3400   -0.0570 h1        1 14K      0.051700
     38 H2         -0.7260    0.9270    0.3510 h1        1 14K      0.051700
     39 H3         -0.1430    1.1660   -1.3800 h1        1 14K      0.051700
     40 H4          4.4540   -1.3300    2.5220 ha        1 14K      0.156000
     41 H5          1.5240    1.4790    4.1780 h4        1 14K      0.045100
     42 H6          4.6970   -0.3450    4.7150 hn        1 14K      0.441800
     43 H7          0.0300   -0.9830    7.0190 h4        1 14K      0.027100
     44 H8         -0.1250   -1.2060    9.3230 h1        1 14K      0.027700
     45 H9          2.3130   -2.8340   10.3490 hc        1 14K      0.045033
     46 H10         1.1820   -3.3430    9.0260 hc        1 14K      0.045033
     47 H11         0.5500   -3.1000   10.7060 hc        1 14K      0.045033
     48 H13         1.2030   -1.7140   12.2670 h1        1 14K      0.045950
     49 H14        -0.4180   -0.9730   11.8720 h1        1 14K      0.045950
     50 H15         1.9960    0.2140   13.4100 h1        1 14K      0.059950
     51 H16         0.2790   -0.0800   13.9810 h1        1 14K      0.059950
     52 H17         1.4900    1.3610    9.4730 h1        1 14K      0.045950
     53 H18        -0.2220    1.0890   10.0430 h1        1 14K      0.045950
     54 H19         0.6160    3.0170   11.2000 h1        1 14K      0.059950
     55 H20         2.2130    2.2090   11.6010 h1        1 14K      0.059950
     56 H21         1.3170    2.6540   15.3450 h1        1 14K      0.113033
     57 H22         1.4540    3.9800   14.1450 h1        1 14K      0.113033
     58 H23         0.1770    4.0310   15.3950 h1        1 14K      0.113033
     59 H24         3.6910   -0.7540    9.3450 ha        1 14K      0.165000
     60 H25         8.1300   -2.7330    5.9080 hc        1 14K      0.067033
     61 H26         8.1920   -1.3970    4.6760 hc        1 14K      0.067033
     62 H27         9.4370   -1.4720    5.9990 hc        1 14K      0.067033
     63 H28         8.6340    1.9320    9.1130 hn        1 14K      0.447800
     64 H29         7.0540    2.3640    9.5970 hn        1 14K      0.447800
@<TRIPOS>BOND
     1    1    2 1   
     2    1   37 1   
     3    1   38 1   
     4    1   39 1   
     5    2    3 1   
     6    3    4 ar  
     7    3    7 ar  
     8    4    5 ar  
     9    4    6 1   
    10    5    9 ar  
    11    5   40 1   
    12    7    8 ar  
    13    8    9 ar  
    14    8   41 1   
    15    9   10 1   
    16   10   11 1   
    17   10   42 1   
    18   11   12 ar  
    19   11   28 ar  
    20   12   13 ar  
    21   13   14 ar  
    22   13   43 1   
    23   14   15 1   
    24   14   27 ar  
    25   15   16 1   
    26   15   17 1   
    27   15   44 1   
    28   16   45 1   
    29   16   46 1   
    30   16   47 1   
    31   17   18 1   
    32   17   20 1   
    33   18   19 1   
    34   18   48 1   
    35   18   49 1   
    36   19   22 1   
    37   19   50 1   
    38   19   51 1   
    39   20   21 1   
    40   20   52 1   
    41   20   53 1   
    42   21   22 1   
    43   21   54 1   
    44   21   55 1   
    45   22   23 1   
    46   23   24 1   
    47   23   25 2   
    48   23   26 2   
    49   24   56 1   
    50   24   57 1   
    51   24   58 1   
    52   27   28 ar  
    53   27   59 1   
    54   28   29 1   
    55   29   30 ar  
    56   29   31 ar  
    57   30   35 ar  
    58   31   32 ar  
    59   32   33 1   
    60   32   34 ar  
    61   33   60 1   
    62   33   61 1   
    63   33   62 1   
    64   34   35 ar  
    65   35   36 1   
    66   36   63 1   
    67   36   64 1   
@<TRIPOS>SUBSTRUCTURE
     1 14K         1 TEMP              0 ****  ****    0 ROOT
