@<TRIPOS>MOLECULE
14K
   64    56     1     0     0
SMALL
bcc


@<TRIPOS>ATOM
      1 C15        -5.8150    2.3110   -6.3600 c3        1 14K     -0.065000
      2 O14        -4.6190    1.5690   -6.2460 os        1 14K     -0.192000
      3 C11        -4.0430    1.6100   -4.9620 c1        1 14K      0.084000
      4 C12        -2.9150    2.3840   -4.7330 c1        1 14K      0.042000
      5 C13        -2.3240    2.3820   -3.5010 c1        1 14K     -0.094000
      6 F16        -2.3960    3.1210   -5.7240 f         1 14K     -0.082000
      7 N10        -4.5620    0.8470   -3.9580 n1        1 14K     -0.169000
      8 C9         -3.9730    0.8440   -2.7270 c1        1 14K     -0.087000
      9 C8         -2.8440    1.6170   -2.4950 c1        1 14K     -0.003000
     10 N7         -2.3130    1.7210   -1.1750 n3        1 14K     -0.230000
     11 C2         -1.1800    0.9440   -0.7990 c1        1 14K      0.158000
     12 N1         -0.9430   -0.2510   -1.4090 n1        1 14K     -0.195000
     13 C6          0.1800   -0.9620   -1.1070 c1        1 14K     -0.015000
     14 C5          1.0860   -0.4690   -0.1770 c1        1 14K     -0.186000
     15 C25         2.4240   -1.1580    0.0090 c3        1 14K      0.044000
     16 C36         3.4700   -0.1340    0.3800 c3        1 14K     -0.211000
     17 N26         2.3200   -2.1270    1.0460 n3        1 14K     -0.258000
     18 C31         3.5780   -3.0130    1.0450 c3        1 14K     -0.074000
     19 C30         3.5010   -4.1540    2.0400 c3        1 14K     -0.018000
     20 C27         1.3490   -3.2370    0.6140 c3        1 14K     -0.074000
     21 C28         1.2720   -4.3780    1.6090 c3        1 14K     -0.018000
     22 N29         2.2920   -4.3960    2.3850 n3        1 14K     -0.839000
     23 S32         2.0240   -4.7720    3.9650 s4        1 14K      2.034800
     24 C33         2.4460   -6.4700    4.2730 c2        1 14K     -0.936000
     25 O35         0.6670   -4.4950    4.3450 o         1 14K     -0.540400
     26 O34         2.7450   -3.8890    4.8410 o         1 14K     -0.540400
     27 C4          0.8490    0.7300    0.4340 c1        1 14K     -0.001000
     28 C3         -0.2770    1.4400    0.1300 c1        1 14K     -0.136000
     29 C17        -0.5080    2.7980    0.7600 c2        1 14K      0.138000
     30 N22        -1.4320    2.9430    1.7200 n2        1 14K     -0.286000
     31 N18         0.2480    3.8450    0.3940 n1        1 14K     -0.234000
     32 C19         0.0810    5.0340    0.9880 c1        1 14K      0.092000
     33 C23         0.9620    6.2020    0.6040 c3        1 14K     -0.166000
     34 N20        -0.8440    5.1780    1.9500 n1        1 14K     -0.259000
     35 C21        -1.6000    4.1330    2.3160 c1        1 14K      0.184000
     36 N24        -2.6000    4.2950    3.3070 n2        1 14K     -0.334000
     37 H1         -6.2180    2.4200   -5.4720 h1        1 14K      0.090333
     38 H2         -6.4420    1.8340   -6.9480 h1        1 14K      0.090333
     39 H3         -5.6170    3.1940   -6.7400 h1        1 14K      0.090333
     40 H4         -1.5300    2.9260   -3.3400 ha        1 14K      0.173000
     41 H5         -4.3450    0.2970   -2.0100 ha        1 14K      0.164000
     42 H6         -2.6750    2.3120   -0.5840 hn        1 14K      0.240000
     43 H7          0.3480   -1.8170   -1.5450 ha        1 14K      0.162000
     44 H8          2.6820   -1.5990   -0.8250 h1        1 14K      0.062000
     45 H9          3.3280    0.6830   -0.1440 hc        1 14K      0.085333
     46 H10         4.3640   -0.4940    0.1890 hc        1 14K      0.085333
     47 H11         3.3980    0.0740    1.3340 hc        1 14K      0.085333
     48 H13         4.3530   -2.4590    1.2630 h1        1 14K      0.085250
     49 H14         3.6990   -3.3860    0.1490 h1        1 14K      0.085250
     50 H15         4.0200   -3.9180    2.8370 h1        1 14K      0.094250
     51 H16         3.8850   -4.9590    1.6340 h1        1 14K      0.094250
     52 H17         0.4570   -2.8510    0.5090 h1        1 14K      0.085250
     53 H18         1.6420   -3.5920   -0.2490 h1        1 14K      0.085250
     54 H19         1.2270   -5.2270    1.1200 h1        1 14K      0.094250
     55 H20         0.4600   -4.2770    2.1490 h1        1 14K      0.094250
     56 H21         1.7900   -7.0530    3.8370 ha        1 14K      0.151667
     57 H22         2.4420   -6.6380    5.2390 ha        1 14K      0.151667
     58 H23         3.3390   -6.6550    3.9120 ha        1 14K      0.151667
     59 H24         1.4850    1.0790    1.0890 ha        1 14K      0.167000
     60 H25         1.7320    6.2440    1.2100 hc        1 14K      0.108000
     61 H26         0.4480    7.0350    0.6710 hc        1 14K      0.108000
     62 H27         1.2760    6.0850   -0.3160 hc        1 14K      0.108000
     63 H28        -3.1800    3.6120    3.4880 hn        1 14K      0.237500
     64 H29        -2.6720    5.0870    3.7590 hn        1 14K      0.237500
@<TRIPOS>BOND
     1    1    2 1   
     2    1   37 1   
     3    1   38 1   
     4    1   39 1   
     5    2    3 1   
     6    3    7 1   
     7    4    5 1   
     8    5   40 1   
     9    8    9 1   
    10    8   41 1   
    11    9   10 1   
    12   10   11 1   
    13   10   42 1   
    14   11   28 1   
    15   12   13 1   
    16   13   43 1   
    17   14   15 1   
    18   14   27 1   
    19   15   16 1   
    20   15   17 1   
    21   15   44 1   
    22   16   45 1   
    23   16   46 1   
    24   16   47 1   
    25   17   18 1   
    26   17   20 1   
    27   18   19 1   
    28   18   48 1   
    29   18   49 1   
    30   19   22 1   
    31   19   50 1   
    32   19   51 1   
    33   20   21 1   
    34   20   52 1   
    35   20   53 1   
    36   21   22 1   
    37   21   54 1   
    38   21   55 1   
    39   22   23 1   
    40   23   25 1   
    41   23   26 1   
    42   24   56 1   
    43   24   57 1   
    44   24   58 1   
    45   27   59 1   
    46   28   29 1   
    47   29   30 1   
    48   29   31 1   
    49   30   35 1   
    50   32   33 1   
    51   32   34 1   
    52   33   60 1   
    53   33   61 1   
    54   33   62 1   
    55   36   63 1   
    56   36   64 1   
@<TRIPOS>SUBSTRUCTURE
     1 14K         1 TEMP              0 ****  ****    0 ROOT
