@<TRIPOS>MOLECULE
14M
   62    64     1     0     0
SMALL
bcc


@<TRIPOS>ATOM
      1 C1          3.4830    1.5260   -0.9610 c         1 14M      0.640100
      2 C2          2.6720    0.3710   -0.4700 c3        1 14M     -0.124400
      3 C3          2.1020    0.4920    0.9340 c3        1 14M     -0.081700
      4 C7          1.4200    1.8240    1.2080 c3        1 14M     -0.075400
      5 C8          5.2500    1.2890    2.2070 ca        1 14M      0.686200
      6 C9          7.3050    0.2620    1.7180 ca        1 14M      0.571600
      7 C10         7.9730    1.5050    1.6250 ca        1 14M     -0.297900
      8 C11         7.2170    2.6650    1.8450 ca        1 14M     -0.005000
      9 C12         5.8610    2.5790    2.1180 ca        1 14M     -0.322300
     10 C13         9.4230    1.6880    1.3400 c         1 14M      0.685700
     11 C14        11.3910    1.0060   -0.0000 c3        1 14M      0.098700
     12 C15        11.6200    1.2040   -1.5100 c3        1 14M     -0.090900
     13 C16        13.0990    1.3480   -1.8020 c3        1 14M     -0.075400
     14 C19        12.1590   -0.2480    0.4590 c3        1 14M     -0.090900
     15 C20         7.0960   -2.5290    1.6930 c3        1 14M     -0.017300
     16 C21         7.9200   -3.7790    1.5040 c3        1 14M     -0.077400
     17 C22         7.0690   -5.0140    1.6560 c3        1 14M     -0.090100
     18 S1          8.2200   -1.1720    1.5060 ss        1 14M     -0.288400
     19 O1          4.7590    1.1890   -1.3050 oh        1 14M     -0.604100
     20 O2          3.1540    2.6990   -1.1630 o         1 14M     -0.556000
     21 O3         10.0860    2.5500    1.9560 o         1 14M     -0.613100
     22 N1          3.9080    1.1310    2.6080 nh        1 14M     -0.750300
     23 N2          5.9890    0.1530    1.9900 nb        1 14M     -0.749000
     24 N3          9.9810    0.9450    0.3200 n         1 14M     -0.558900
     25 C4          3.0980    0.0770    2.0350 c3        1 14M      0.204800
     26 C5          3.1270    2.2940    2.9800 c3        1 14M      0.192800
     27 C6          2.3080    2.8780    1.8330 c3        1 14M     -0.116400
     28 C17        13.8810    0.1460   -1.3150 c3        1 14M     -0.079400
     29 C18        13.6350   -0.1010    0.1590 c3        1 14M     -0.075400
     30 H1          1.8150    0.2720   -1.1950 hc        1 14M      0.079700
     31 H2          3.2940   -0.5630   -0.5390 hc        1 14M      0.079700
     32 H3          1.2910   -0.3000    0.9740 hc        1 14M      0.056700
     33 H4          1.0060    2.2280    0.2450 hc        1 14M      0.051700
     34 H5          0.5530    1.6350    1.8960 hc        1 14M      0.051700
     35 H6          7.7180    3.6470    1.7970 ha        1 14M      0.160000
     36 H7          5.2790    3.5010    2.2460 ha        1 14M      0.149000
     37 H8         11.8260    1.9000    0.5430 h1        1 14M      0.089700
     38 H9         11.0810    2.1230   -1.8590 hc        1 14M      0.044950
     39 H10        11.2070    0.3300   -2.0760 hc        1 14M      0.044950
     40 H11        13.2470    1.4700   -2.9060 hc        1 14M      0.042950
     41 H12        13.4900    2.2750   -1.3050 hc        1 14M      0.042950
     42 H13        11.7560   -1.1530   -0.0640 hc        1 14M      0.044950
     43 H14        12.0160   -0.3970    1.5610 hc        1 14M      0.044950
     44 H15         6.6240   -2.5140    2.7040 h1        1 14M      0.078200
     45 H16         6.2770   -2.4730    0.9360 h1        1 14M      0.078200
     46 H17         8.7520   -3.8020    2.2570 hc        1 14M      0.052700
     47 H18         8.3920   -3.7720    0.4840 hc        1 14M      0.052700
     48 H19         6.2470   -5.0240    0.8990 hc        1 14M      0.037033
     49 H20         7.6920   -5.9300    1.5130 hc        1 14M      0.037033
     50 H21         6.6090   -5.0540    2.6730 hc        1 14M      0.037033
     51 H23         5.2280    1.9720   -1.6350 ho        1 14M      0.445000
     52 H24         3.7420   -0.7580    1.6440 h1        1 14M      0.066700
     53 H25         2.4880   -0.3380    2.8920 h1        1 14M      0.066700
     54 H26         2.4180    1.9440    3.7880 h1        1 14M      0.059700
     55 H27         3.7820    3.0830    3.4380 h1        1 14M      0.059700
     56 H28         1.6730    3.7120    2.2310 hc        1 14M      0.062200
     57 H29         2.9900    3.3170    1.0560 hc        1 14M      0.062200
     58 H30        13.5780   -0.7600   -1.9020 hc        1 14M      0.039700
     59 H31        14.9750    0.3130   -1.4910 hc        1 14M      0.039700
     60 H32        14.1720   -1.0320    0.4790 hc        1 14M      0.042950
     61 H33        14.0550    0.7510    0.7570 hc        1 14M      0.042950
     62 H321        9.4580    0.2020   -0.0850 hn        1 14M      0.317500
@<TRIPOS>BOND
     1    1    2 1   
     2    1   19 1   
     3    1   20 2   
     4    2    3 1   
     5    2   30 1   
     6    2   31 1   
     7    3    4 1   
     8    3   25 1   
     9    3   32 1   
    10    4   27 1   
    11    4   33 1   
    12    4   34 1   
    13    5    9 ar  
    14    5   22 1   
    15    5   23 ar  
    16    6    7 ar  
    17    6   18 1   
    18    6   23 ar  
    19    7    8 ar  
    20    7   10 1   
    21    8    9 ar  
    22    8   35 1   
    23    9   36 1   
    24   10   21 2   
    25   10   24 1   
    26   11   12 1   
    27   11   14 1   
    28   11   24 1   
    29   11   37 1   
    30   12   13 1   
    31   12   38 1   
    32   12   39 1   
    33   13   28 1   
    34   13   40 1   
    35   13   41 1   
    36   14   29 1   
    37   14   42 1   
    38   14   43 1   
    39   15   16 1   
    40   15   18 1   
    41   15   44 1   
    42   15   45 1   
    43   16   17 1   
    44   16   46 1   
    45   16   47 1   
    46   17   48 1   
    47   17   49 1   
    48   17   50 1   
    49   19   51 1   
    50   22   25 1   
    51   22   26 1   
    52   24   62 1   
    53   25   52 1   
    54   25   53 1   
    55   26   27 1   
    56   26   54 1   
    57   26   55 1   
    58   27   56 1   
    59   27   57 1   
    60   28   29 1   
    61   28   58 1   
    62   28   59 1   
    63   29   60 1   
    64   29   61 1   
@<TRIPOS>SUBSTRUCTURE
     1 14M         1 TEMP              0 ****  ****    0 ROOT
