@<TRIPOS>MOLECULE
14M
   62    64     1     0     0
SMALL
bcc


@<TRIPOS>ATOM
      1 C1          2.5650   -1.0650   -0.4140 c         1 14M      0.633100
      2 C2          3.3560   -0.3360    0.6230 c3        1 14M     -0.125400
      3 C3          2.4810    0.3460    1.6570 c3        1 14M     -0.083700
      4 C7          1.7900    1.5840    1.1060 c3        1 14M     -0.081400
      5 C8          5.4940    1.7710    2.5830 ca        1 14M      0.656200
      6 C9          7.3390    0.5650    1.7840 ca        1 14M      0.556600
      7 C10         8.2370    1.5960    2.1410 ca        1 14M     -0.278900
      8 C11         7.7110    2.7360    2.7660 ca        1 14M     -0.018000
      9 C12         6.3480    2.8460    2.9860 ca        1 14M     -0.281300
     10 C13         9.7160    1.5580    1.9460 c         1 14M      0.682700
     11 C14        11.6110    1.0200    0.4470 c3        1 14M      0.097700
     12 C15        11.9850    1.6870   -0.8890 c3        1 14M     -0.090900
     13 C16        13.4810    1.6190   -1.1090 c3        1 14M     -0.075900
     14 C19        12.0900   -0.4440    0.4240 c3        1 14M     -0.090900
     15 C20         6.5980   -1.8860    0.6600 c3        1 14M     -0.023300
     16 C21         7.1560   -3.0820   -0.0720 c3        1 14M     -0.073400
     17 C22         6.0480   -4.0360   -0.4460 c3        1 14M     -0.094100
     18 S1          7.9780   -0.8540    1.0650 ss        1 14M     -0.284400
     19 O1          3.3320   -1.8960   -1.1830 oh        1 14M     -0.619100
     20 O2          1.3610   -1.0360   -0.6800 o         1 14M     -0.552000
     21 O3         10.4800    1.9750    2.8410 o         1 14M     -0.609100
     22 N1          4.1080    1.8770    2.8960 nh        1 14M     -0.738300
     23 N2          6.0060    0.6520    1.9920 nb        1 14M     -0.757000
     24 N3         10.1950    1.1400    0.7230 n         1 14M     -0.556900
     25 C4          3.2830    0.6860    2.9250 c3        1 14M      0.193800
     26 C5          3.4300    3.0330    2.3260 c3        1 14M      0.184800
     27 C6          2.7220    2.7700    0.9970 c3        1 14M     -0.110400
     28 C17        13.9820    0.1900   -1.0870 c3        1 14M     -0.079400
     29 C18        13.5860   -0.5050    0.1980 c3        1 14M     -0.075900
     30 H1          4.0050    0.4130    0.0940 hc        1 14M      0.091700
     31 H2          4.0360   -1.0790    1.1250 hc        1 14M      0.091700
     32 H3          1.6800   -0.3870    1.9650 hc        1 14M      0.068700
     33 H4          1.3530    1.3440    0.1010 hc        1 14M      0.056700
     34 H5          0.9380    1.8480    1.7880 hc        1 14M      0.056700
     35 H6          8.4000    3.5350    3.0900 ha        1 14M      0.163000
     36 H7          5.9340    3.7320    3.4880 ha        1 14M      0.154000
     37 H8         12.1670    1.5550    1.2760 h1        1 14M      0.089700
     38 H9         11.6570    2.7590   -0.8830 hc        1 14M      0.044950
     39 H10        11.4560    1.1730   -1.7330 hc        1 14M      0.044950
     40 H11        14.0040    2.2110   -0.3110 hc        1 14M      0.042950
     41 H12        13.7320    2.0910   -2.0950 hc        1 14M      0.042950
     42 H13        11.5620   -1.0040   -0.3910 hc        1 14M      0.044950
     43 H14        11.8400   -0.9390    1.3980 hc        1 14M      0.044950
     44 H15         6.0610   -2.2040    1.5870 h1        1 14M      0.079200
     45 H16         5.8660   -1.3420    0.0120 h1        1 14M      0.079200
     46 H17         7.9080   -3.6100    0.5730 hc        1 14M      0.051700
     47 H18         7.6890   -2.7430   -1.0000 hc        1 14M      0.051700
     48 H19         5.5910   -4.4850    0.4680 hc        1 14M      0.040367
     49 H20         6.4500   -4.8600   -1.0830 hc        1 14M      0.040367
     50 H21         5.2440   -3.5030   -1.0130 hc        1 14M      0.040367
     51 H23         2.7740   -2.3380   -1.8430 ho        1 14M      0.443000
     52 H24         2.5310    0.8750    3.7480 h1        1 14M      0.063700
     53 H25         3.9020   -0.2030    3.2270 h1        1 14M      0.063700
     54 H26         4.1600    3.8780    2.1930 h1        1 14M      0.058200
     55 H27         2.6620    3.3500    3.0890 h1        1 14M      0.058200
     56 H28         2.1380    3.6850    0.7190 hc        1 14M      0.050700
     57 H29         3.4780    2.5950    0.1890 hc        1 14M      0.050700
     58 H30        13.5570   -0.3680   -1.9620 hc        1 14M      0.039700
     59 H31        15.0980    0.1810   -1.1920 hc        1 14M      0.039700
     60 H32        14.1140   -0.0240    1.0630 hc        1 14M      0.042950
     61 H33        13.9100   -1.5780    0.1600 hc        1 14M      0.042950
     62 H321        9.5720    0.7160    0.0740 hn        1 14M      0.317500
@<TRIPOS>BOND
     1    1    2 1   
     2    1   19 1   
     3    1   20 2   
     4    2    3 1   
     5    2   30 1   
     6    2   31 1   
     7    3    4 1   
     8    3   25 1   
     9    3   32 1   
    10    4   27 1   
    11    4   33 1   
    12    4   34 1   
    13    5    9 ar  
    14    5   22 1   
    15    5   23 ar  
    16    6    7 ar  
    17    6   18 1   
    18    6   23 ar  
    19    7    8 ar  
    20    7   10 1   
    21    8    9 ar  
    22    8   35 1   
    23    9   36 1   
    24   10   21 2   
    25   10   24 1   
    26   11   12 1   
    27   11   14 1   
    28   11   24 1   
    29   11   37 1   
    30   12   13 1   
    31   12   38 1   
    32   12   39 1   
    33   13   28 1   
    34   13   40 1   
    35   13   41 1   
    36   14   29 1   
    37   14   42 1   
    38   14   43 1   
    39   15   16 1   
    40   15   18 1   
    41   15   44 1   
    42   15   45 1   
    43   16   17 1   
    44   16   46 1   
    45   16   47 1   
    46   17   48 1   
    47   17   49 1   
    48   17   50 1   
    49   19   51 1   
    50   22   25 1   
    51   22   26 1   
    52   24   62 1   
    53   25   52 1   
    54   25   53 1   
    55   26   27 1   
    56   26   54 1   
    57   26   55 1   
    58   27   56 1   
    59   27   57 1   
    60   28   29 1   
    61   28   58 1   
    62   28   59 1   
    63   29   60 1   
    64   29   61 1   
@<TRIPOS>SUBSTRUCTURE
     1 14M         1 TEMP              0 ****  ****    0 ROOT
