@<TRIPOS>MOLECULE
14M
   61    63     1     0     0
SMALL
bcc


@<TRIPOS>ATOM
      1 C1          7.0290    0.7310    0.0640 c         1 14M      0.906600
      2 C2          5.5540    0.4230   -0.2690 c3        1 14M     -0.198400
      3 C3          4.8790   -0.2730    0.8970 c3        1 14M     -0.047700
      4 C7          5.4350   -1.6640    1.1290 c3        1 14M     -0.087400
      5 C8          1.3820   -1.3990   -0.1740 ca        1 14M      0.712200
      6 C9         -0.6430   -0.1990   -0.2280 ca        1 14M      0.595600
      7 C10        -1.3840   -1.3260   -0.6500 ca        1 14M     -0.337900
      8 C11        -0.6670   -2.5170   -0.8660 ca        1 14M      0.002000
      9 C12         0.6910   -2.5780   -0.6290 ca        1 14M     -0.342300
     10 C13        -2.8440   -1.3650   -0.9060 c         1 14M      0.695700
     11 C14        -5.1060   -0.6090   -0.2330 c3        1 14M      0.101700
     12 C15        -5.8910   -0.9760    1.0400 c3        1 14M     -0.092400
     13 C16        -7.3790   -0.9530    0.7670 c3        1 14M     -0.074400
     14 C19        -5.5510    0.7890   -0.7040 c3        1 14M     -0.092400
     15 C20        -0.2390    2.4870    0.4680 c3        1 14M     -0.010300
     16 C21        -0.9550    3.8090    0.5820 c3        1 14M     -0.074400
     17 C22        -0.0050    4.8980    1.0150 c3        1 14M     -0.091100
     18 S1         -1.4610    1.3060   -0.0460 ss        1 14M     -0.330400
     19 O1          7.3130    1.8980    0.4550 o         1 14M     -0.846800
     20 O2          7.8790   -0.1970   -0.0720 o         1 14M     -0.846800
     21 O3         -3.3180   -2.0490   -1.8420 o         1 14M     -0.632100
     22 N1          2.7580   -1.4000    0.0310 nh        1 14M     -0.737300
     23 N2          0.6770   -0.2290    0.0200 nb        1 14M     -0.771000
     24 N3         -3.6790   -0.7020   -0.0250 n         1 14M     -0.564900
     25 C4          3.3520   -0.2880    0.7570 c3        1 14M      0.211800
     26 C5          3.4370   -2.6770   -0.0250 c3        1 14M      0.212800
     27 C6          4.9580   -2.6190    0.0660 c3        1 14M     -0.078400
     28 C17        -7.8300    0.4010    0.2580 c3        1 14M     -0.078400
     29 C18        -7.0410    0.8080   -0.9700 c3        1 14M     -0.074400
     30 H1          5.0300    1.3880   -0.4850 hc        1 14M      0.028200
     31 H2          5.5100   -0.2120   -1.1870 hc        1 14M      0.028200
     32 H3          5.0940    0.3470    1.8170 hc        1 14M      0.062700
     33 H4          6.5610   -1.6030    1.0980 hc        1 14M      0.064200
     34 H5          5.1230   -2.0330    2.1410 hc        1 14M      0.064200
     35 H6         -1.2130   -3.4040   -1.2290 ha        1 14M      0.149000
     36 H7          1.2220   -3.5240   -0.7920 ha        1 14M      0.145000
     37 H8         -5.3820   -1.3530   -1.0420 h1        1 14M      0.086700
     38 H9         -5.5910   -1.9980    1.3890 hc        1 14M      0.045200
     39 H10        -5.6460   -0.2510    1.8600 hc        1 14M      0.045200
     40 H11        -7.6330   -1.7400    0.0100 hc        1 14M      0.038700
     41 H12        -7.9330   -1.2020    1.7100 hc        1 14M      0.038700
     42 H13        -5.2970    1.5510    0.0770 hc        1 14M      0.045200
     43 H14        -5.0020    1.0640   -1.6410 hc        1 14M      0.045200
     44 H15         0.5910    2.5450   -0.2780 h1        1 14M      0.085700
     45 H16         0.2090    2.1880    1.4460 h1        1 14M      0.085700
     46 H17        -1.4110    4.0800   -0.4080 hc        1 14M      0.045200
     47 H18        -1.7940    3.7250    1.3240 hc        1 14M      0.045200
     48 H19         0.4410    4.6600    2.0100 hc        1 14M      0.037367
     49 H20         0.8260    5.0110    0.2780 hc        1 14M      0.037367
     50 H21        -0.5460    5.8720    1.0920 hc        1 14M      0.037367
     51 H23        -3.2830   -0.0920    0.6530 hn        1 14M      0.317500
     52 H24         2.9050   -0.2710    1.7950 h1        1 14M      0.041700
     53 H25         3.0480    0.6660    0.2350 h1        1 14M      0.041700
     54 H26         3.0470   -3.3410    0.8030 h1        1 14M      0.026700
     55 H27         3.1800   -3.1670   -1.0100 h1        1 14M      0.026700
     56 H28         5.3860   -2.3100   -0.9250 hc        1 14M      0.052700
     57 H29         5.3230   -3.6570    0.2830 hc        1 14M      0.052700
     58 H30        -8.9220    0.3660    0.0100 hc        1 14M      0.035200
     59 H31        -7.6910    1.1690    1.0630 hc        1 14M      0.035200
     60 H32        -7.3480    1.8390   -1.2880 hc        1 14M      0.038700
     61 H33        -7.2790    0.1100   -1.8150 hc        1 14M      0.038700
@<TRIPOS>BOND
     1    1    2 1   
     2    1   19 1   
     3    1   20 1   
     4    2    3 1   
     5    2   30 1   
     6    2   31 1   
     7    3    4 1   
     8    3   25 1   
     9    3   32 1   
    10    4   27 1   
    11    4   33 1   
    12    4   34 1   
    13    5    9 ar  
    14    5   22 1   
    15    5   23 ar  
    16    6    7 ar  
    17    6   18 1   
    18    6   23 ar  
    19    7    8 ar  
    20    7   10 1   
    21    8    9 ar  
    22    8   35 1   
    23    9   36 1   
    24   10   21 2   
    25   10   24 1   
    26   11   12 1   
    27   11   14 1   
    28   11   24 1   
    29   11   37 1   
    30   12   13 1   
    31   12   38 1   
    32   12   39 1   
    33   13   28 1   
    34   13   40 1   
    35   13   41 1   
    36   14   29 1   
    37   14   42 1   
    38   14   43 1   
    39   15   16 1   
    40   15   18 1   
    41   15   44 1   
    42   15   45 1   
    43   16   17 1   
    44   16   46 1   
    45   16   47 1   
    46   17   48 1   
    47   17   49 1   
    48   17   50 1   
    49   22   25 1   
    50   22   26 1   
    51   24   51 1   
    52   25   52 1   
    53   25   53 1   
    54   26   27 1   
    55   26   54 1   
    56   26   55 1   
    57   27   56 1   
    58   27   57 1   
    59   28   29 1   
    60   28   58 1   
    61   28   59 1   
    62   29   60 1   
    63   29   61 1   
@<TRIPOS>SUBSTRUCTURE
     1 14M         1 TEMP              0 ****  ****    0 ROOT
