@<TRIPOS>MOLECULE
14M
   61    59     1     0     0
SMALL
bcc


@<TRIPOS>ATOM
      1 C1         -6.8330    3.4900    1.3360 c1        1 14M      0.330000
      2 C2         -5.9570    2.3800    1.2910 c2        1 14M     -0.226000
      3 C3         -4.9790    2.6020    0.1800 c3        1 14M     -0.085000
      4 C7         -5.6020    2.1660   -1.1240 c3        1 14M     -0.172000
      5 C8         -1.5520    1.1990   -0.3510 c1        1 14M      0.188000
      6 C9         -0.2860   -0.3510    0.9410 c1        1 14M     -0.062000
      7 C10         0.8440   -0.0190    0.1110 c2        1 14M     -0.250000
      8 C11         0.7160    0.8840   -0.8820 c1        1 14M      0.001000
      9 C12        -0.4650    1.4870   -1.1130 c1        1 14M     -0.277000
     10 C13         2.1350   -0.5900    0.3290 c2        1 14M      0.369000
     11 C14         4.4740   -0.4220   -0.4210 c3        1 14M      0.026000
     12 C15         5.3550   -0.4180   -1.7730 c3        1 14M     -0.170500
     13 C16         6.8140   -0.7190   -1.5360 c3        1 14M     -0.151000
     14 C19         5.2610    0.8150    0.3150 c3        1 14M     -0.170500
     15 C20        -0.8590   -3.4660    1.3220 c3        1 14M     -0.270000
     16 C21        -0.4040   -4.8000    2.1800 c3        1 14M     -0.153000
     17 C22        -1.4420   -5.9420    1.9540 c3        1 14M     -0.209000
     18 S1         -0.1840   -1.8810    2.1830 s         1 14M      0.178000
     19 O1         -7.8500    3.4690    0.6640 o         1 14M     -0.580000
     20 O2         -6.3750    4.5970    1.7060 o         1 14M     -0.580000
     21 O3          2.3790   -1.2320    1.3830 o         1 14M     -0.392000
     22 N1         -2.7600    1.9100   -0.6060 n2        1 14M     -0.231000
     23 N2         -1.4530    0.2440    0.7130 n2        1 14M     -0.241000
     24 N3          3.3370   -0.1500   -0.6610 n         1 14M     -0.372000
     25 C4         -3.6590    1.8480    0.4790 c3        1 14M     -0.033000
     26 C5         -3.3630    1.4810   -1.9070 c3        1 14M     -0.026000
     27 C6         -4.6610    2.2160   -2.2210 c3        1 14M     -0.159000
     28 C17         7.1670   -0.5190   -0.2370 c3        1 14M     -0.157000
     29 C18         6.7190    0.5150    0.5610 c3        1 14M     -0.151000
     30 H1         -6.4370    1.6160    1.1310 ha        1 14M      0.066000
     31 H2         -5.5200    2.3040    2.0800 ha        1 14M      0.066000
     32 H3         -4.7880    3.5250    0.1310 hc        1 14M      0.100000
     33 H4         -5.9280    1.2700   -1.0310 hc        1 14M      0.114000
     34 H5         -6.3920    2.7860   -1.3370 hc        1 14M      0.114000
     35 H6          1.4980    1.1870   -1.3490 ha        1 14M      0.148000
     36 H7         -0.5210    2.1850   -1.7880 ha        1 14M      0.144000
     37 H8          4.5640   -1.2700    0.0780 h1        1 14M      0.126000
     38 H9          4.9890   -1.0920   -2.3880 hc        1 14M      0.085250
     39 H10         5.2790    0.4790   -2.1990 hc        1 14M      0.085250
     40 H11         7.3790   -0.1130   -2.1300 hc        1 14M      0.075000
     41 H12         6.9870   -1.6340   -1.7690 hc        1 14M      0.075000
     42 H13         4.8220    1.0030    1.1830 hc        1 14M      0.085250
     43 H14         5.1960    1.6010   -0.2430 hc        1 14M      0.085250
     44 H15        -0.5060   -3.5220    0.4380 h1        1 14M      0.125500
     45 H16        -1.8100   -3.4220    1.2830 h1        1 14M      0.125500
     46 H17        -0.3650   -4.5810    3.1220 hc        1 14M      0.084500
     47 H18         0.4800   -5.0990    1.8780 hc        1 14M      0.084500
     48 H19        -1.5390   -6.1120    0.9910 hc        1 14M      0.077667
     49 H20        -1.1280   -6.7680    2.4050 hc        1 14M      0.077667
     50 H21        -2.3000   -5.6760    2.3250 hc        1 14M      0.077667
     51 H23         3.1520    0.3420   -1.3650 hn        1 14M      0.231000
     52 H24        -3.8540    0.9760    0.6510 h1        1 14M      0.086000
     53 H25        -3.2300    2.2460    1.2760 h1        1 14M      0.086000
     54 H26        -2.6720    1.6680   -2.6760 h1        1 14M      0.066500
     55 H27        -3.5500    0.4850   -1.8680 h1        1 14M      0.066500
     56 H28        -4.4500    3.1720   -2.4230 hc        1 14M      0.081500
     57 H29        -5.0910    1.7880   -3.0480 hc        1 14M      0.081500
     58 H30         8.1670   -0.4540   -0.2340 hc        1 14M      0.077500
     59 H31         6.9510   -1.2970    0.2100 hc        1 14M      0.077500
     60 H32         7.2590    1.3370    0.3650 hc        1 14M      0.075000
     61 H33         6.8400    0.2730    1.4860 hc        1 14M      0.075000
@<TRIPOS>BOND
     1    1   19 1   
     2    1   20 1   
     3    2    3 1   
     4    2   30 1   
     5    2   31 1   
     6    3    4 1   
     7    3   25 1   
     8    3   32 1   
     9    4   27 1   
    10    4   33 1   
    11    4   34 1   
    12    5    9 1   
    13    5   23 1   
    14    6    7 1   
    15    6   23 1   
    16    7    8 1   
    17    7   10 1   
    18    8   35 1   
    19    9   36 1   
    20   10   21 1   
    21   10   24 1   
    22   11   12 1   
    23   11   14 1   
    24   11   24 1   
    25   11   37 1   
    26   12   13 1   
    27   12   38 1   
    28   12   39 1   
    29   13   28 1   
    30   13   40 1   
    31   13   41 1   
    32   14   29 1   
    33   14   42 1   
    34   14   43 1   
    35   15   16 1   
    36   15   18 1   
    37   15   44 1   
    38   15   45 1   
    39   16   17 1   
    40   16   46 1   
    41   16   47 1   
    42   17   48 1   
    43   17   49 1   
    44   17   50 1   
    45   22   25 1   
    46   22   26 1   
    47   24   51 1   
    48   25   52 1   
    49   25   53 1   
    50   26   27 1   
    51   26   54 1   
    52   26   55 1   
    53   27   56 1   
    54   27   57 1   
    55   28   29 1   
    56   28   58 1   
    57   28   59 1   
    58   29   60 1   
    59   29   61 1   
@<TRIPOS>SUBSTRUCTURE
     1 14M         1 TEMP              0 ****  ****    0 ROOT
