@<TRIPOS>MOLECULE
14M
   62    64     1     0     0
SMALL
bcc


@<TRIPOS>ATOM
      1 C1          3.5140    1.7250   -0.8730 c         1 14M      0.640100
      2 C2          2.6640    0.5850   -0.4140 c3        1 14M     -0.124400
      3 C3          2.1140    0.6760    1.0000 c3        1 14M     -0.081700
      4 C7          1.4840    2.0220    1.3280 c3        1 14M     -0.075400
      5 C8          5.3010    1.3120    2.2640 ca        1 14M      0.686200
      6 C9          7.3120    0.2290    1.7180 ca        1 14M      0.571600
      7 C10         8.0250    1.4490    1.6600 ca        1 14M     -0.297900
      8 C11         7.3150    2.6270    1.9290 ca        1 14M     -0.005000
      9 C12         5.9590    2.5810    2.2140 ca        1 14M     -0.322300
     10 C13         9.4780    1.5890    1.3660 c         1 14M      0.685700
     11 C14        11.4060    0.8830   -0.0190 c3        1 14M      0.098700
     12 C15        11.6280    1.1200   -1.5240 c3        1 14M     -0.090900
     13 C16        13.1080    1.2200   -1.8270 c3        1 14M     -0.075400
     14 C19        12.1330   -0.4100    0.3940 c3        1 14M     -0.090900
     15 C20         7.0010   -2.5500    1.5970 c3        1 14M     -0.017300
     16 C21         7.7760   -3.8220    1.3550 c3        1 14M     -0.077400
     17 C22         6.8810   -5.0300    1.4730 c3        1 14M     -0.090100
     18 S1          8.1720   -1.2290    1.4460 ss        1 14M     -0.288400
     19 O1          4.7730    1.3530   -1.2430 oh        1 14M     -0.604100
     20 O2          3.2280    2.9160   -1.0290 o         1 14M     -0.556000
     21 O3         10.1780    2.4050    2.0040 o         1 14M     -0.613100
     22 N1          3.9580    1.1890    2.6750 nh        1 14M     -0.750300
     23 N2          5.9960    0.1580    2.0000 nb        1 14M     -0.749000
     24 N3          9.9980    0.8630    0.3140 ns        1 14M     -0.558900
     25 C4          3.1050    0.1860    2.0740 c3        1 14M      0.204800
     26 C5          3.2250    2.3650    3.0960 c3        1 14M      0.192800
     27 C6          2.4170    3.0200    1.9800 c3        1 14M     -0.116400
     28 C17        13.8510   -0.0230   -1.3850 c3        1 14M     -0.079400
     29 C18        13.6110   -0.3060    0.0830 c3        1 14M     -0.075400
     30 H1          1.7980    0.5430   -1.1320 hc        1 14M      0.079700
     31 H2          3.2500   -0.3690   -0.5230 hc        1 14M      0.079700
     32 H3          1.2750   -0.0860    1.0210 hc        1 14M      0.056700
     33 H4          0.6180    1.8400    2.0190 hc        1 14M      0.051700
     34 H5          1.0760    2.4750    0.3840 hc        1 14M      0.051700
     35 H6          7.8500    3.5920    1.9090 ha        1 14M      0.160000
     36 H7          5.4120    3.5180    2.3800 ha        1 14M      0.149000
     37 H8         11.8780    1.7440    0.5470 h1        1 14M      0.089700
     38 H9         11.1180    2.0670   -1.8390 hc        1 14M      0.044950
     39 H10        11.1780    0.2790   -2.1120 hc        1 14M      0.044950
     40 H11        13.5370    2.1170   -1.3070 hc        1 14M      0.042950
     41 H12        13.2500    1.3710   -2.9290 hc        1 14M      0.042950
     42 H13        11.9950   -0.5880    1.4920 hc        1 14M      0.044950
     43 H14        11.6930   -1.2850   -0.1530 hc        1 14M      0.044950
     44 H15         6.1770   -2.4370    0.8530 h1        1 14M      0.078200
     45 H16         6.5400   -2.5530    2.6140 h1        1 14M      0.078200
     46 H17         8.6140   -3.9020    2.0980 hc        1 14M      0.052700
     47 H18         8.2380   -3.7960    0.3320 hc        1 14M      0.052700
     48 H19         6.4310   -5.0890    2.4940 hc        1 14M      0.037033
     49 H20         7.4690   -5.9620    1.2920 hc        1 14M      0.037033
     50 H21         6.0530   -4.9820    0.7260 hc        1 14M      0.037033
     51 H23         5.2680    2.1300   -1.5510 ho        1 14M      0.445000
     52 H24         3.7140   -0.6570    1.6470 h1        1 14M      0.066700
     53 H25         2.4880   -0.2360    2.9230 h1        1 14M      0.066700
     54 H26         2.5120    2.0130    3.9000 h1        1 14M      0.059700
     55 H27         3.9130    3.1130    3.5740 h1        1 14M      0.059700
     56 H28         3.1060    3.4610    1.2120 hc        1 14M      0.062200
     57 H29         1.8170    3.8610    2.4140 hc        1 14M      0.062200
     58 H30        13.5110   -0.9000   -1.9970 hc        1 14M      0.039700
     59 H31        14.9490    0.1100   -1.5690 hc        1 14M      0.039700
     60 H32        14.1170   -1.2660    0.3680 hc        1 14M      0.042950
     61 H33        14.0670    0.5110    0.7010 hc        1 14M      0.042950
     62 H321        9.4450    0.1540   -0.1090 hn        1 14M      0.317500
@<TRIPOS>BOND
     1    1    2 1   
     2    1   19 1   
     3    1   20 2   
     4    2    3 1   
     5    2   30 1   
     6    2   31 1   
     7    3    4 1   
     8    3   25 1   
     9    3   32 1   
    10    4   27 1   
    11    4   33 1   
    12    4   34 1   
    13    5    9 ar  
    14    5   22 1   
    15    5   23 ar  
    16    6    7 ar  
    17    6   18 1   
    18    6   23 ar  
    19    7    8 ar  
    20    7   10 1   
    21    8    9 ar  
    22    8   35 1   
    23    9   36 1   
    24   10   21 2   
    25   10   24 1   
    26   11   12 1   
    27   11   14 1   
    28   11   24 1   
    29   11   37 1   
    30   12   13 1   
    31   12   38 1   
    32   12   39 1   
    33   13   28 1   
    34   13   40 1   
    35   13   41 1   
    36   14   29 1   
    37   14   42 1   
    38   14   43 1   
    39   15   16 1   
    40   15   18 1   
    41   15   44 1   
    42   15   45 1   
    43   16   17 1   
    44   16   46 1   
    45   16   47 1   
    46   17   48 1   
    47   17   49 1   
    48   17   50 1   
    49   19   51 1   
    50   22   25 1   
    51   22   26 1   
    52   24   62 1   
    53   25   52 1   
    54   25   53 1   
    55   26   27 1   
    56   26   54 1   
    57   26   55 1   
    58   27   56 1   
    59   27   57 1   
    60   28   29 1   
    61   28   58 1   
    62   28   59 1   
    63   29   60 1   
    64   29   61 1   
@<TRIPOS>SUBSTRUCTURE
     1 14M         1 TEMP              0 ****  ****    0 ROOT
