@<TRIPOS>MOLECULE
14N
   31    30     1     0     0
SMALL
bcc


@<TRIPOS>ATOM
      1 C3          0.9050    0.5640   -1.0180 c3        1 14N     -0.065000
      2 C2          2.4270    0.6630   -0.9760 c3        1 14N     -0.069000
      3 N1          2.9380    0.7040    0.3670 n3        1 14N     -0.258000
      4 C1          4.3160    0.6540    0.3360 c3        1 14N     -0.115000
      5 C5          2.4430   -0.3560    1.1750 c3        1 14N     -0.069000
      6 C4          0.9150   -0.4530    1.1340 c3        1 14N     -0.065000
      7 N2          0.4060   -0.4950   -0.2100 n3        1 14N     -0.213000
      8 C6         -1.0380   -0.4360   -0.1800 c2        1 14N     -0.044000
      9 C7         -1.7850   -1.4140   -0.8170 c2        1 14N     -0.133000
     10 C8         -3.1850   -1.3360   -0.8170 c1        1 14N     -0.114000
     11 C9         -3.8260   -0.2690   -0.1730 c1        1 14N     -0.098000
     12 C12        -5.3510   -0.1750   -0.1790 c2        1 14N      0.356000
     13 O2         -6.0410   -0.9350    0.5810 o         1 14N     -0.565500
     14 O1         -5.9300    0.6080   -0.9820 o         1 14N     -0.565500
     15 C10        -3.0750    0.7050    0.4620 c1        1 14N     -0.106000
     16 C11        -1.6760    0.6250    0.4600 c1        1 14N     -0.181000
     17 H1          0.6300    0.4150   -1.9260 h1        1 14N      0.080000
     18 H2          0.5250    1.4040   -0.7080 h1        1 14N      0.080000
     19 H3          2.8000   -0.0940   -1.4290 h1        1 14N      0.066500
     20 H4          2.7100    1.4980   -1.4540 h1        1 14N      0.066500
     21 H6          4.6670    0.7460    1.2440 h1        1 14N      0.063000
     22 H7          4.6030   -0.2070   -0.0410 h1        1 14N      0.063000
     23 H8          4.6540    1.3800   -0.2190 h1        1 14N      0.063000
     24 H9          2.8220   -1.1980    0.8570 h1        1 14N      0.066500
     25 H10         2.7330   -0.2070    2.1190 h1        1 14N      0.066500
     26 H11         0.5260    0.3450    1.6040 h1        1 14N      0.080000
     27 H12         0.6280   -1.2870    1.6150 h1        1 14N      0.080000
     28 H13        -1.3120   -2.1980   -1.2900 ha        1 14N      0.118000
     29 H14        -3.7260   -2.0430   -1.2760 ha        1 14N      0.152000
     30 H16        -3.5310    1.4680    0.9220 ha        1 14N      0.152000
     31 H17        -1.1710    1.3230    0.8190 ha        1 14N      0.108000
@<TRIPOS>BOND
     1    1    2 1   
     2    1    7 1   
     3    1   17 1   
     4    1   18 1   
     5    2    3 1   
     6    2   19 1   
     7    2   20 1   
     8    3    4 1   
     9    3    5 1   
    10    4   21 1   
    11    4   22 1   
    12    4   23 1   
    13    5    6 1   
    14    5   24 1   
    15    5   25 1   
    16    6    7 1   
    17    6   26 1   
    18    6   27 1   
    19    7    8 1   
    20    8    9 1   
    21    8   16 1   
    22    9   10 1   
    23    9   28 1   
    24   10   29 1   
    25   11   12 1   
    26   11   15 1   
    27   12   13 1   
    28   12   14 1   
    29   15   30 1   
    30   16   31 1   
@<TRIPOS>SUBSTRUCTURE
     1 14N         1 TEMP              0 ****  ****    0 ROOT
