@<TRIPOS>MOLECULE
14N
   31    32     1     0     0
SMALL
bcc


@<TRIPOS>ATOM
      1 C3          0.0710    0.0350   -0.0080 c3        1 14N      0.180800
      2 C2          1.6130   -0.0280   -0.0010 c3        1 14N      0.166300
      3 N1          2.1820   -0.0310    1.3390 n3        1 14N     -0.732600
      4 C1          3.6200   -0.1690    1.3220 c3        1 14N      0.160100
      5 C5          1.5460   -1.0020    2.2200 c3        1 14N      0.166300
      6 C4          0.0060   -0.9420    2.1870 c3        1 14N      0.180800
      7 N2         -0.5150   -0.9990    0.8280 nh        1 14N     -0.624000
      8 C6         -1.9400   -1.1140    0.7600 ca        1 14N      0.072600
      9 C7         -2.7640   -0.1290    0.1790 ca        1 14N     -0.179500
     10 C8         -4.1390   -0.3260    0.0830 ca        1 14N     -0.097000
     11 C9         -4.7350   -1.4920    0.5660 ca        1 14N     -0.132600
     12 C12        -6.2390   -1.6940    0.4660 c         1 14N      0.908200
     13 O2         -6.9230   -0.7840   -0.0850 o         1 14N     -0.832800
     14 O1         -6.7260   -2.7590    0.9390 o         1 14N     -0.832800
     15 C10        -3.9220   -2.4700    1.1460 ca        1 14N     -0.097000
     16 C11        -2.5460   -2.2950    1.2440 ca        1 14N     -0.179500
     17 H1         -0.2410    1.0720    0.3120 h1        1 14N      0.041200
     18 H2         -0.2810   -0.1260   -1.0640 h1        1 14N      0.041200
     19 H3          1.9960    0.8890   -0.5300 h1        1 14N      0.028700
     20 H4          1.9410   -0.9310   -0.5940 h1        1 14N      0.028700
     21 H6          4.0550    0.6580    0.7020 h1        1 14N      0.024033
     22 H7          4.0050   -0.0750    2.3710 h1        1 14N      0.024033
     23 H8          3.9730   -1.1510    0.9010 h1        1 14N      0.024033
     24 H9          1.8720   -2.0550    1.9790 h1        1 14N      0.028700
     25 H10         1.8770   -0.7710    3.2720 h1        1 14N      0.028700
     26 H11        -0.3880   -1.8310    2.7530 h1        1 14N      0.041200
     27 H12        -0.3310   -0.0100    2.7260 h1        1 14N      0.041200
     28 H13        -2.3350    0.8060   -0.2080 ha        1 14N      0.109500
     29 H14        -4.7870    0.4390   -0.3760 ha        1 14N      0.151000
     30 H16        -4.4020   -3.3880    1.5230 ha        1 14N      0.151000
     31 H17        -1.9310   -3.0870    1.6960 ha        1 14N      0.109500
@<TRIPOS>BOND
     1    1    2 1   
     2    1    7 1   
     3    1   17 1   
     4    1   18 1   
     5    2    3 1   
     6    2   19 1   
     7    2   20 1   
     8    3    4 1   
     9    3    5 1   
    10    4   21 1   
    11    4   22 1   
    12    4   23 1   
    13    5    6 1   
    14    5   24 1   
    15    5   25 1   
    16    6    7 1   
    17    6   26 1   
    18    6   27 1   
    19    7    8 1   
    20    8    9 ar  
    21    8   16 ar  
    22    9   10 ar  
    23    9   28 1   
    24   10   11 ar  
    25   10   29 1   
    26   11   12 1   
    27   11   15 ar  
    28   12   13 1   
    29   12   14 1   
    30   15   16 ar  
    31   15   30 1   
    32   16   31 1   
@<TRIPOS>SUBSTRUCTURE
     1 14N         1 TEMP              0 ****  ****    0 ROOT
