@<TRIPOS>MOLECULE
14N
   31    32     1     0     0
SMALL
bcc


@<TRIPOS>ATOM
      1 C3         -2.0730    1.2110    0.2310 c3        1 14N      0.180800
      2 C2         -3.5830    1.0700    0.5180 c3        1 14N      0.166300
      3 N1         -4.2450    0.1030   -0.3460 n3        1 14N     -0.732600
      4 C1         -5.6390   -0.0690   -0.0080 c3        1 14N      0.160100
      5 C5         -3.5350   -1.1670   -0.4200 c3        1 14N      0.166300
      6 C4         -2.0240   -1.0100   -0.6850 c3        1 14N      0.180800
      7 N2         -1.4000   -0.0760    0.2410 nh        1 14N     -0.624000
      8 C6          0.0270   -0.0280    0.1370 ca        1 14N      0.072600
      9 C7          0.7300    1.1310   -0.2510 ca        1 14N     -0.179500
     10 C8          2.1230    1.1380   -0.2700 ca        1 14N     -0.097000
     11 C9          2.8530    0.0010    0.0810 ca        1 14N     -0.132600
     12 C12         4.3730    0.0150    0.0460 c         1 14N      0.908200
     13 O2          4.9480    1.0900   -0.2900 o         1 14N     -0.832800
     14 O1          4.9830   -1.0480    0.3550 o         1 14N     -0.832800
     15 C10         2.1600   -1.1510    0.4630 ca        1 14N     -0.097000
     16 C11         0.7700   -1.1740    0.4960 ca        1 14N     -0.179500
     17 H1         -1.9510    1.7510   -0.7530 h1        1 14N      0.041200
     18 H2         -1.6220    1.8500    1.0400 h1        1 14N      0.041200
     19 H3         -3.7210    0.8150    1.6100 h1        1 14N      0.028700
     20 H4         -4.0620    2.0720    0.3360 h1        1 14N      0.028700
     21 H6         -6.1480    0.9290   -0.0560 h1        1 14N      0.024033
     22 H7         -6.1120   -0.7530   -0.7600 h1        1 14N      0.024033
     23 H8         -5.8030   -0.5020    1.0180 h1        1 14N      0.024033
     24 H9         -3.6750   -1.7750    0.5220 h1        1 14N      0.028700
     25 H10        -3.9760   -1.7520   -1.2750 h1        1 14N      0.028700
     26 H11        -1.5420   -2.0180   -0.5500 h1        1 14N      0.041200
     27 H12        -1.8780   -0.6960   -1.7590 h1        1 14N      0.041200
     28 H13         0.1930    2.0450   -0.5390 ha        1 14N      0.109500
     29 H14         2.6770    2.0430   -0.5670 ha        1 14N      0.151000
     30 H16         2.7470   -2.0420    0.7400 ha        1 14N      0.151000
     31 H17         0.2530   -2.0920    0.8110 ha        1 14N      0.109500
@<TRIPOS>BOND
     1    1    2 1   
     2    1    7 1   
     3    1   17 1   
     4    1   18 1   
     5    2    3 1   
     6    2   19 1   
     7    2   20 1   
     8    3    4 1   
     9    3    5 1   
    10    4   21 1   
    11    4   22 1   
    12    4   23 1   
    13    5    6 1   
    14    5   24 1   
    15    5   25 1   
    16    6    7 1   
    17    6   26 1   
    18    6   27 1   
    19    7    8 1   
    20    8    9 ar  
    21    8   16 ar  
    22    9   10 ar  
    23    9   28 1   
    24   10   11 ar  
    25   10   29 1   
    26   11   12 1   
    27   11   15 ar  
    28   12   13 1   
    29   12   14 1   
    30   15   16 ar  
    31   15   30 1   
    32   16   31 1   
@<TRIPOS>SUBSTRUCTURE
     1 14N         1 TEMP              0 ****  ****    0 ROOT
