@<TRIPOS>MOLECULE
14N
   31    32     1     0     0
SMALL
bcc


@<TRIPOS>ATOM
      1 C3          0.0700    0.0430   -0.0020 c3        1 14N      0.180800
      2 C2          1.6110   -0.0190    0.0020 c3        1 14N      0.166300
      3 N1          2.1830   -0.0340    1.3420 n3        1 14N     -0.732600
      4 C1          3.6200   -0.1720    1.3220 c3        1 14N      0.160100
      5 C5          1.5480   -1.0120    2.2160 c3        1 14N      0.166300
      6 C4          0.0070   -0.9530    2.1850 c3        1 14N      0.180800
      7 N2         -0.5150   -0.9980    0.8260 nh        1 14N     -0.624000
      8 C6         -1.9400   -1.1130    0.7590 ca        1 14N      0.072600
      9 C7         -2.7650   -0.1220    0.1880 ca        1 14N     -0.179500
     10 C8         -4.1400   -0.3190    0.0920 ca        1 14N     -0.097000
     11 C9         -4.7350   -1.4890    0.5660 ca        1 14N     -0.132600
     12 C12        -6.2390   -1.6900    0.4660 c         1 14N      0.908200
     13 O2         -6.9240   -0.7750   -0.0740 o         1 14N     -0.832800
     14 O1         -6.7260   -2.7600    0.9300 o         1 14N     -0.832800
     15 C10        -3.9220   -2.4720    1.1360 ca        1 14N     -0.097000
     16 C11        -2.5460   -2.2970    1.2340 ca        1 14N     -0.179500
     17 H1         -0.2830   -0.1100   -1.0590 h1        1 14N      0.041200
     18 H2         -0.2420    1.0770    0.3280 h1        1 14N      0.041200
     19 H3          1.9390   -0.9180   -0.5990 h1        1 14N      0.028700
     20 H4          1.9940    0.9020   -0.5190 h1        1 14N      0.028700
     21 H6          3.9730   -1.1500    0.8930 h1        1 14N      0.024033
     22 H7          4.0060   -0.0860    2.3720 h1        1 14N      0.024033
     23 H8          4.0540    0.6600    0.7080 h1        1 14N      0.024033
     24 H9          1.8740   -2.0640    1.9660 h1        1 14N      0.028700
     25 H10         1.8800   -0.7900    3.2690 h1        1 14N      0.028700
     26 H11        -0.3860   -1.8460    2.7440 h1        1 14N      0.041200
     27 H12        -0.3290   -0.0250    2.7320 h1        1 14N      0.041200
     28 H13        -2.3370    0.8160   -0.1920 ha        1 14N      0.109500
     29 H14        -4.7890    0.4500   -0.3590 ha        1 14N      0.151000
     30 H16        -4.4010   -3.3940    1.5060 ha        1 14N      0.151000
     31 H17        -1.9300   -3.0930    1.6770 ha        1 14N      0.109500
@<TRIPOS>BOND
     1    1    2 1   
     2    1    7 1   
     3    1   17 1   
     4    1   18 1   
     5    2    3 1   
     6    2   19 1   
     7    2   20 1   
     8    3    4 1   
     9    3    5 1   
    10    4   21 1   
    11    4   22 1   
    12    4   23 1   
    13    5    6 1   
    14    5   24 1   
    15    5   25 1   
    16    6    7 1   
    17    6   26 1   
    18    6   27 1   
    19    7    8 1   
    20    8    9 ar  
    21    8   16 ar  
    22    9   10 ar  
    23    9   28 1   
    24   10   11 ar  
    25   10   29 1   
    26   11   12 1   
    27   11   15 ar  
    28   12   13 1   
    29   12   14 1   
    30   15   16 ar  
    31   15   30 1   
    32   16   31 1   
@<TRIPOS>SUBSTRUCTURE
     1 14N         1 TEMP              0 ****  ****    0 ROOT
