@<TRIPOS>MOLECULE
14N
   31    32     1     0     0
SMALL
bcc


@<TRIPOS>ATOM
      1 C3          0.0710    0.0360   -0.0070 c3        1 14N      0.180800
      2 C2          1.6130   -0.0300   -0.0030 c3        1 14N      0.166300
      3 N1          2.1850   -0.0380    1.3370 n3        1 14N     -0.732600
      4 C1          3.6220   -0.1780    1.3170 c3        1 14N      0.160100
      5 C5          1.5480   -1.0100    2.2160 c3        1 14N      0.166300
      6 C4          0.0080   -0.9480    2.1850 c3        1 14N      0.180800
      7 N2         -0.5150   -0.9990    0.8270 nh        1 14N     -0.624000
      8 C6         -1.9410   -1.1110    0.7610 ca        1 14N      0.072600
      9 C7         -2.7630   -0.1220    0.1850 ca        1 14N     -0.179500
     10 C8         -4.1390   -0.3170    0.0900 ca        1 14N     -0.097000
     11 C9         -4.7370   -1.4830    0.5710 ca        1 14N     -0.132600
     12 C12        -6.2410   -1.6810    0.4720 c         1 14N      0.908200
     13 O2         -6.9240   -0.7690   -0.0740 o         1 14N     -0.832800
     14 O1         -6.7300   -2.7470    0.9430 o         1 14N     -0.832800
     15 C10        -3.9250   -2.4650    1.1460 ca        1 14N     -0.097000
     16 C11        -2.5490   -2.2920    1.2430 ca        1 14N     -0.179500
     17 H1         -0.2380    1.0730    0.3170 h1        1 14N      0.041200
     18 H2         -0.2820   -0.1210   -1.0630 h1        1 14N      0.041200
     19 H3          1.9380   -0.9320   -0.5990 h1        1 14N      0.028700
     20 H4          1.9970    0.8880   -0.5290 h1        1 14N      0.028700
     21 H6          4.0580    0.6490    0.6990 h1        1 14N      0.024033
     22 H7          3.9730   -1.1600    0.8930 h1        1 14N      0.024033
     23 H8          4.0090   -0.0890    2.3660 h1        1 14N      0.024033
     24 H9          1.8720   -2.0640    1.9710 h1        1 14N      0.028700
     25 H10         1.8810   -0.7840    3.2680 h1        1 14N      0.028700
     26 H11        -0.3260   -0.0160    2.7270 h1        1 14N      0.041200
     27 H12        -0.3870   -1.8370    2.7490 h1        1 14N      0.041200
     28 H13        -2.3330    0.8130   -0.2000 ha        1 14N      0.109500
     29 H14        -4.7870    0.4510   -0.3650 ha        1 14N      0.151000
     30 H16        -4.4070   -3.3830    1.5210 ha        1 14N      0.151000
     31 H17        -1.9340   -3.0870    1.6900 ha        1 14N      0.109500
@<TRIPOS>BOND
     1    1    2 1   
     2    1    7 1   
     3    1   17 1   
     4    1   18 1   
     5    2    3 1   
     6    2   19 1   
     7    2   20 1   
     8    3    4 1   
     9    3    5 1   
    10    4   21 1   
    11    4   22 1   
    12    4   23 1   
    13    5    6 1   
    14    5   24 1   
    15    5   25 1   
    16    6    7 1   
    17    6   26 1   
    18    6   27 1   
    19    7    8 1   
    20    8    9 ar  
    21    8   16 ar  
    22    9   10 ar  
    23    9   28 1   
    24   10   11 ar  
    25   10   29 1   
    26   11   12 1   
    27   11   15 ar  
    28   12   13 1   
    29   12   14 1   
    30   15   16 ar  
    31   15   30 1   
    32   16   31 1   
@<TRIPOS>SUBSTRUCTURE
     1 14N         1 TEMP              0 ****  ****    0 ROOT
