@<TRIPOS>MOLECULE
14O
   16     9     1     0     0
SMALL
bcc


@<TRIPOS>ATOM
      1 C1          0.0560    0.0010   -1.6500 c1        1 14O     -0.120000
      2 C2          1.4430    0.0010   -1.6500 c1        1 14O     -0.146000
      3 C3          2.1370    0.0010   -0.4480 c1        1 14O      0.059000
      4 C4          1.4440    0.0010    0.7540 c2        1 14O     -0.120000
      5 C5          0.0390    0.0010    0.7540 c1        1 14O     -0.062000
      6 C6         -0.6470    0.0010   -0.4330 c1        1 14O     -0.017000
      7 C8         -2.1440    0.0010    1.2140 c1        1 14O     -0.074000
      8 C9         -0.8840    0.0010    1.7770 c1        1 14O     -0.202000
      9 F10         3.4760   -0.0180   -0.4580 f         1 14O     -0.113000
     10 N7         -2.0000    0.0010   -0.1450 n1        1 14O     -0.215000
     11 H1         -0.4320    0.0010   -2.4960 ha        1 14O      0.137000
     12 H2          1.9310    0.0010   -2.4960 ha        1 14O      0.146000
     13 H4          1.9330    0.0010    1.5990 ha        1 14O      0.151000
     14 H8         -2.9900    0.0010    1.7010 DU        1 14O      0.192000
     15 H9         -0.6820    0.0010    2.7320 DU        1 14O      0.192000
     16 HN7        -2.6780    0.0010   -0.7560 DU        1 14O      0.192000
@<TRIPOS>BOND
     1    1    6 1   
     2    1   11 1   
     3    2    3 1   
     4    2   12 1   
     5    3    4 1   
     6    4    5 1   
     7    4   13 1   
     8    7    8 1   
     9    7   10 1   
@<TRIPOS>SUBSTRUCTURE
     1 14O         1 TEMP              0 ****  ****    0 ROOT
