@<TRIPOS>MOLECULE
14O
   16    17     1     0     0
SMALL
bcc


@<TRIPOS>ATOM
      1 C1          0.1690    1.6640    0.0010 ca        1 14O     -0.120000
      2 C2          1.4790    1.2230    0.0000 ca        1 14O     -0.146000
      3 C3          1.7830   -0.1650   -0.0000 ca        1 14O      0.093900
      4 C4          0.7780   -1.1370   -0.0000 ca        1 14O     -0.120000
      5 C5         -0.5490   -0.7130    0.0000 ca        1 14O     -0.073800
      6 C6         -0.8540    0.7020    0.0010 ca        1 14O     -0.062200
      7 C8         -2.8140   -0.4330    0.0010 cc        1 14O     -0.101100
      8 C9         -1.8170   -1.4050    0.0000 cd        1 14O     -0.190200
      9 F10         3.0870   -0.5450   -0.0010 f         1 14O     -0.147900
     10 N7         -2.2440    0.8430    0.0010 na        1 14O     -0.192400
     11 H1         -0.0630    2.7380    0.0020 ha        1 14O      0.137000
     12 H2          2.3100    1.9440    0.0010 ha        1 14O      0.146000
     13 H4          1.0320   -2.2060   -0.0010 ha        1 14O      0.151000
     14 H8         -3.9000   -0.5530    0.0010 h4        1 14O      0.166000
     15 H9         -1.9550   -2.4820   -0.0000 ha        1 14O      0.160000
     16 HN7        -2.7310    1.6970    0.0020 hn        1 14O      0.299700
@<TRIPOS>BOND
     1    1    2 ar  
     2    1    6 ar  
     3    1   11 1   
     4    2    3 ar  
     5    2   12 1   
     6    3    4 ar  
     7    3    9 1   
     8    4    5 ar  
     9    4   13 1   
    10    5    6 ar  
    11    5    8 1   
    12    6   10 1   
    13    7    8 2   
    14    7   10 1   
    15    7   14 1   
    16    8   15 1   
    17   10   16 1   
@<TRIPOS>SUBSTRUCTURE
     1 14O         1 TEMP              0 ****  ****    0 ROOT
