@<TRIPOS>MOLECULE
14Q
   52    55     1     0     0
SMALL
bcc


@<TRIPOS>ATOM
      1 CAY         1.0420   -1.2680   -0.0470 c3        1 14Q     -0.087100
      2 CAH         2.2450   -0.5420    0.5030 c3        1 14Q     -0.139700
      3 C4          1.9920   -0.0150    1.8920 ca        1 14Q      0.540600
      4 N3          1.8280   -0.9120    2.8830 nb        1 14Q     -0.791000
      5 C2          1.6160   -0.4040    4.1610 ca        1 14Q      0.915900
      6 NAG         1.5580   -1.3210    5.2110 nh        1 14Q     -0.932500
      7 N1          1.5140    0.9350    4.4870 nb        1 14Q     -0.830000
      8 C6          1.6680    1.8270    3.4600 ca        1 14Q      0.741200
      9 NAI         1.5080    3.1720    3.7270 nh        1 14Q     -0.953500
     10 C5          1.9370    1.3860    2.1110 ca        1 14Q     -0.337600
     11 CAJ         2.1250    2.3140    1.0840 cg        1 14Q     -0.084000
     12 CAK         2.2880    3.1190    0.2100 c1        1 14Q     -0.156100
     13 CAL         2.5140    4.0710   -0.8360 c3        1 14Q      0.051000
     14 CAM         1.3360    4.2730   -1.7340 ca        1 14Q     -0.048300
     15 CAR         0.0380    4.3050   -1.2110 ca        1 14Q     -0.141000
     16 CAN         1.5450    4.4650   -3.0990 ca        1 14Q     -0.152000
     17 CAO         0.4380    4.6930   -3.9370 ca        1 14Q      0.126100
     18 OAZ         0.7550    4.8720   -5.2710 os        1 14Q     -0.327900
     19 CBA        -0.3420    5.0650   -6.1560 c3        1 14Q      0.112700
     20 CAP        -0.8610    4.7300   -3.4230 ca        1 14Q     -0.194000
     21 CAQ        -1.0600    4.5320   -2.0490 cp        1 14Q     -0.002000
     22 CAS        -2.4150    4.5600   -1.4950 cp        1 14Q     -0.041000
     23 CAX        -3.3220    5.5460   -1.9520 ca        1 14Q     -0.103000
     24 CAW        -4.5820    5.5240   -1.3960 ca        1 14Q      0.051100
     25 OBB        -5.6600    6.3670   -1.6550 os        1 14Q     -0.335900
     26 CBC        -6.7480    5.9240   -0.8120 c3        1 14Q      0.321200
     27 OBD        -6.2820    4.7900   -0.0440 os        1 14Q     -0.333900
     28 CAV        -4.9610    4.5670   -0.4180 ca        1 14Q      0.058100
     29 CAU        -4.0830    3.6030    0.0320 ca        1 14Q     -0.113000
     30 CAT        -2.7950    3.6220   -0.5300 ca        1 14Q     -0.116000
     31 H1          1.2520   -1.6040   -1.0920 hc        1 14Q      0.040700
     32 H2          0.1490   -0.5980   -0.0650 hc        1 14Q      0.040700
     33 H3          0.8000   -2.1650    0.5710 hc        1 14Q      0.040700
     34 H4          3.1270   -1.2380    0.5300 hc        1 14Q      0.064200
     35 H5          2.5130    0.3130   -0.1740 hc        1 14Q      0.064200
     36 H6          1.4000   -2.2720    4.9730 hn        1 14Q      0.430800
     37 H7          1.1800   -1.0040    6.0720 hn        1 14Q      0.430800
     38 H8          1.8240    3.8100    3.0370 hn        1 14Q      0.434300
     39 H9          1.4800    3.4820    4.6680 hn        1 14Q      0.434300
     40 H10         2.7820    5.0680   -0.3770 hc        1 14Q      0.069200
     41 H11         3.4030    3.7390   -1.4460 hc        1 14Q      0.069200
     42 H12        -0.1160    4.1490   -0.1320 ha        1 14Q      0.145000
     43 H13         2.5540    4.4390   -3.5340 ha        1 14Q      0.150000
     44 H14         0.1480    5.1640   -7.1580 h1        1 14Q      0.045033
     45 H15        -0.8990    5.9980   -5.8970 h1        1 14Q      0.045033
     46 H16        -1.0260    4.1820   -6.1380 h1        1 14Q      0.045033
     47 H17        -1.7270    4.9000   -4.0770 ha        1 14Q      0.142000
     48 H18        -3.0280    6.2920   -2.7010 ha        1 14Q      0.157000
     49 H19        -7.5920    5.5920   -1.4640 h2        1 14Q      0.072200
     50 H20        -7.0100    6.7500   -0.1050 h2        1 14Q      0.072200
     51 H21        -4.3690    2.8610    0.7870 ha        1 14Q      0.157000
     52 H22        -2.0660    2.8640   -0.1990 ha        1 14Q      0.148000
@<TRIPOS>BOND
     1    1    2 1   
     2    1   31 1   
     3    1   32 1   
     4    1   33 1   
     5    2    3 1   
     6    2   34 1   
     7    2   35 1   
     8    3    4 ar  
     9    3   10 ar  
    10    4    5 ar  
    11    5    6 1   
    12    5    7 ar  
    13    6   36 1   
    14    6   37 1   
    15    7    8 ar  
    16    8    9 1   
    17    8   10 ar  
    18    9   38 1   
    19    9   39 1   
    20   10   11 1   
    21   11   12 3   
    22   12   13 1   
    23   13   14 1   
    24   13   40 1   
    25   13   41 1   
    26   14   15 ar  
    27   14   16 ar  
    28   15   21 ar  
    29   15   42 1   
    30   16   17 ar  
    31   16   43 1   
    32   17   18 1   
    33   17   20 ar  
    34   18   19 1   
    35   19   44 1   
    36   19   45 1   
    37   19   46 1   
    38   20   21 ar  
    39   20   47 1   
    40   21   22 1   
    41   22   23 ar  
    42   22   30 ar  
    43   23   24 ar  
    44   23   48 1   
    45   24   25 1   
    46   24   28 ar  
    47   25   26 1   
    48   26   27 1   
    49   26   49 1   
    50   26   50 1   
    51   27   28 1   
    52   28   29 ar  
    53   29   30 ar  
    54   29   51 1   
    55   30   52 1   
@<TRIPOS>SUBSTRUCTURE
     1 14Q         1 TEMP              0 ****  ****    0 ROOT
