@<TRIPOS>MOLECULE
14Q
   54    57     1     0     0
SMALL
bcc


@<TRIPOS>ATOM
      1 CAY        -0.9390   -0.1170    1.5180 c3        1 14Q     -0.101100
      2 CAH         0.1830    0.8870    1.5220 c3        1 14Q     -0.149700
      3 C4          1.4280    0.4650    2.2430 ca        1 14Q      0.535600
      4 N3          1.5150   -0.7330    2.8370 nb        1 14Q     -0.635000
      5 C2          2.7040   -1.0320    3.4790 ca        1 14Q      0.727900
      6 NAG         2.7630   -2.3740    4.1280 n4        1 14Q     -0.813300
      7 N1          3.8040   -0.2470    3.5800 nb        1 14Q     -0.660000
      8 C6          3.6990    0.9770    2.9670 ca        1 14Q      0.458200
      9 NAI         4.8750    1.8640    3.0540 n4        1 14Q     -0.813300
     10 C5          2.5410    1.4070    2.2760 ca        1 14Q     -0.008600
     11 CAJ         2.4500    2.6450    1.6630 cg        1 14Q     -0.361000
     12 CAK         2.2660    3.6990    1.1000 c1        1 14Q      0.177900
     13 CAL         2.0460    4.9510    0.4370 c3        1 14Q     -0.009000
     14 CAM         0.6220    5.0980    0.0020 ca        1 14Q     -0.096300
     15 CAR        -0.3200    5.6130    0.8890 ca        1 14Q     -0.151000
     16 CAN         0.2630    4.7510   -1.3060 ca        1 14Q     -0.206000
     17 CAO        -1.0660    4.9250   -1.7070 ca        1 14Q      0.145100
     18 OAZ        -1.5510    4.5940   -2.9510 os        1 14Q     -0.310900
     19 CBA        -0.5840    4.3500   -3.9700 c3        1 14Q      0.108700
     20 CAP        -2.0310    5.4380   -0.8160 ca        1 14Q     -0.123000
     21 CAQ        -1.6550    5.7870    0.4820 cp        1 14Q      0.022000
     22 CAS        -2.6390    6.3440    1.4090 cp        1 14Q     -0.071000
     23 CAX        -3.5890    7.2730    0.9180 ca        1 14Q     -0.095000
     24 CAW        -4.4920    7.7690    1.8330 ca        1 14Q      0.067100
     25 OBB        -5.5150    8.6830    1.6300 os        1 14Q     -0.321900
     26 CBC        -6.1730    8.8700    2.9080 c3        1 14Q      0.320200
     27 OBD        -5.4960    8.0270    3.8760 os        1 14Q     -0.322900
     28 CAV        -4.4810    7.3710    3.1990 ca        1 14Q      0.084100
     29 CAU        -3.5600    6.4650    3.6830 ca        1 14Q     -0.121000
     30 CAT        -2.6340    5.9600    2.7540 ca        1 14Q     -0.121000
     31 H1         -1.2800   -0.3510    2.5550 hc        1 14Q      0.067367
     32 H2         -0.6340   -1.0670    1.0160 hc        1 14Q      0.067367
     33 H3         -1.8060    0.3110    0.9530 hc        1 14Q      0.067367
     34 H4         -0.1670    1.8490    1.9980 hc        1 14Q      0.106700
     35 H5          0.4810    1.1320    0.4610 hc        1 14Q      0.106700
     36 H6          3.6750   -2.5230    4.5830 hn        1 14Q      0.497467
     37 H7          2.0110   -2.4390    4.8320 hn        1 14Q      0.497467
     38 H8          5.6940    1.4150    2.6170 hn        1 14Q      0.489467
     39 H9          4.6620    2.7450    2.5600 hn        1 14Q      0.489467
     40 H10         2.3220    5.7970    1.1350 hc        1 14Q      0.116700
     41 H11         2.7350    5.0220   -0.4580 hc        1 14Q      0.116700
     42 H12        -0.0250    5.9160    1.9040 ha        1 14Q      0.138000
     43 H13         1.0160    4.3700   -2.0090 ha        1 14Q      0.140000
     44 H14         0.1230    5.2090   -4.0640 h1        1 14Q      0.053700
     45 H15        -1.2090    4.2450   -4.8950 h1        1 14Q      0.053700
     46 H16        -0.0310    3.4030   -3.7590 h1        1 14Q      0.053700
     47 H17        -3.0700    5.5610   -1.1620 ha        1 14Q      0.177000
     48 H18        -3.5960    7.5890   -0.1340 ha        1 14Q      0.167000
     49 H19        -6.0520    9.9370    3.2190 h2        1 14Q      0.089200
     50 H20        -7.2330    8.5260    2.8180 h2        1 14Q      0.089200
     51 H21        -3.5490    6.1550    4.7350 ha        1 14Q      0.160000
     52 H22        -1.8890    5.2320    3.1060 ha        1 14Q      0.118000
     53 HAG3        2.6140   -3.1010    3.4090 hn        1 14Q      0.497467
     54 HAI3        5.0950    2.0690    4.0400 hn        1 14Q      0.489467
@<TRIPOS>BOND
     1    1    2 1   
     2    1   31 1   
     3    1   32 1   
     4    1   33 1   
     5    2    3 1   
     6    2   34 1   
     7    2   35 1   
     8    3    4 ar  
     9    3   10 ar  
    10    4    5 ar  
    11    5    6 1   
    12    5    7 ar  
    13    6   36 1   
    14    6   37 1   
    15    6   53 1   
    16    7    8 ar  
    17    8    9 1   
    18    8   10 ar  
    19    9   38 1   
    20    9   39 1   
    21    9   54 1   
    22   10   11 1   
    23   11   12 3   
    24   12   13 1   
    25   13   14 1   
    26   13   40 1   
    27   13   41 1   
    28   14   15 ar  
    29   14   16 ar  
    30   15   21 ar  
    31   15   42 1   
    32   16   17 ar  
    33   16   43 1   
    34   17   18 1   
    35   17   20 ar  
    36   18   19 1   
    37   19   44 1   
    38   19   45 1   
    39   19   46 1   
    40   20   21 ar  
    41   20   47 1   
    42   21   22 1   
    43   22   23 ar  
    44   22   30 ar  
    45   23   24 ar  
    46   23   48 1   
    47   24   25 1   
    48   24   28 ar  
    49   25   26 1   
    50   26   27 1   
    51   26   49 1   
    52   26   50 1   
    53   27   28 1   
    54   28   29 ar  
    55   29   30 ar  
    56   29   51 1   
    57   30   52 1   
@<TRIPOS>SUBSTRUCTURE
     1 14Q         1 TEMP              0 ****  ****    0 ROOT
