@<TRIPOS>MOLECULE
14Q
   52    45     1     0     0
SMALL
bcc


@<TRIPOS>ATOM
      1 CAY         1.2140    1.0600    5.3280 c3        1 14Q     -0.201000
      2 CAH         1.5520    0.6190    3.9210 c3        1 14Q     -0.122000
      3 C4          2.0910   -0.7910    3.9520 c1        1 14Q      0.117000
      4 N3          2.2220   -1.4330    5.1220 n1        1 14Q     -0.262000
      5 C2          2.6450   -2.7280    5.1460 c1        1 14Q      0.197000
      6 NAG         2.8560   -3.3800    6.3880 n3        1 14Q     -0.329000
      7 N1          2.9370   -3.3720    3.9820 n1        1 14Q     -0.305000
      8 C6          2.8070   -2.7330    2.8100 c1        1 14Q     -0.063750
      9 NAI         3.1300   -3.3970    1.6000 n2        1 14Q     -0.351000
     10 C5          2.3830   -1.4350    2.7840 c1        1 14Q     -0.063750
     11 CAJ         2.3950   -0.6620    1.4760 c1        1 14Q     -0.063750
     12 CAK         2.4040   -0.0510    0.4450 c1        1 14Q     -0.063750
     13 CAL         2.4170    0.7230   -0.8620 c2        1 14Q     -0.007000
     14 CAM         1.2850    0.2410   -1.7480 c2        1 14Q     -0.042000
     15 CAR        -0.0220    0.5960   -1.4510 c2        1 14Q     -0.144000
     16 CAN         1.5720   -0.4080   -2.9410 c1        1 14Q     -0.148000
     17 CAO         0.5520   -0.7000   -3.8340 c1        1 14Q      0.079000
     18 OAZ         0.8490   -1.3210   -5.0600 os        1 14Q     -0.210000
     19 CBA         1.0610   -0.4160   -6.1230 c3        1 14Q     -0.077000
     20 CAP        -0.7540   -0.3440   -3.5360 c1        1 14Q     -0.194000
     21 CAQ        -1.0410    0.3040   -2.3450 c1        1 14Q     -0.003000
     22 CAS        -2.4450    0.7960   -2.0750 c2        1 14Q     -0.040000
     23 CAX        -2.7750    2.1230   -2.3250 c2        1 14Q     -0.100000
     24 CAW        -4.0850    2.5720   -2.1080 c1        1 14Q      0.009000
     25 OBB        -4.7040    3.8400   -2.3100 o         1 14Q     -0.217000
     26 CBC        -6.0390    3.7410   -1.8930 c3        1 14Q      0.099000
     27 OBD        -6.2600    2.4240   -1.4660 os        1 14Q     -0.216000
     28 CAV        -5.0490    1.6940   -1.6460 c2        1 14Q      0.014000
     29 CAU        -4.7150    0.3560   -1.3940 c1        1 14Q     -0.114000
     30 CAT        -3.4160   -0.0880   -1.6090 c1        1 14Q     -0.120000
     31 H1          1.2550    2.0380    5.3820 hc        1 14Q      0.079667
     32 H2          1.8580    0.6710    5.9560 hc        1 14Q      0.079667
     33 H3          0.3110    0.7580    5.5570 hc        1 14Q      0.079667
     34 H4          0.7460    0.6480    3.3680 hc        1 14Q      0.102000
     35 H5          2.2270    1.2180    3.5450 hc        1 14Q      0.102000
     36 H6          2.7470   -2.9200    7.1710 hn        1 14Q      0.225000
     37 H7          3.1340   -4.2510    6.4050 hn        1 14Q      0.225000
     38 H8          2.7600   -3.1180    0.8130 hn        1 14Q      0.232500
     39 H9          3.6910   -4.1200    1.6110 hn        1 14Q      0.232500
     40 H10         2.3030    1.6760   -0.6770 ha        1 14Q      0.106500
     41 H11         3.2710    0.5800   -1.3170 ha        1 14Q      0.106500
     42 H12        -0.2250    1.0520   -0.6120 ha        1 14Q      0.143000
     43 H13         2.4950   -0.6330   -3.1640 ha        1 14Q      0.153000
     44 H14         1.6070   -0.8470   -6.8160 h1        1 14Q      0.084333
     45 H15         1.5280    0.3800   -5.7870 h1        1 14Q      0.084333
     46 H16         0.1970   -0.1510   -6.5050 h1        1 14Q      0.084333
     47 H17        -1.4710   -0.5500   -4.1650 ha        1 14Q      0.142000
     48 H18        -2.1030    2.7340   -2.6820 ha        1 14Q      0.160000
     49 H19        -6.6300    3.9370   -2.6510 h2        1 14Q      0.112500
     50 H20        -6.1880    4.3530   -1.1400 h2        1 14Q      0.112500
     51 H21        -5.3940   -0.2630   -1.0680 ha        1 14Q      0.156000
     52 H22        -3.1870   -1.0230   -1.4500 ha        1 14Q      0.141000
@<TRIPOS>BOND
     1    1    2 1   
     2    1   31 1   
     3    1   32 1   
     4    1   33 1   
     5    2    3 1   
     6    2   34 1   
     7    2   35 1   
     8    3    4 1   
     9    5    6 1   
    10    5    7 1   
    11    6   36 1   
    12    6   37 1   
    13    8   10 1   
    14    9   38 1   
    15    9   39 1   
    16   11   12 1   
    17   13   14 1   
    18   13   40 1   
    19   13   41 1   
    20   14   15 1   
    21   14   16 1   
    22   15   21 1   
    23   15   42 1   
    24   16   43 1   
    25   17   18 1   
    26   17   20 1   
    27   18   19 1   
    28   19   44 1   
    29   19   45 1   
    30   19   46 1   
    31   20   47 1   
    32   21   22 1   
    33   22   23 1   
    34   22   30 1   
    35   23   24 1   
    36   23   48 1   
    37   24   28 1   
    38   25   26 1   
    39   26   27 1   
    40   26   49 1   
    41   26   50 1   
    42   27   28 1   
    43   28   29 1   
    44   29   51 1   
    45   30   52 1   
@<TRIPOS>SUBSTRUCTURE
     1 14Q         1 TEMP              0 ****  ****    0 ROOT
