@<TRIPOS>MOLECULE
14Q
   52    55     1     0     0
SMALL
bcc


@<TRIPOS>ATOM
      1 CAY         5.7400    3.0700    1.0460 c3        1 14Q     -0.087100
      2 CAH         5.1020    1.7740    1.4830 c3        1 14Q     -0.138700
      3 C4          5.2300    0.7070    0.4260 ca        1 14Q      0.538600
      4 N3          6.4600    0.2210    0.1720 nb        1 14Q     -0.793000
      5 C2          6.5530   -0.7750   -0.7950 ca        1 14Q      0.916900
      6 NAG         7.8040   -1.3650   -0.9860 nh        1 14Q     -0.931500
      7 N1          5.5030   -1.2700   -1.5440 nb        1 14Q     -0.832000
      8 C6          4.2640   -0.7510   -1.2760 ca        1 14Q      0.748200
      9 NAI         3.1950   -1.1760   -2.0340 nh        1 14Q     -0.958500
     10 C5          4.0720    0.2540   -0.2550 ca        1 14Q     -0.340600
     11 CAJ         2.7940    0.7440    0.0230 cg        1 14Q     -0.082000
     12 CAK         1.6890    1.1510    0.2530 c1        1 14Q     -0.159100
     13 CAL         0.3770    1.6600    0.5180 c3        1 14Q      0.050000
     14 CAM        -0.6450    0.5890    0.7240 ca        1 14Q     -0.046300
     15 CAR        -1.8740    0.6660    0.0680 ca        1 14Q     -0.152000
     16 CAN        -0.3790   -0.4730    1.5960 ca        1 14Q     -0.193000
     17 CAO        -1.3580   -1.4510    1.7980 ca        1 14Q      0.126100
     18 OAZ        -1.2080   -2.5440    2.6310 os        1 14Q     -0.327900
     19 CBA         0.0320   -2.6420    3.3220 c3        1 14Q      0.112700
     20 CAP        -2.5990   -1.3810    1.1420 ca        1 14Q     -0.146000
     21 CAQ        -2.8540   -0.3170    0.2750 cp        1 14Q     -0.006000
     22 CAS        -4.1410   -0.2280   -0.4180 cp        1 14Q     -0.040000
     23 CAX        -4.7130   -1.4060   -0.9550 ca        1 14Q     -0.100000
     24 CAW        -5.9230   -1.2630   -1.5970 ca        1 14Q      0.053100
     25 OBB        -6.7000   -2.2400   -2.2130 os        1 14Q     -0.333900
     26 CBC        -7.8730   -1.5730   -2.7340 c3        1 14Q      0.321200
     27 OBD        -7.7660   -0.1680   -2.4100 os        1 14Q     -0.333900
     28 CAV        -6.5710   -0.0050   -1.7180 ca        1 14Q      0.059100
     29 CAU        -6.0220    1.1470   -1.1960 ca        1 14Q     -0.114000
     30 CAT        -4.7850    1.0080   -0.5410 ca        1 14Q     -0.119000
     31 H1          5.5900    3.8470    1.8340 hc        1 14Q      0.040700
     32 H2          6.8370    2.9380    0.8820 hc        1 14Q      0.040700
     33 H3          5.2820    3.4370    0.0960 hc        1 14Q      0.040700
     34 H4          5.5880    1.4150    2.4300 hc        1 14Q      0.062200
     35 H5          4.0150    1.9440    1.7070 hc        1 14Q      0.062200
     36 H6          8.5930   -0.8710   -0.6380 hn        1 14Q      0.430300
     37 H7          7.9350   -1.8930   -1.8160 hn        1 14Q      0.430300
     38 H8          2.2860   -0.9200   -1.7350 hn        1 14Q      0.440800
     39 H9          3.2960   -1.9510   -2.6420 hn        1 14Q      0.440800
     40 H10         0.4120    2.3030    1.4470 hc        1 14Q      0.068700
     41 H11         0.0630    2.3290   -0.3340 hc        1 14Q      0.068700
     42 H12        -2.0770    1.4970   -0.6250 ha        1 14Q      0.138000
     43 H13         0.5950   -0.5240    2.1030 ha        1 14Q      0.147000
     44 H14        -0.0800   -3.5800    3.9230 h1        1 14Q      0.046033
     45 H15         0.8790   -2.7350    2.6000 h1        1 14Q      0.046033
     46 H16         0.1830   -1.7600    3.9910 h1        1 14Q      0.046033
     47 H17        -3.3540   -2.1600    1.3250 ha        1 14Q      0.154000
     48 H18        -4.2100   -2.3780   -0.8660 ha        1 14Q      0.161000
     49 H19        -7.8820   -1.6830   -3.8460 h2        1 14Q      0.072700
     50 H20        -8.7760   -1.9900   -2.2240 h2        1 14Q      0.072700
     51 H21        -6.5190    2.1220   -1.2820 ha        1 14Q      0.156000
     52 H22        -4.3180    1.9050   -0.1050 ha        1 14Q      0.142000
@<TRIPOS>BOND
     1    1    2 1   
     2    1   31 1   
     3    1   32 1   
     4    1   33 1   
     5    2    3 1   
     6    2   34 1   
     7    2   35 1   
     8    3    4 ar  
     9    3   10 ar  
    10    4    5 ar  
    11    5    6 1   
    12    5    7 ar  
    13    6   36 1   
    14    6   37 1   
    15    7    8 ar  
    16    8    9 1   
    17    8   10 ar  
    18    9   38 1   
    19    9   39 1   
    20   10   11 1   
    21   11   12 3   
    22   12   13 1   
    23   13   14 1   
    24   13   40 1   
    25   13   41 1   
    26   14   15 ar  
    27   14   16 ar  
    28   15   21 ar  
    29   15   42 1   
    30   16   17 ar  
    31   16   43 1   
    32   17   18 1   
    33   17   20 ar  
    34   18   19 1   
    35   19   44 1   
    36   19   45 1   
    37   19   46 1   
    38   20   21 ar  
    39   20   47 1   
    40   21   22 1   
    41   22   23 ar  
    42   22   30 ar  
    43   23   24 ar  
    44   23   48 1   
    45   24   25 1   
    46   24   28 ar  
    47   25   26 1   
    48   26   27 1   
    49   26   49 1   
    50   26   50 1   
    51   27   28 1   
    52   28   29 ar  
    53   29   30 ar  
    54   29   51 1   
    55   30   52 1   
@<TRIPOS>SUBSTRUCTURE
     1 14Q         1 TEMP              0 ****  ****    0 ROOT
