@<TRIPOS>MOLECULE
14Q
   52    55     1     0     0
SMALL
bcc


@<TRIPOS>ATOM
      1 CAY        -1.0470    0.3140    1.9260 c3        1 14Q     -0.087100
      2 CAH         0.3260    0.2030    1.3100 c3        1 14Q     -0.139700
      3 C4          1.4080    0.5890    2.2850 ca        1 14Q      0.540600
      4 N3          1.6040   -0.2090    3.3520 nb        1 14Q     -0.791000
      5 C2          2.6220    0.1530    4.2290 ca        1 14Q      0.915900
      6 NAG         2.9080   -0.7250    5.2750 nv        1 14Q     -0.932500
      7 N1          3.4120    1.2820    4.1200 nb        1 14Q     -0.830000
      8 C6          3.1830    2.0850    3.0350 ca        1 14Q      0.741200
      9 NAI         3.9030    3.2590    2.9210 nv        1 14Q     -0.952500
     10 C5          2.1770    1.7580    2.0530 ca        1 14Q     -0.337600
     11 CAJ         1.9830    2.5730    0.9350 cg        1 14Q     -0.084000
     12 CAK         1.8270    3.2790   -0.0230 c1        1 14Q     -0.156100
     13 CAL         1.6520    4.0970   -1.1850 c3        1 14Q      0.051000
     14 CAM         0.4770    5.0180   -1.1050 ca        1 14Q     -0.048300
     15 CAR         0.1570    5.6640    0.0950 ca        1 14Q     -0.141000
     16 CAN        -0.2820    5.2560   -2.2500 ca        1 14Q     -0.152000
     17 CAO        -1.3640    6.1520   -2.1820 ca        1 14Q      0.126100
     18 OAZ        -2.0470    6.3180   -3.3730 os        1 14Q     -0.327900
     19 CBA        -3.1730    7.1870   -3.3340 c3        1 14Q      0.112700
     20 CAP        -1.6870    6.8040   -0.9890 ca        1 14Q     -0.194000
     21 CAQ        -0.9200    6.5540    0.1580 cp        1 14Q     -0.002000
     22 CAS        -1.2500    7.2230    1.4170 cp        1 14Q     -0.041000
     23 CAX        -1.6070    8.5930    1.3940 ca        1 14Q     -0.103000
     24 CAW        -1.9080    9.1690    2.6080 ca        1 14Q      0.051100
     25 OBB        -2.2840   10.4820    2.8760 os        1 14Q     -0.335900
     26 CBC        -2.4830   10.5760    4.3050 c3        1 14Q      0.321200
     27 OBD        -2.2150    9.2740    4.8780 os        1 14Q     -0.333900
     28 CAV        -1.8660    8.4370    3.8240 ca        1 14Q      0.058100
     29 CAU        -1.5190    7.1020    3.8550 ca        1 14Q     -0.113000
     30 CAT        -1.2100    6.5080    2.6190 ca        1 14Q     -0.116000
     31 H1         -1.8230    0.0630    1.1620 hc        1 14Q      0.040700
     32 H2         -1.2350    1.3520    2.2920 hc        1 14Q      0.040700
     33 H3         -1.1570   -0.3890    2.7860 hc        1 14Q      0.040700
     34 H4          0.3890    0.8660    0.4060 hc        1 14Q      0.064200
     35 H5          0.5010   -0.8520    0.9660 hc        1 14Q      0.064200
     36 H6          3.4550   -0.3760    6.0260 hn        1 14Q      0.430800
     37 H7          2.2170   -1.4030    5.4970 hn        1 14Q      0.430800
     38 H8          4.6930    3.4040    3.5030 hn        1 14Q      0.434300
     39 H9          3.8820    3.7180    2.0430 hn        1 14Q      0.434300
     40 H10         1.5490    3.4290   -2.0890 hc        1 14Q      0.069200
     41 H11         2.5800    4.7220   -1.3410 hc        1 14Q      0.069200
     42 H12         0.7610    5.4660    0.9940 ha        1 14Q      0.145000
     43 H13        -0.0540    4.7570   -3.2030 ha        1 14Q      0.150000
     44 H14        -3.5670    7.1480   -4.3820 h1        1 14Q      0.045033
     45 H15        -2.8600    8.2260   -3.0700 h1        1 14Q      0.045033
     46 H16        -3.9380    6.8120   -2.6110 h1        1 14Q      0.045033
     47 H17        -2.5370    7.4980   -0.9330 ha        1 14Q      0.142000
     48 H18        -1.6310    9.1620    0.4560 ha        1 14Q      0.157000
     49 H19        -3.5530   10.8370    4.5000 h2        1 14Q      0.072200
     50 H20        -1.7480   11.3070    4.7220 h2        1 14Q      0.072200
     51 H21        -1.4860    6.5300    4.7910 ha        1 14Q      0.157000
     52 H22        -0.9320    5.4420    2.6030 ha        1 14Q      0.148000
@<TRIPOS>BOND
     1    1    2 1   
     2    1   31 1   
     3    1   32 1   
     4    1   33 1   
     5    2    3 1   
     6    2   34 1   
     7    2   35 1   
     8    3    4 ar  
     9    3   10 ar  
    10    4    5 ar  
    11    5    6 1   
    12    5    7 ar  
    13    6   36 1   
    14    6   37 1   
    15    7    8 ar  
    16    8    9 1   
    17    8   10 ar  
    18    9   38 1   
    19    9   39 1   
    20   10   11 1   
    21   11   12 3   
    22   12   13 1   
    23   13   14 1   
    24   13   40 1   
    25   13   41 1   
    26   14   15 ar  
    27   14   16 ar  
    28   15   21 ar  
    29   15   42 1   
    30   16   17 ar  
    31   16   43 1   
    32   17   18 1   
    33   17   20 ar  
    34   18   19 1   
    35   19   44 1   
    36   19   45 1   
    37   19   46 1   
    38   20   21 ar  
    39   20   47 1   
    40   21   22 1   
    41   22   23 ar  
    42   22   30 ar  
    43   23   24 ar  
    44   23   48 1   
    45   24   25 1   
    46   24   28 ar  
    47   25   26 1   
    48   26   27 1   
    49   26   49 1   
    50   26   50 1   
    51   27   28 1   
    52   28   29 ar  
    53   29   30 ar  
    54   29   51 1   
    55   30   52 1   
@<TRIPOS>SUBSTRUCTURE
     1 14Q         1 TEMP              0 ****  ****    0 ROOT
