@<TRIPOS>MOLECULE
14R
   66    72     1     0     0
SMALL
bcc


@<TRIPOS>ATOM
      1 C1         -0.5220    3.8040    2.3310 c3        1 14R     -0.092100
      2 C2          0.0390    2.4330    2.0420 c3        1 14R     -0.115700
      3 C3         -1.0470    1.4620    1.7030 cc        1 14R      0.458800
      4 N1         -2.0190    1.0730    2.5790 nd        1 14R     -0.668000
      5 C4         -2.8160    0.1750    1.8790 cd        1 14R      0.437100
      6 C5         -3.9820   -0.5520    2.2660 cd        1 14R     -0.277800
      7 C6         -4.5590   -1.3720    1.3360 cc        1 14R     -0.016400
      8 N2         -4.0700   -1.5600    0.0480 n         1 14R     -0.340000
      9 C7         -2.9470   -0.8530   -0.4320 c         1 14R      0.733100
     10 O1         -2.5590   -1.0040   -1.6120 o         1 14R     -0.675500
     11 C8         -2.3140    0.0120    0.5480 cc        1 14R     -0.298200
     12 N3         -1.1860    0.8370    0.4440 na        1 14R     -0.163900
     13 C9         -0.3680    0.9810   -0.7340 c3        1 14R      0.082300
     14 C10        -0.2600    2.4390   -1.2770 c3        1 14R     -0.092400
     15 C11         1.2230    2.7240   -1.5360 c3        1 14R     -0.042100
     16 C12         1.9570    1.5170   -1.0580 ca        1 14R     -0.076300
     17 C13         1.0680    0.5350   -0.5700 ca        1 14R     -0.105300
     18 C14         1.5440   -0.6720   -0.0840 ca        1 14R     -0.097000
     19 C15         2.9250   -0.9010   -0.0850 ca        1 14R     -0.143000
     20 C16         3.8120    0.0680   -0.5690 cp        1 14R     -0.061000
     21 C17         3.3240    1.2910   -1.0630 ca        1 14R     -0.103000
     22 C18         5.2540   -0.2050   -0.5990 cp        1 14R     -0.022000
     23 C19         5.7620   -0.9830   -1.6490 ca        1 14R     -0.120000
     24 C20         7.1260   -1.2480   -1.7420 ca        1 14R     -0.109000
     25 C21         8.0020   -0.7380   -0.7850 ca        1 14R     -0.131000
     26 C22         7.5140    0.0310    0.2680 ca        1 14R     -0.083000
     27 C23         6.1400    0.2970    0.3720 ca        1 14R     -0.128500
     28 C24         5.6810    1.0960    1.4980 cc        1 14R      0.447000
     29 N4          4.4310    0.9910    2.1440 na        1 14R     -0.171400
     30 N5          4.4020    1.8800    3.1430 nc        1 14R     -0.199800
     31 N6          5.5300    2.4970    3.1490 nd        1 14R     -0.052000
     32 N7          6.3480    2.0790    2.1900 nd        1 14R     -0.374000
     33 C25        -4.7910   -2.4440   -0.8530 c3        1 14R      0.131300
     34 C26        -5.9740   -1.8140   -1.5280 ca        1 14R     -0.120300
     35 C27        -7.2740   -2.1700   -1.1600 ca        1 14R     -0.111500
     36 C28        -8.3650   -1.6050   -1.8190 ca        1 14R     -0.132500
     37 C29        -8.1610   -0.6800   -2.8430 ca        1 14R     -0.120000
     38 C30        -6.8640   -0.3200   -3.2090 ca        1 14R     -0.132500
     39 C31        -5.7710   -0.8850   -2.5550 ca        1 14R     -0.111500
     40 H5          0.3120    4.5020    2.5900 hc        1 14R      0.045700
     41 H3         -1.0620    4.2100    1.4420 hc        1 14R      0.045700
     42 H4         -1.2350    3.7680    3.1900 hc        1 14R      0.045700
     43 H7          0.7820    2.4910    1.2000 hc        1 14R      0.068200
     44 H6          0.5820    2.0480    2.9490 hc        1 14R      0.068200
     45 H8         -4.3950   -0.4450    3.2760 ha        1 14R      0.166000
     46 H9         -5.4720   -1.9490    1.5740 h4        1 14R      0.154000
     47 H1         -0.8440    0.3340   -1.5390 h1        1 14R      0.128700
     48 H11        -0.8500    2.5170   -2.2220 hc        1 14R      0.064700
     49 H10        -0.6760    3.1820   -0.5510 hc        1 14R      0.064700
     50 H13         1.4120    2.8940   -2.6260 hc        1 14R      0.064700
     51 H12         1.5600    3.6390   -0.9850 hc        1 14R      0.064700
     52 H14         0.8540   -1.4440    0.2900 ha        1 14R      0.153000
     53 H15         3.3150   -1.8630    0.2840 ha        1 14R      0.144000
     54 H16         4.0200    2.0500   -1.4480 ha        1 14R      0.151000
     55 H17         5.0700   -1.3810   -2.4080 ha        1 14R      0.146000
     56 H18         7.5100   -1.8590   -2.5730 ha        1 14R      0.141000
     57 H19         9.0810   -0.9410   -0.8590 ha        1 14R      0.143000
     58 H20         8.2090    0.4340    1.0220 ha        1 14R      0.161000
     59 H2          3.6600    0.4050    1.9080 hn        1 14R      0.342700
     60 H22        -4.0650   -2.7900   -1.6480 h1        1 14R      0.076200
     61 H21        -5.1260   -3.3450   -0.2630 h1        1 14R      0.076200
     62 H23        -7.4390   -2.8980   -0.3520 ha        1 14R      0.141000
     63 H24        -9.3870   -1.8890   -1.5300 ha        1 14R      0.134000
     64 H25        -9.0230   -0.2340   -3.3610 ha        1 14R      0.133000
     65 H26        -6.7020    0.4100   -4.0160 ha        1 14R      0.134000
     66 H27        -4.7400   -0.6090   -2.8370 ha        1 14R      0.141000
@<TRIPOS>BOND
     1    1    2 1   
     2    1   40 1   
     3    1   41 1   
     4    1   42 1   
     5    2    3 1   
     6    2   43 1   
     7    2   44 1   
     8    3    4 2   
     9    3   12 1   
    10    4    5 1   
    11    5    6 1   
    12    5   11 2   
    13    6    7 2   
    14    6   45 1   
    15    7    8 1   
    16    7   46 1   
    17    8    9 1   
    18    8   33 1   
    19    9   10 2   
    20    9   11 1   
    21   11   12 1   
    22   12   13 1   
    23   13   14 1   
    24   13   17 1   
    25   13   47 1   
    26   14   15 1   
    27   14   48 1   
    28   14   49 1   
    29   15   16 1   
    30   15   50 1   
    31   15   51 1   
    32   16   17 ar  
    33   16   21 ar  
    34   17   18 ar  
    35   18   19 ar  
    36   18   52 1   
    37   19   20 ar  
    38   19   53 1   
    39   20   21 ar  
    40   20   22 1   
    41   21   54 1   
    42   22   23 ar  
    43   22   27 ar  
    44   23   24 ar  
    45   23   55 1   
    46   24   25 ar  
    47   24   56 1   
    48   25   26 ar  
    49   25   57 1   
    50   26   27 ar  
    51   26   58 1   
    52   27   28 1   
    53   28   29 1   
    54   28   32 2   
    55   29   30 1   
    56   29   59 1   
    57   30   31 2   
    58   31   32 1   
    59   33   34 1   
    60   33   60 1   
    61   33   61 1   
    62   34   35 ar  
    63   34   39 ar  
    64   35   36 ar  
    65   35   62 1   
    66   36   37 ar  
    67   36   63 1   
    68   37   38 ar  
    69   37   64 1   
    70   38   39 ar  
    71   38   65 1   
    72   39   66 1   
@<TRIPOS>SUBSTRUCTURE
     1 14R         1 TEMP              0 ****  ****    0 ROOT
