@<TRIPOS>MOLECULE
14R
   66    72     1     0     0
SMALL
bcc


@<TRIPOS>ATOM
      1 C1          2.6780    1.0090    0.3210 c3        1 14R     -0.092100
      2 C2          3.8060    0.2490    0.9760 c3        1 14R     -0.115700
      3 C3          3.5720    0.0910    2.4450 cc        1 14R      0.458800
      4 N1          3.5290    1.1350    3.3240 nd        1 14R     -0.668000
      5 C4          3.2970    0.5640    4.5700 cd        1 14R      0.437100
      6 C5          3.1450    1.1510    5.8630 cd        1 14R     -0.277800
      7 C6          2.9150    0.3140    6.9190 cc        1 14R     -0.016400
      8 N2          2.8440   -1.0710    6.8190 n         1 14R     -0.340000
      9 C7          2.9430   -1.7330    5.5760 c         1 14R      0.733100
     10 O1          2.8240   -2.9770    5.5090 o         1 14R     -0.675500
     11 C8          3.2000   -0.8590    4.4450 cc        1 14R     -0.298200
     12 N3          3.3770   -1.1520    3.0860 na        1 14R     -0.163900
     13 C9          3.3540   -2.4730    2.5120 c3        1 14R      0.082300
     14 C10         2.2790   -2.6820    1.4010 c3        1 14R     -0.092400
     15 C11         2.9720   -3.3580    0.2130 c3        1 14R     -0.042100
     16 C12         4.4150   -3.4380    0.5780 ca        1 14R     -0.076300
     17 C13         4.6500   -2.9090    1.8660 ca        1 14R     -0.104300
     18 C14         5.9270   -2.8940    2.4030 ca        1 14R     -0.097000
     19 C15         6.9830   -3.4140    1.6450 ca        1 14R     -0.143000
     20 C16         6.7570   -3.9420    0.3680 cp        1 14R     -0.061000
     21 C17         5.4580   -3.9560   -0.1730 ca        1 14R     -0.103000
     22 C18         7.8690   -4.5190   -0.3970 cp        1 14R     -0.022000
     23 C19         8.2810   -5.8230   -0.0910 ca        1 14R     -0.120000
     24 C20         9.3120   -6.4290   -0.8040 ca        1 14R     -0.109000
     25 C21         9.9460   -5.7380   -1.8360 ca        1 14R     -0.131000
     26 C22         9.5540   -4.4390   -2.1490 ca        1 14R     -0.083000
     27 C23         8.5200   -3.8200   -1.4300 ca        1 14R     -0.128500
     28 C24         8.1580   -2.4570   -1.7900 cc        1 14R      0.447000
     29 N4          7.6590   -1.4670   -0.9180 na        1 14R     -0.171400
     30 N5          7.4710   -0.3460   -1.6240 nc        1 14R     -0.199800
     31 N6          7.8240   -0.5860   -2.8370 nd        1 14R     -0.052000
     32 N7          8.2480   -1.8320   -3.0110 nd        1 14R     -0.374000
     33 C25         2.5720   -1.8470    8.0170 c3        1 14R      0.131300
     34 C26         1.1210   -1.9250    8.3920 ca        1 14R     -0.120300
     35 C27         0.6370   -1.2270    9.5020 ca        1 14R     -0.111500
     36 C28        -0.7060   -1.3360    9.8620 ca        1 14R     -0.132500
     37 C29        -1.5690   -2.1360    9.1130 ca        1 14R     -0.120000
     38 C30        -1.0880   -2.8300    8.0020 ca        1 14R     -0.132500
     39 C31         0.2540   -2.7260    7.6410 ca        1 14R     -0.111500
     40 H5          2.8860    1.1180   -0.7720 hc        1 14R      0.045700
     41 H3          1.7080    0.4690    0.4450 hc        1 14R      0.045700
     42 H4          2.5740    2.0270    0.7670 hc        1 14R      0.045700
     43 H7          3.9220   -0.7590    0.4920 hc        1 14R      0.068200
     44 H6          4.7710    0.8090    0.8330 hc        1 14R      0.068200
     45 H8          3.2070    2.2380    5.9920 ha        1 14R      0.166000
     46 H9          2.7760    0.7120    7.9420 h4        1 14R      0.154000
     47 H1          3.1320   -3.1920    3.3650 h1        1 14R      0.128700
     48 H11         1.4630   -3.3290    1.8050 hc        1 14R      0.064700
     49 H10         1.8220   -1.7120    1.0830 hc        1 14R      0.064700
     50 H13         2.5530   -4.3810    0.0370 hc        1 14R      0.064700
     51 H12         2.8310   -2.7650   -0.7260 hc        1 14R      0.064700
     52 H14         6.1140   -2.4910    3.4090 ha        1 14R      0.153000
     53 H15         8.0000   -3.4230    2.0670 ha        1 14R      0.144000
     54 H16         5.2800   -4.3750   -1.1740 ha        1 14R      0.151000
     55 H17         7.7760   -6.3710    0.7200 ha        1 14R      0.146000
     56 H18         9.6230   -7.4550   -0.5530 ha        1 14R      0.141000
     57 H19        10.7570   -6.2170   -2.4060 ha        1 14R      0.143000
     58 H20        10.0560   -3.8960   -2.9660 ha        1 14R      0.161000
     59 H2          7.4310   -1.5510    0.0490 hn        1 14R      0.342700
     60 H22         3.1600   -1.3950    8.8670 h1        1 14R      0.076200
     61 H21         2.9550   -2.8970    7.8400 h1        1 14R      0.076200
     62 H23         1.3140   -0.5940   10.0940 ha        1 14R      0.141000
     63 H24        -1.0840   -0.7880   10.7380 ha        1 14R      0.134000
     64 H25        -2.6280   -2.2190    9.3980 ha        1 14R      0.133000
     65 H26        -1.7680   -3.4610    7.4110 ha        1 14R      0.134000
     66 H27         0.6450   -3.2710    6.7650 ha        1 14R      0.141000
@<TRIPOS>BOND
     1    1    2 1   
     2    1   40 1   
     3    1   41 1   
     4    1   42 1   
     5    2    3 1   
     6    2   43 1   
     7    2   44 1   
     8    3    4 2   
     9    3   12 1   
    10    4    5 1   
    11    5    6 1   
    12    5   11 2   
    13    6    7 2   
    14    6   45 1   
    15    7    8 1   
    16    7   46 1   
    17    8    9 1   
    18    8   33 1   
    19    9   10 2   
    20    9   11 1   
    21   11   12 1   
    22   12   13 1   
    23   13   14 1   
    24   13   17 1   
    25   13   47 1   
    26   14   15 1   
    27   14   48 1   
    28   14   49 1   
    29   15   16 1   
    30   15   50 1   
    31   15   51 1   
    32   16   17 ar  
    33   16   21 ar  
    34   17   18 ar  
    35   18   19 ar  
    36   18   52 1   
    37   19   20 ar  
    38   19   53 1   
    39   20   21 ar  
    40   20   22 1   
    41   21   54 1   
    42   22   23 ar  
    43   22   27 ar  
    44   23   24 ar  
    45   23   55 1   
    46   24   25 ar  
    47   24   56 1   
    48   25   26 ar  
    49   25   57 1   
    50   26   27 ar  
    51   26   58 1   
    52   27   28 1   
    53   28   29 1   
    54   28   32 2   
    55   29   30 1   
    56   29   59 1   
    57   30   31 2   
    58   31   32 1   
    59   33   34 1   
    60   33   60 1   
    61   33   61 1   
    62   34   35 ar  
    63   34   39 ar  
    64   35   36 ar  
    65   35   62 1   
    66   36   37 ar  
    67   36   63 1   
    68   37   38 ar  
    69   37   64 1   
    70   38   39 ar  
    71   38   65 1   
    72   39   66 1   
@<TRIPOS>SUBSTRUCTURE
     1 14R         1 TEMP              0 ****  ****    0 ROOT
