@<TRIPOS>MOLECULE
14R
   66    72     1     0     0
SMALL
bcc


@<TRIPOS>ATOM
      1 C1          2.7530    1.0540    0.3350 c3        1 14R     -0.092100
      2 C2          3.8630    0.2690    0.9900 c3        1 14R     -0.115700
      3 C3          3.6190    0.1050    2.4570 cc        1 14R      0.458800
      4 N1          3.5920    1.1430    3.3430 nd        1 14R     -0.668000
      5 C4          3.3420    0.5690    4.5840 cd        1 14R      0.437100
      6 C5          3.1940    1.1500    5.8800 cd        1 14R     -0.277800
      7 C6          2.9430    0.3110    6.9300 cc        1 14R     -0.016400
      8 N2          2.8450   -1.0720    6.8190 n         1 14R     -0.340000
      9 C7          2.9370   -1.7270    5.5730 c         1 14R      0.733100
     10 O1          2.7940   -2.9680    5.4970 o         1 14R     -0.675500
     11 C8          3.2180   -0.8510    4.4490 cc        1 14R     -0.298200
     12 N3          3.3950   -1.1380    3.0890 na        1 14R     -0.163900
     13 C9          3.3500   -2.4550    2.5060 c3        1 14R      0.082300
     14 C10         2.2770   -2.6360    1.3880 c3        1 14R     -0.092400
     15 C11         2.9630   -3.3170    0.2000 c3        1 14R     -0.042100
     16 C12         4.4030   -3.4270    0.5710 ca        1 14R     -0.076300
     17 C13         4.6410   -2.9120    1.8640 ca        1 14R     -0.104300
     18 C14         5.9150   -2.9250    2.4070 ca        1 14R     -0.097000
     19 C15         6.9650   -3.4610    1.6510 ca        1 14R     -0.143000
     20 C16         6.7350   -3.9750    0.3700 cp        1 14R     -0.061000
     21 C17         5.4390   -3.9610   -0.1780 ca        1 14R     -0.103000
     22 C18         7.8400   -4.5690   -0.3930 cp        1 14R     -0.022000
     23 C19         8.2250   -5.8830   -0.0930 ca        1 14R     -0.120000
     24 C20         9.2480   -6.5040   -0.8060 ca        1 14R     -0.109000
     25 C21         9.9000   -5.8190   -1.8300 ca        1 14R     -0.131000
     26 C22         9.5340   -4.5110   -2.1370 ca        1 14R     -0.083000
     27 C23         8.5090   -3.8760   -1.4190 ca        1 14R     -0.128500
     28 C24         8.1750   -2.5040   -1.7720 cc        1 14R      0.447000
     29 N4          7.6900   -1.5110   -0.8960 na        1 14R     -0.171400
     30 N5          7.5280   -0.3820   -1.5960 nc        1 14R     -0.199800
     31 N6          7.8820   -0.6210   -2.8080 nd        1 14R     -0.052000
     32 N7          8.2830   -1.8740   -2.9890 nd        1 14R     -0.374000
     33 C25         2.5510   -1.8500    8.0110 c3        1 14R      0.131300
     34 C26         1.0970   -1.9020    8.3770 ca        1 14R     -0.120300
     35 C27         0.6200   -1.2010    9.4880 ca        1 14R     -0.111500
     36 C28        -0.7270   -1.2850    9.8410 ca        1 14R     -0.132500
     37 C29        -1.6010   -2.0640    9.0830 ca        1 14R     -0.120000
     38 C30        -1.1270   -2.7610    7.9710 ca        1 14R     -0.132500
     39 C31         0.2190   -2.6820    7.6170 ca        1 14R     -0.111500
     40 H5          1.7720    0.5320    0.4510 hc        1 14R      0.045700
     41 H3          2.6670    2.0710    0.7870 hc        1 14R      0.045700
     42 H4          2.9690    1.1660   -0.7560 hc        1 14R      0.045700
     43 H7          3.9620   -0.7380    0.5000 hc        1 14R      0.068200
     44 H6          4.8390    0.8100    0.8560 hc        1 14R      0.068200
     45 H8          3.2780    2.2350    6.0160 ha        1 14R      0.166000
     46 H9          2.8070    0.7050    7.9540 h4        1 14R      0.154000
     47 H1          3.1090   -3.1750    3.3530 h1        1 14R      0.128700
     48 H11         1.4460   -3.2690    1.7840 hc        1 14R      0.064700
     49 H10         1.8410   -1.6550    1.0740 hc        1 14R      0.064700
     50 H13         2.8390   -2.7150   -0.7360 hc        1 14R      0.064700
     51 H12         2.5250   -4.3310    0.0140 hc        1 14R      0.064700
     52 H14         6.1040   -2.5320    3.4170 ha        1 14R      0.153000
     53 H15         7.9790   -3.4920    2.0780 ha        1 14R      0.144000
     54 H16         5.2580   -4.3700   -1.1820 ha        1 14R      0.151000
     55 H17         7.7050   -6.4260    0.7110 ha        1 14R      0.146000
     56 H18         9.5380   -7.5370   -0.5600 ha        1 14R      0.141000
     57 H19        10.7040   -6.3100   -2.3990 ha        1 14R      0.143000
     58 H20        10.0510   -3.9720   -2.9480 ha        1 14R      0.161000
     59 H2          7.4550   -1.5970    0.0680 hn        1 14R      0.342700
     60 H22         2.9140   -2.9060    7.8290 h1        1 14R      0.076200
     61 H21         3.1430   -1.4150    8.8670 h1        1 14R      0.076200
     62 H23         1.3060   -0.5850   10.0880 ha        1 14R      0.141000
     63 H24        -1.0990   -0.7350   10.7170 ha        1 14R      0.134000
     64 H25        -2.6630   -2.1280    9.3610 ha        1 14R      0.133000
     65 H26        -1.8160   -3.3750    7.3720 ha        1 14R      0.134000
     66 H27         0.6040   -3.2290    6.7400 ha        1 14R      0.141000
@<TRIPOS>BOND
     1    1    2 1   
     2    1   40 1   
     3    1   41 1   
     4    1   42 1   
     5    2    3 1   
     6    2   43 1   
     7    2   44 1   
     8    3    4 2   
     9    3   12 1   
    10    4    5 1   
    11    5    6 1   
    12    5   11 2   
    13    6    7 2   
    14    6   45 1   
    15    7    8 1   
    16    7   46 1   
    17    8    9 1   
    18    8   33 1   
    19    9   10 2   
    20    9   11 1   
    21   11   12 1   
    22   12   13 1   
    23   13   14 1   
    24   13   17 1   
    25   13   47 1   
    26   14   15 1   
    27   14   48 1   
    28   14   49 1   
    29   15   16 1   
    30   15   50 1   
    31   15   51 1   
    32   16   17 ar  
    33   16   21 ar  
    34   17   18 ar  
    35   18   19 ar  
    36   18   52 1   
    37   19   20 ar  
    38   19   53 1   
    39   20   21 ar  
    40   20   22 1   
    41   21   54 1   
    42   22   23 ar  
    43   22   27 ar  
    44   23   24 ar  
    45   23   55 1   
    46   24   25 ar  
    47   24   56 1   
    48   25   26 ar  
    49   25   57 1   
    50   26   27 ar  
    51   26   58 1   
    52   27   28 1   
    53   28   29 1   
    54   28   32 2   
    55   29   30 1   
    56   29   59 1   
    57   30   31 2   
    58   31   32 1   
    59   33   34 1   
    60   33   60 1   
    61   33   61 1   
    62   34   35 ar  
    63   34   39 ar  
    64   35   36 ar  
    65   35   62 1   
    66   36   37 ar  
    67   36   63 1   
    68   37   38 ar  
    69   37   64 1   
    70   38   39 ar  
    71   38   65 1   
    72   39   66 1   
@<TRIPOS>SUBSTRUCTURE
     1 14R         1 TEMP              0 ****  ****    0 ROOT
