@<TRIPOS>MOLECULE
14R
   66    59     1     0     0
SMALL
bcc


@<TRIPOS>ATOM
      1 C1         -0.9410    1.6850   -4.6030 c3        1 14R     -0.209000
      2 C2          0.0050    1.0350   -3.5900 c3        1 14R     -0.099000
      3 C3         -0.5910    1.1410   -2.2010 c2        1 14R      0.010000
      4 N1         -0.4820    2.4960   -2.0960 n2        1 14R     -0.130000
      5 C4         -0.8600    2.8530   -0.8410 c1        1 14R     -0.095000
      6 C5         -0.8940    4.1880   -0.1370 c1        1 14R     -0.114375
      7 C6         -1.3800    4.2760    1.2770 c1        1 14R     -0.114375
      8 N2         -1.8100    3.0980    1.9560 n2        1 14R     -0.235000
      9 C7         -1.7740    1.8150    1.2780 c1        1 14R      0.370000
     10 O1         -2.1130    0.8090    1.8650 o         1 14R     -0.393000
     11 C8         -1.2050    1.7170   -0.1650 c1        1 14R     -0.095000
     12 N3         -1.0380    0.6600   -1.0080 n2        1 14R     -0.130000
     13 C9         -1.1660   -0.7390   -0.7740 c2        1 14R      0.054000
     14 C10        -1.7860   -1.3820   -1.9340 c3        1 14R     -0.170000
     15 C11        -0.8340   -2.3910   -2.4540 c3        1 14R     -0.126000
     16 C12         0.4680   -2.2820   -1.6270 c1        1 14R     -0.068000
     17 C13         0.2390   -1.3700   -0.5690 c1        1 14R     -0.095000
     18 C14         1.1960   -1.2130    0.4340 c1        1 14R     -0.092000
     19 C15         2.3810   -1.9570    0.3950 c1        1 14R     -0.110000
     20 C16         2.6100   -2.8660   -0.6610 c1        1 14R     -0.040000
     21 C17         1.6530   -3.0250   -1.6660 c2        1 14R     -0.101000
     22 C18         3.9460   -3.6210   -0.7480 c1        1 14R      0.016000
     23 C19         5.0300   -3.0420   -1.3980 c1        1 14R     -0.114375
     24 C20         6.2540   -3.7020   -1.4330 c1        1 14R     -0.114375
     25 C21         6.3940   -4.9420   -0.8160 c1        1 14R     -0.114375
     26 C22         5.3090   -5.5220   -0.1650 c1        1 14R     -0.114375
     27 C23         4.0870   -4.8640   -0.1310 c1        1 14R     -0.028000
     28 C24         2.8860   -5.5020    0.5980 c2        1 14R     -0.011000
     29 N4          2.3780   -6.7270    0.3640 nc        1 14R     -0.152500
     30 N5          1.3990   -6.9510    1.2640 nc        1 14R     -0.039000
     31 N6          1.3040   -5.8660    2.0540 nc        1 14R     -0.039000
     32 N7          2.2230   -4.9690    1.6430 nc        1 14R     -0.152500
     33 C25        -2.2310    3.1720    3.3410 c3        1 14R      0.008000
     34 C26        -3.2320    4.3180    3.5110 c2        1 14R     -0.112000
     35 C27        -2.7840    5.6300    3.5580 c2        1 14R     -0.119000
     36 C28        -3.6950    6.6710    3.7060 c1        1 14R     -0.134000
     37 C29        -5.0550    6.3960    3.8070 c1        1 14R     -0.114375
     38 C30        -5.5030    5.0830    3.7600 c1        1 14R     -0.114375
     39 C31        -4.5940    4.0430    3.6120 c1        1 14R     -0.105000
     40 H5         -1.1500    1.0410   -5.3170 hc        1 14R      0.082667
     41 H3         -1.7700    1.9530   -4.1510 hc        1 14R      0.082667
     42 H4         -0.5090    2.4780   -4.9930 hc        1 14R      0.082667
     43 H7          0.8700    1.4930   -3.6110 hc        1 14R      0.106500
     44 H6          0.1300    0.0910   -3.8200 hc        1 14R      0.106500
     45 H8         -0.5970    4.9990   -0.6060 ha        1 14R      0.143875
     46 H9         -1.4050    5.1410    1.7340 ha        1 14R      0.143875
     47 H1         -1.7160   -0.8930    0.0220 ha        1 14R      0.169000
     48 H11        -1.9490   -0.7090   -2.6240 hc        1 14R      0.101500
     49 H10        -2.6110   -1.8310   -1.6520 hc        1 14R      0.101500
     50 H13        -1.2180   -3.2880   -2.3340 hc        1 14R      0.100500
     51 H12        -0.6380   -2.1950   -3.3920 hc        1 14R      0.100500
     52 H14         1.0370   -0.5810    1.1680 ha        1 14R      0.148000
     53 H15         3.0500   -1.8460    1.0970 ha        1 14R      0.140000
     54 H16         1.8110   -3.6560   -2.3980 ha        1 14R      0.134000
     55 H17         4.9320   -2.1700   -1.8310 ha        1 14R      0.143875
     56 H18         7.0180   -3.2930   -1.8910 ha        1 14R      0.143875
     57 H19         7.2560   -5.4070   -0.8410 ha        1 14R      0.143875
     58 H20         5.4070   -6.3910    0.2660 ha        1 14R      0.143875
     59 H2          2.6480   -7.3030   -0.2890 DU        1 14R      0.283000
     60 H22        -1.4520    3.3330    3.9100 h1        1 14R      0.115500
     61 H21        -2.6560    2.3270    3.5990 h1        1 14R      0.115500
     62 H23        -1.8280    5.8230    3.4870 ha        1 14R      0.127000
     63 H24        -3.3800    7.5960    3.7390 ha        1 14R      0.132000
     64 H25        -5.6960    7.1280    3.9110 ha        1 14R      0.143875
     65 H26        -6.4630    4.8890    3.8310 ha        1 14R      0.143875
     66 H27        -4.9110    3.1160    3.5790 ha        1 14R      0.157000
@<TRIPOS>BOND
     1    1    2 1   
     2    1   40 1   
     3    1   41 1   
     4    1   42 1   
     5    2    3 1   
     6    2   43 1   
     7    2   44 1   
     8    3    4 1   
     9    3   12 1   
    10    4    5 1   
    11    5   11 1   
    12    6    7 1   
    13    6   45 1   
    14    7   46 1   
    15    8    9 1   
    16    8   33 1   
    17    9   10 1   
    18   11   12 1   
    19   13   14 1   
    20   13   17 1   
    21   13   47 1   
    22   14   15 1   
    23   14   48 1   
    24   14   49 1   
    25   15   16 1   
    26   15   50 1   
    27   15   51 1   
    28   16   21 1   
    29   17   18 1   
    30   18   52 1   
    31   19   20 1   
    32   19   53 1   
    33   20   21 1   
    34   21   54 1   
    35   22   27 1   
    36   23   24 1   
    37   23   55 1   
    38   24   56 1   
    39   25   26 1   
    40   25   57 1   
    41   26   58 1   
    42   27   28 1   
    43   28   29 1   
    44   28   32 1   
    45   29   30 1   
    46   30   31 1   
    47   31   32 1   
    48   33   34 1   
    49   33   60 1   
    50   33   61 1   
    51   34   35 1   
    52   34   39 1   
    53   35   36 1   
    54   35   62 1   
    55   36   63 1   
    56   37   38 1   
    57   37   64 1   
    58   38   65 1   
    59   39   66 1   
@<TRIPOS>SUBSTRUCTURE
     1 14R         1 TEMP              0 ****  ****    0 ROOT
