@<TRIPOS>MOLECULE
14R
   66    72     1     0     0
SMALL
bcc


@<TRIPOS>ATOM
      1 C1          2.7340    1.0610    0.3540 c3        1 14R     -0.092100
      2 C2          3.8480    0.2770    1.0040 c3        1 14R     -0.115700
      3 C3          3.6070    0.1030    2.4700 cc        1 14R      0.458800
      4 N1          3.5760    1.1370    3.3620 nd        1 14R     -0.668000
      5 C4          3.3300    0.5540    4.6010 cd        1 14R      0.437100
      6 C5          3.1820    1.1270    5.9000 cd        1 14R     -0.277800
      7 C6          2.9370    0.2800    6.9450 cc        1 14R     -0.016400
      8 N2          2.8450   -1.1020    6.8270 n         1 14R     -0.340000
      9 C7          2.9380   -1.7490    5.5760 c         1 14R      0.733100
     10 O1          2.8000   -2.9910    5.4930 o         1 14R     -0.675500
     11 C8          3.2130   -0.8650    4.4570 cc        1 14R     -0.298200
     12 N3          3.3900   -1.1440    3.0950 na        1 14R     -0.163900
     13 C9          3.3500   -2.4580    2.5050 c3        1 14R      0.082300
     14 C10         2.2770   -2.6370    1.3870 c3        1 14R     -0.092400
     15 C11         2.9650   -3.3070    0.1930 c3        1 14R     -0.042100
     16 C12         4.4050   -3.4130    0.5630 ca        1 14R     -0.076300
     17 C13         4.6420   -2.9040    1.8580 ca        1 14R     -0.105300
     18 C14         5.9170   -2.9160    2.4000 ca        1 14R     -0.097000
     19 C15         6.9680   -3.4420    1.6400 ca        1 14R     -0.143000
     20 C16         6.7400   -3.9490    0.3550 cp        1 14R     -0.061000
     21 C17         5.4430   -3.9370   -0.1910 ca        1 14R     -0.103000
     22 C18         7.8460   -4.5330   -0.4120 cp        1 14R     -0.022000
     23 C19         8.2360   -5.8480   -0.1220 ca        1 14R     -0.120000
     24 C20         9.2620   -6.4600   -0.8400 ca        1 14R     -0.109000
     25 C21         9.9110   -5.7650   -1.8590 ca        1 14R     -0.131000
     26 C22         9.5400   -4.4550   -2.1560 ca        1 14R     -0.083000
     27 C23         8.5130   -3.8300   -1.4330 ca        1 14R     -0.128500
     28 C24         8.1730   -2.4570   -1.7760 cc        1 14R      0.447000
     29 N4          7.6850   -1.4710   -0.8930 na        1 14R     -0.171400
     30 N5          7.5180   -0.3380   -1.5850 nc        1 14R     -0.199800
     31 N6          7.8720   -0.5670   -2.7990 nd        1 14R     -0.052000
     32 N7          8.2770   -1.8180   -2.9890 nd        1 14R     -0.374000
     33 C25         2.5570   -1.8890    8.0140 c3        1 14R      0.131300
     34 C26         1.1030   -1.9490    8.3830 ca        1 14R     -0.120300
     35 C27         0.6260   -1.2580    9.5010 ca        1 14R     -0.111500
     36 C28        -0.7190   -1.3500    9.8560 ca        1 14R     -0.132500
     37 C29        -1.5920   -2.1260    9.0940 ca        1 14R     -0.120000
     38 C30        -1.1190   -2.8130    7.9750 ca        1 14R     -0.132500
     39 C31         0.2260   -2.7270    7.6190 ca        1 14R     -0.111500
     40 H5          2.6430    2.0750    0.8130 hc        1 14R      0.045700
     41 H3          1.7560    0.5340    0.4690 hc        1 14R      0.045700
     42 H4          2.9480    1.1810   -0.7350 hc        1 14R      0.045700
     43 H7          3.9520   -0.7260    0.5080 hc        1 14R      0.068200
     44 H6          4.8220    0.8240    0.8720 hc        1 14R      0.068200
     45 H8          3.2610    2.2110    6.0430 ha        1 14R      0.166000
     46 H9          2.8000    0.6680    7.9720 h4        1 14R      0.154000
     47 H1          3.1130   -3.1840    3.3470 h1        1 14R      0.128700
     48 H11         1.4500   -3.2770    1.7790 hc        1 14R      0.064700
     49 H10         1.8350   -1.6560    1.0790 hc        1 14R      0.064700
     50 H13         2.5310   -4.3220    0.0020 hc        1 14R      0.064700
     51 H12         2.8360   -2.7000   -0.7390 hc        1 14R      0.064700
     52 H14         6.1050   -2.5280    3.4130 ha        1 14R      0.153000
     53 H15         7.9830   -3.4710    2.0650 ha        1 14R      0.144000
     54 H16         5.2620   -4.3410   -1.1980 ha        1 14R      0.151000
     55 H17         7.7200   -6.3980    0.6790 ha        1 14R      0.146000
     56 H18         9.5560   -7.4930   -0.6010 ha        1 14R      0.141000
     57 H19        10.7170   -6.2480   -2.4320 ha        1 14R      0.143000
     58 H20        10.0540   -3.9090   -2.9640 ha        1 14R      0.161000
     59 H2          7.4510   -1.5650    0.0710 hn        1 14R      0.342700
     60 H22         2.9240   -2.9420    7.8250 h1        1 14R      0.076200
     61 H21         3.1490   -1.4570    8.8710 h1        1 14R      0.076200
     62 H23         1.3120   -0.6440   10.1040 ha        1 14R      0.141000
     63 H24        -1.0910   -0.8080   10.7370 ha        1 14R      0.134000
     64 H25        -2.6530   -2.1970    9.3740 ha        1 14R      0.133000
     65 H26        -1.8060   -3.4250    7.3730 ha        1 14R      0.134000
     66 H27         0.6120   -3.2660    6.7370 ha        1 14R      0.141000
@<TRIPOS>BOND
     1    1    2 1   
     2    1   40 1   
     3    1   41 1   
     4    1   42 1   
     5    2    3 1   
     6    2   43 1   
     7    2   44 1   
     8    3    4 2   
     9    3   12 1   
    10    4    5 1   
    11    5    6 1   
    12    5   11 2   
    13    6    7 2   
    14    6   45 1   
    15    7    8 1   
    16    7   46 1   
    17    8    9 1   
    18    8   33 1   
    19    9   10 2   
    20    9   11 1   
    21   11   12 1   
    22   12   13 1   
    23   13   14 1   
    24   13   17 1   
    25   13   47 1   
    26   14   15 1   
    27   14   48 1   
    28   14   49 1   
    29   15   16 1   
    30   15   50 1   
    31   15   51 1   
    32   16   17 ar  
    33   16   21 ar  
    34   17   18 ar  
    35   18   19 ar  
    36   18   52 1   
    37   19   20 ar  
    38   19   53 1   
    39   20   21 ar  
    40   20   22 1   
    41   21   54 1   
    42   22   23 ar  
    43   22   27 ar  
    44   23   24 ar  
    45   23   55 1   
    46   24   25 ar  
    47   24   56 1   
    48   25   26 ar  
    49   25   57 1   
    50   26   27 ar  
    51   26   58 1   
    52   27   28 1   
    53   28   29 1   
    54   28   32 2   
    55   29   30 1   
    56   29   59 1   
    57   30   31 2   
    58   31   32 1   
    59   33   34 1   
    60   33   60 1   
    61   33   61 1   
    62   34   35 ar  
    63   34   39 ar  
    64   35   36 ar  
    65   35   62 1   
    66   36   37 ar  
    67   36   63 1   
    68   37   38 ar  
    69   37   64 1   
    70   38   39 ar  
    71   38   65 1   
    72   39   66 1   
@<TRIPOS>SUBSTRUCTURE
     1 14R         1 TEMP              0 ****  ****    0 ROOT
