@<TRIPOS>MOLECULE
14S
   68    71     1     0     0
SMALL
bcc


@<TRIPOS>ATOM
      1 O33        -7.9200    0.6590   -1.9840 o         1 14S     -0.619500
      2 C28        -8.0650    1.3130   -0.9410 c         1 14S      0.694500
      3 C32        -8.8630    2.6040   -0.8020 c3        1 14S     -0.160400
      4 C34        -8.6970    3.0350    0.6520 c3        1 14S     -0.093400
      5 C29        -7.8120    1.9550    1.3130 c3        1 14S      0.086000
      6 N24        -7.5460    0.9480    0.3040 n         1 14S     -0.482800
      7 C21        -6.5690   -0.0770    0.5070 c3        1 14S      0.107000
      8 C19        -5.1110    0.3910    0.5130 c3        1 14S     -0.132400
      9 C15        -4.2120   -0.8110    0.8150 c3        1 14S      0.092000
     10 N10        -2.8160   -0.4860    0.8900 n         1 14S     -0.570900
     11 C6         -1.8560   -1.1220    0.1240 c         1 14S      0.707700
     12 O11        -2.1700   -2.0940   -0.6010 o         1 14S     -0.640100
     13 C2         -0.4730   -0.6180    0.2280 ca        1 14S     -0.509200
     14 C1          0.6700   -1.5010    0.2240 ca        1 14S      0.771200
     15 N4          0.4790   -2.8710    0.2250 nh        1 14S     -0.838900
     16 C8          1.5670   -3.8100    0.0720 c3        1 14S      0.216500
     17 C14         2.1790   -3.8940   -1.3450 c3        1 14S     -0.095900
     18 C18         2.6860   -5.3180   -1.5070 c3        1 14S     -0.078900
     19 C17         2.0560   -6.1630   -0.4060 c3        1 14S     -0.078900
     20 C13         1.1450   -5.2590    0.4090 c3        1 14S     -0.095900
     21 C5         -0.2010    0.7600    0.2920 ca        1 14S      0.513200
     22 N9          1.0200    1.2910    0.3730 nb        1 14S     -0.787000
     23 C7          2.0800    0.3780    0.3950 ca        1 14S      0.918900
     24 N3          1.9430   -0.9930    0.2840 nb        1 14S     -0.829000
     25 N12         3.3780    0.8590    0.6030 nh        1 14S     -0.815900
     26 C16         3.6730    2.2550    0.3570 c3        1 14S      0.263100
     27 C20         5.1290    2.5700    0.5300 ca        1 14S     -0.129300
     28 C23         5.5450    3.4480    1.5310 ca        1 14S     -0.081000
     29 C27         6.8910    3.7880    1.6690 ca        1 14S     -0.163000
     30 C30         7.8390    3.2430    0.8060 ca        1 14S     -0.089000
     31 C25         7.4530    2.3560   -0.1980 ca        1 14S     -0.202000
     32 C22         6.1010    2.0180   -0.3330 ca        1 14S      0.128100
     33 O26         5.6180    1.1370   -1.2830 os        1 14S     -0.337900
     34 C31         6.5560    0.6660   -2.2430 c3        1 14S      0.114700
     35 H1         -8.4580    3.3630   -1.5150 hc        1 14S      0.081200
     36 H2         -9.9320    2.4080   -1.0620 hc        1 14S      0.081200
     37 H3         -8.2050    4.0350    0.7240 hc        1 14S      0.056200
     38 H4         -9.6840    3.0970    1.1700 hc        1 14S      0.056200
     39 H5         -6.8540    2.4030    1.6940 h1        1 14S      0.043200
     40 H6         -8.3440    1.4780    2.1820 h1        1 14S      0.043200
     41 H7         -6.7920   -0.5760    1.4940 h1        1 14S      0.063200
     42 H8         -6.7000   -0.8390   -0.3170 h1        1 14S      0.063200
     43 H9         -4.8470    0.8290   -0.4850 hc        1 14S      0.049700
     44 H10        -4.9620    1.1890    1.2850 hc        1 14S      0.049700
     45 H11        -4.5270   -1.2550    1.8050 h1        1 14S      0.061700
     46 H12        -4.3630   -1.5970    0.0180 h1        1 14S      0.061700
     47 H13        -2.5550    0.2850    1.4530 hn        1 14S      0.308500
     48 H14        -0.4120   -3.1820   -0.1120 hn        1 14S      0.456800
     49 H15         2.3860   -3.5110    0.7910 h1        1 14S      0.078700
     50 H16         1.4130   -3.6650   -2.1270 hc        1 14S      0.052450
     51 H17         3.0060   -3.1500   -1.4510 hc        1 14S      0.052450
     52 H18         2.4160   -5.7180   -2.5160 hc        1 14S      0.042700
     53 H19         3.8020   -5.3480   -1.4270 hc        1 14S      0.042700
     54 H20         1.4750   -7.0140   -0.8410 hc        1 14S      0.042700
     55 H21         2.8510   -6.6040    0.2470 hc        1 14S      0.042700
     56 H22         1.2530   -5.4470    1.5040 hc        1 14S      0.052450
     57 H23         0.0750   -5.4470    0.1380 hc        1 14S      0.052450
     58 H24        -1.0220    1.5020    0.2540 h4        1 14S      0.019100
     59 H25         4.1170    0.2250    0.3700 hn        1 14S      0.441800
     60 H26         3.3740    2.5480   -0.6940 h1        1 14S      0.063700
     61 H27         3.0630    2.8760    1.0760 h1        1 14S      0.063700
     62 H28         4.7990    3.8780    2.2180 ha        1 14S      0.140000
     63 H29         7.2010    4.4850    2.4600 ha        1 14S      0.137000
     64 H30         8.9010    3.5100    0.9140 ha        1 14S      0.134000
     65 H31         8.2110    1.9310   -0.8700 ha        1 14S      0.139000
     66 H32         7.0160    1.5180   -2.8000 h1        1 14S      0.047367
     67 H33         7.3450    0.0470   -1.7490 h1        1 14S      0.047367
     68 H34         5.9310    0.0360   -2.9270 h1        1 14S      0.047367
@<TRIPOS>BOND
     1    1    2 2   
     2    2    3 1   
     3    2    6 1   
     4    3    4 1   
     5    3   35 1   
     6    3   36 1   
     7    4    5 1   
     8    4   37 1   
     9    4   38 1   
    10    5    6 1   
    11    5   39 1   
    12    5   40 1   
    13    6    7 1   
    14    7    8 1   
    15    7   41 1   
    16    7   42 1   
    17    8    9 1   
    18    8   43 1   
    19    8   44 1   
    20    9   10 1   
    21    9   45 1   
    22    9   46 1   
    23   10   11 1   
    24   10   47 1   
    25   11   12 2   
    26   11   13 1   
    27   13   14 ar  
    28   13   21 ar  
    29   14   15 1   
    30   14   24 ar  
    31   15   16 1   
    32   15   48 1   
    33   16   17 1   
    34   16   20 1   
    35   16   49 1   
    36   17   18 1   
    37   17   50 1   
    38   17   51 1   
    39   18   19 1   
    40   18   52 1   
    41   18   53 1   
    42   19   20 1   
    43   19   54 1   
    44   19   55 1   
    45   20   56 1   
    46   20   57 1   
    47   21   22 ar  
    48   21   58 1   
    49   22   23 ar  
    50   23   24 ar  
    51   23   25 1   
    52   25   26 1   
    53   25   59 1   
    54   26   27 1   
    55   26   60 1   
    56   26   61 1   
    57   27   28 ar  
    58   27   32 ar  
    59   28   29 ar  
    60   28   62 1   
    61   29   30 ar  
    62   29   63 1   
    63   30   31 ar  
    64   30   64 1   
    65   31   32 ar  
    66   31   65 1   
    67   32   33 1   
    68   33   34 1   
    69   34   66 1   
    70   34   67 1   
    71   34   68 1   
@<TRIPOS>SUBSTRUCTURE
     1 14S         1 TEMP              0 ****  ****    0 ROOT
