@<TRIPOS>MOLECULE
14S
   68    63     1     0     0
SMALL
bcc


@<TRIPOS>ATOM
      1 O33         3.5890   -1.5180    7.2420 o         1 14S     -0.349000
      2 C28         4.4990   -1.8950    6.4660 c1        1 14S      0.301000
      3 C32         5.6910   -2.2050    6.8000 c3        1 14S     -0.189000
      4 C34         6.4770   -2.3220    5.3190 c3        1 14S     -0.172000
      5 C29         5.6940   -2.8480    4.5410 c3        1 14S     -0.033000
      6 N24         4.2990   -2.4950    5.0550 n2        1 14S     -0.335000
      7 C21         2.9610   -2.9540    4.4460 c3        1 14S     -0.011000
      8 C19         2.2730   -1.8000    3.8370 c3        1 14S     -0.218000
      9 C15         0.9460   -2.2820    3.1860 c3        1 14S     -0.028000
     10 N10         0.4590   -1.2620    2.2420 n3        1 14S     -0.370000
     11 C6         -0.8390   -1.4370    1.5830 c1        1 14S      0.376000
     12 O11        -1.5260   -2.4600    1.8130 o         1 14S     -0.402000
     13 C2         -1.3490   -0.3740    0.5980 c1        1 14S     -0.361000
     14 C1         -1.7030   -0.7480   -0.7360 c1        1 14S      0.247000
     15 N4         -1.6650   -2.1150   -1.1260 n3        1 14S     -0.283000
     16 C8         -1.3840   -2.4320   -2.3620 c3        1 14S      0.017000
     17 C14        -2.5630   -3.3520   -2.9910 c3        1 14S     -0.174500
     18 C18        -1.9130   -4.4260   -3.5540 c3        1 14S     -0.157500
     19 C17        -0.4990   -4.6050   -2.7110 c3        1 14S     -0.157500
     20 C13        -0.0620   -3.3290   -2.4150 c3        1 14S     -0.174500
     21 C5         -1.4060    0.9500    0.9830 c1        1 14S      0.052000
     22 N9         -1.7870    1.8720    0.1220 n1        1 14S     -0.259000
     23 C7         -2.1360    1.5080   -1.1920 c1        1 14S      0.201000
     24 N3         -2.0790    0.1610   -1.5870 n2        1 14S     -0.303000
     25 N12        -2.5780    2.5270   -2.1380 n2        1 14S     -0.260000
     26 C16        -2.1740    3.8850   -1.9650 c3        1 14S      0.019000
     27 C20        -2.3440    4.6390   -3.2800 c2        1 14S     -0.122000
     28 C23        -1.8880    4.0610   -4.4860 c2        1 14S     -0.080000
     29 C27        -2.0660    4.7230   -5.6810 c1        1 14S     -0.163000
     30 C30        -2.7020    5.9760   -5.7020 c1        1 14S     -0.145500
     31 C25        -3.1520    6.5470   -4.5110 c1        1 14S     -0.145500
     32 C22        -2.9680    5.8670   -3.2950 c1        1 14S      0.083000
     33 O26        -3.3820    6.4690   -2.0650 o         1 14S     -0.221000
     34 C31        -3.1050    7.8270   -1.9750 c3        1 14S     -0.075000
     35 H1          6.1380   -1.5590    7.3540 hc        1 14S      0.120000
     36 H2          5.7240   -3.0500    7.3760 hc        1 14S      0.120000
     37 H3          6.7260   -1.4190    4.9950 hc        1 14S      0.095000
     38 H4          7.3080   -2.8990    5.4150 hc        1 14S      0.095000
     39 H5          5.8220   -2.4860    3.6350 h1        1 14S      0.086000
     40 H6          5.8250   -3.8650    4.5380 h1        1 14S      0.086000
     41 H7          3.1450   -3.7000    3.6910 h1        1 14S      0.102000
     42 H8          2.4210   -3.3170    5.1210 h1        1 14S      0.102000
     43 H9          2.0750   -1.1280    4.5370 hc        1 14S      0.091000
     44 H10         2.8240   -1.4190    3.1820 hc        1 14S      0.091000
     45 H11         1.0920   -3.0470    2.7500 h1        1 14S      0.103500
     46 H12         0.2680   -2.4310    3.8890 h1        1 14S      0.103500
     47 H13         0.8760   -0.5020    2.1760 hn        1 14S      0.221000
     48 H14        -1.7540   -2.8200   -0.4480 hn        1 14S      0.249000
     49 H15        -1.2660   -1.6450   -2.8840 h1        1 14S      0.119000
     50 H16        -3.1680   -3.6510   -2.2970 hc        1 14S      0.091000
     51 H17        -3.0760   -2.8330   -3.7110 hc        1 14S      0.091000
     52 H18        -1.7110   -4.2340   -4.5720 hc        1 14S      0.081500
     53 H19        -2.4900   -5.2760   -3.4580 hc        1 14S      0.081500
     54 H20        -0.6550   -5.0830   -1.9210 hc        1 14S      0.081500
     55 H21         0.1960   -5.0890   -3.2860 hc        1 14S      0.081500
     56 H22         0.4120   -3.3190   -1.5040 hc        1 14S      0.091000
     57 H23         0.5490   -3.0020   -3.1270 hc        1 14S      0.091000
     58 H24        -1.1580    1.2080    1.9070 ha        1 14S      0.163000
     59 H25        -3.0270    2.2980   -2.8420 hn        1 14S      0.238000
     60 H26        -1.2530    3.9140   -1.6990 h1        1 14S      0.103500
     61 H27        -2.7400    4.3160   -1.2570 h1        1 14S      0.103500
     62 H28        -1.4620    3.2170   -4.4740 ha        1 14S      0.141000
     63 H29        -1.7270    4.2940   -6.5670 ha        1 14S      0.137000
     64 H30        -2.8310    6.4520   -6.5570 ha        1 14S      0.137000
     65 H31        -3.6390    7.5080   -4.5240 ha        1 14S      0.137000
     66 H32        -3.1490    8.0920   -1.0850 h1        1 14S      0.086667
     67 H33        -2.1770    8.0080   -2.3340 h1        1 14S      0.086667
     68 H34        -3.7380    8.3120   -2.4790 h1        1 14S      0.086667
@<TRIPOS>BOND
     1    1    2 1   
     2    2    3 1   
     3    3    4 1   
     4    3   35 1   
     5    3   36 1   
     6    4    5 1   
     7    4   37 1   
     8    4   38 1   
     9    5    6 1   
    10    5   39 1   
    11    5   40 1   
    12    6    7 1   
    13    7    8 1   
    14    7   41 1   
    15    7   42 1   
    16    8    9 1   
    17    8   43 1   
    18    8   44 1   
    19    9   10 1   
    20    9   45 1   
    21    9   46 1   
    22   10   11 1   
    23   10   47 1   
    24   11   12 1   
    25   13   21 1   
    26   14   15 1   
    27   14   24 1   
    28   15   16 1   
    29   15   48 1   
    30   16   17 1   
    31   16   20 1   
    32   16   49 1   
    33   17   18 1   
    34   17   50 1   
    35   17   51 1   
    36   18   19 1   
    37   18   52 1   
    38   18   53 1   
    39   19   20 1   
    40   19   54 1   
    41   19   55 1   
    42   20   56 1   
    43   20   57 1   
    44   21   58 1   
    45   22   23 1   
    46   23   24 1   
    47   25   26 1   
    48   25   59 1   
    49   26   27 1   
    50   26   60 1   
    51   26   61 1   
    52   27   28 1   
    53   27   32 1   
    54   28   29 1   
    55   28   62 1   
    56   29   63 1   
    57   30   31 1   
    58   30   64 1   
    59   31   65 1   
    60   33   34 1   
    61   34   66 1   
    62   34   67 1   
    63   34   68 1   
@<TRIPOS>SUBSTRUCTURE
     1 14S         1 TEMP              0 ****  ****    0 ROOT
