@<TRIPOS>MOLECULE
14S
   71    74     1     0     0
SMALL
bcc


@<TRIPOS>ATOM
      1 O33         0.0250   -1.4470   -0.8290 oh        1 14S     -0.482600
      2 C28         1.1150   -0.7540   -0.5060 c2        1 14S      0.557600
      3 C32         1.6070   -0.8430    0.9280 c3        1 14S     -0.144700
      4 C34         2.8480    0.0520    0.9430 c3        1 14S     -0.108400
      5 C29         3.0020    0.5960   -0.4940 c3        1 14S      0.005300
      6 N24         1.8780    0.0390   -1.2790 nh        1 14S     -0.240100
      7 C21         1.7570    0.3000   -2.6950 c3        1 14S      0.011300
      8 C19         1.2190    1.6920   -3.0470 c3        1 14S     -0.122400
      9 C15         1.2880    1.8560   -4.5710 c3        1 14S      0.081000
     10 N10         0.8560    3.1530   -5.0440 n         1 14S     -0.526900
     11 C6         -0.1640    3.2930   -5.9440 c         1 14S      0.678700
     12 O11        -0.8170    2.3080   -6.3580 o         1 14S     -0.610100
     13 C2         -0.5080    4.6630   -6.4520 ca        1 14S     -0.312200
     14 C1         -1.1080    4.8880   -7.7220 ca        1 14S      0.604200
     15 N4         -1.4090    3.7820   -8.6520 n4        1 14S     -0.780700
     16 C8         -0.3360    3.5860   -9.7180 c3        1 14S      0.135500
     17 C14        -0.6470    4.3800  -10.9980 c3        1 14S     -0.108900
     18 C18        -1.4190    3.4380  -11.9120 c3        1 14S     -0.098400
     19 C17        -1.1770    2.0190  -11.4130 c3        1 14S     -0.098400
     20 C13        -0.2970    2.1140  -10.1740 c3        1 14S     -0.108900
     21 C5         -0.3220    5.8180   -5.6440 ca        1 14S      0.500200
     22 N9         -0.6580    7.0570   -6.0290 nb        1 14S     -0.617000
     23 C7         -1.2190    7.1740   -7.2820 ca        1 14S      0.788900
     24 N3         -1.4560    6.1390   -8.1470 nb        1 14S     -0.681000
     25 N12        -1.6070    8.5370   -7.7310 n4        1 14S     -0.766700
     26 C16        -0.4020    9.4590   -7.9070 c3        1 14S      0.221100
     27 C20        -0.8440   10.7220   -8.5350 ca        1 14S     -0.255300
     28 C23        -0.3590   11.1010   -9.7970 ca        1 14S     -0.056000
     29 C27        -0.6820   12.3420  -10.3290 ca        1 14S     -0.142000
     30 C30        -1.5030   13.2230   -9.6120 ca        1 14S     -0.018000
     31 C25        -2.0140   12.8620   -8.3680 ca        1 14S     -0.184000
     32 C22        -1.6910   11.6090   -7.8320 ca        1 14S      0.162100
     33 O26        -2.1840   11.1250   -6.6380 os        1 14S     -0.404900
     34 C31        -2.8200   12.0780   -5.7750 c3        1 14S      0.116700
     35 H1          1.8370   -1.9130    1.1810 hc        1 14S      0.144200
     36 H2          0.8040   -0.4900    1.6290 hc        1 14S      0.144200
     37 H3          2.7280    0.8940    1.6710 hc        1 14S      0.111200
     38 H4          3.7580   -0.5300    1.2400 hc        1 14S      0.111200
     39 H5          2.9410    1.7170   -0.5220 h1        1 14S      0.099700
     40 H6          3.9700    0.2630   -0.9600 h1        1 14S      0.099700
     41 H7          1.0880   -0.4820   -3.1580 h1        1 14S      0.090200
     42 H8          2.7900    0.1790   -3.1420 h1        1 14S      0.090200
     43 H9          0.1620    1.8040   -2.6910 hc        1 14S      0.074200
     44 H10         1.8350    2.4820   -2.5420 hc        1 14S      0.074200
     45 H11         2.3580    1.7100   -4.9050 h1        1 14S      0.089200
     46 H12         0.6540    1.0580   -5.0570 h1        1 14S      0.089200
     47 H13         1.3780    3.9430   -4.7420 hn        1 14S      0.332500
     48 H14        -2.3060    3.9620   -9.1340 hn        1 14S      0.495800
     49 H15         0.6400    3.8990   -9.2540 hx        1 14S      0.097700
     50 H16         0.3350    4.6570  -11.4670 hc        1 14S      0.088950
     51 H17        -1.2070    5.3280  -10.8110 hc        1 14S      0.088950
     52 H18        -1.0730    3.5540  -12.9720 hc        1 14S      0.083950
     53 H19        -2.5130    3.6790  -11.8990 hc        1 14S      0.083950
     54 H20        -2.1460    1.5100  -11.1760 hc        1 14S      0.083950
     55 H21        -0.6700    1.4000  -12.1990 hc        1 14S      0.083950
     56 H22         0.7700    1.8780  -10.4340 hc        1 14S      0.088950
     57 H23        -0.6100    1.3890   -9.3820 hc        1 14S      0.088950
     58 H24         0.1020    5.7580   -4.6160 h4        1 14S      0.090100
     59 H25        -2.2270    8.9670   -7.0150 hn        1 14S      0.494800
     60 H26         0.3560    8.9180   -8.5380 hx        1 14S      0.112200
     61 H27         0.0090    9.6460   -6.8710 hx        1 14S      0.112200
     62 H28         0.3030   10.4210  -10.3570 ha        1 14S      0.144000
     63 H29        -0.2860   12.6420  -11.3140 ha        1 14S      0.176000
     64 H30        -1.7500   14.2120  -10.0380 ha        1 14S      0.180000
     65 H31        -2.6620   13.5620   -7.8150 ha        1 14S      0.175000
     66 H32        -2.9950   11.4960   -4.8350 h1        1 14S      0.071033
     67 H33        -2.1440   12.9460   -5.5870 h1        1 14S      0.071033
     68 H34        -3.7860   12.4100   -6.2270 h1        1 14S      0.071033
     69 H102       -0.2230   -1.3820   -1.7740 ho        1 14S      0.477000
     70 H42        -1.5100    2.9030   -8.1020 hn        1 14S      0.495800
     71 H122       -2.1270    8.4890   -8.6210 hn        1 14S      0.494800
@<TRIPOS>BOND
     1    1    2 1   
     2    1   69 1   
     3    2    3 1   
     4    2    6 2   
     5    3    4 1   
     6    3   35 1   
     7    3   36 1   
     8    4    5 1   
     9    4   37 1   
    10    4   38 1   
    11    5    6 1   
    12    5   39 1   
    13    5   40 1   
    14    6    7 1   
    15    7    8 1   
    16    7   41 1   
    17    7   42 1   
    18    8    9 1   
    19    8   43 1   
    20    8   44 1   
    21    9   10 1   
    22    9   45 1   
    23    9   46 1   
    24   10   11 1   
    25   10   47 1   
    26   11   12 2   
    27   11   13 1   
    28   13   14 ar  
    29   13   21 ar  
    30   14   15 1   
    31   14   24 ar  
    32   15   16 1   
    33   15   48 1   
    34   15   70 1   
    35   16   17 1   
    36   16   20 1   
    37   16   49 1   
    38   17   18 1   
    39   17   50 1   
    40   17   51 1   
    41   18   19 1   
    42   18   52 1   
    43   18   53 1   
    44   19   20 1   
    45   19   54 1   
    46   19   55 1   
    47   20   56 1   
    48   20   57 1   
    49   21   22 ar  
    50   21   58 1   
    51   22   23 ar  
    52   23   24 ar  
    53   23   25 1   
    54   25   26 1   
    55   25   59 1   
    56   25   71 1   
    57   26   27 1   
    58   26   60 1   
    59   26   61 1   
    60   27   28 ar  
    61   27   32 ar  
    62   28   29 ar  
    63   28   62 1   
    64   29   30 ar  
    65   29   63 1   
    66   30   31 ar  
    67   30   64 1   
    68   31   32 ar  
    69   31   65 1   
    70   32   33 1   
    71   33   34 1   
    72   34   66 1   
    73   34   67 1   
    74   34   68 1   
@<TRIPOS>SUBSTRUCTURE
     1 14S         1 TEMP              0 ****  ****    0 ROOT
