@<TRIPOS>MOLECULE
14S
   69    72     1     0     0
SMALL
bcc


@<TRIPOS>ATOM
      1 O33         0.7350    1.4420   -0.0810 o         1 14S     -0.640500
      2 C28         1.6030    0.5670    0.0540 c         1 14S      0.702500
      3 C32         2.0750   -0.0560    1.3590 c3        1 14S     -0.154400
      4 C34         3.1230   -1.0940    0.9640 c3        1 14S     -0.094400
      5 C29         3.2320   -1.0270   -0.5750 c3        1 14S      0.090000
      6 N24         2.3290    0.0230   -1.0130 n         1 14S     -0.497800
      7 C21         1.9690    0.1770   -2.3880 c3        1 14S      0.130000
      8 C19         1.9700    1.6440   -2.8480 c3        1 14S     -0.140400
      9 C15         1.3510    1.7250   -4.2350 c3        1 14S      0.113800
     10 N10         1.0480    3.1320   -4.6250 n4        1 14S     -0.673800
     11 C6          0.4510    3.2600   -6.0330 c         1 14S      0.599700
     12 O11         0.3300    2.1730   -6.6050 o         1 14S     -0.526100
     13 C2          0.1350    4.5760   -6.4600 ca        1 14S     -0.596200
     14 C1         -0.4060    4.8440   -7.8000 ca        1 14S      0.822200
     15 N4         -0.5790    3.8350   -8.6990 nh        1 14S     -0.818900
     16 C8         -1.1280    4.0140  -10.0310 c3        1 14S      0.212500
     17 C14        -2.6600    4.2070  -10.0760 c3        1 14S     -0.092400
     18 C18        -3.1180    3.6280  -11.4060 c3        1 14S     -0.080900
     19 C17        -1.9840    2.7740  -11.9580 c3        1 14S     -0.080900
     20 C13        -0.8440    2.8070  -10.9520 c3        1 14S     -0.092400
     21 C5          0.3090    5.7360   -5.6360 ca        1 14S      0.531200
     22 N9          0.0340    6.9680   -5.9810 nb        1 14S     -0.740000
     23 C7         -0.4880    7.1560   -7.2980 ca        1 14S      0.964900
     24 N3         -0.7230    6.1200   -8.1830 nb        1 14S     -0.846000
     25 N12        -0.7570    8.4220   -7.7230 nh        1 14S     -0.781900
     26 C16        -0.6630    9.5900   -6.8670 c3        1 14S      0.272100
     27 C20        -0.7620   10.8660   -7.6450 ca        1 14S     -0.163300
     28 C23         0.3060   11.7660   -7.6530 ca        1 14S     -0.075000
     29 C27         0.2040   12.9840   -8.3220 ca        1 14S     -0.157000
     30 C30        -0.9700   13.3120   -8.9990 ca        1 14S     -0.072000
     31 C25        -2.0470   12.4280   -9.0160 ca        1 14S     -0.195000
     32 C22        -1.9420   11.2040   -8.3420 ca        1 14S      0.135100
     33 O26        -2.9400   10.2480   -8.3220 os        1 14S     -0.351900
     34 C31        -4.2100   10.6510   -8.8290 c3        1 14S      0.113700
     35 H1          1.2000   -0.5180    1.8810 hc        1 14S      0.092200
     36 H2          2.4990    0.7400    2.0190 hc        1 14S      0.092200
     37 H3          2.8160   -2.1190    1.2860 hc        1 14S      0.068700
     38 H4          4.1110   -0.8660    1.4320 hc        1 14S      0.068700
     39 H5          4.2800   -0.7750   -0.8930 h1        1 14S      0.051700
     40 H6          2.9480   -2.0110   -1.0400 h1        1 14S      0.051700
     41 H7          0.9330   -0.2430   -2.5580 h1        1 14S      0.052200
     42 H8          2.6950   -0.4080   -3.0220 h1        1 14S      0.052200
     43 H9          3.0190    2.0370   -2.8630 hc        1 14S      0.082700
     44 H10         1.3800    2.2550   -2.1090 hc        1 14S      0.082700
     45 H11         0.3830    1.1460   -4.2780 hx        1 14S      0.110700
     46 H12         2.0460    1.2920   -5.0110 hx        1 14S      0.110700
     47 H13         0.3830    3.5260   -3.9520 hn        1 14S      0.448800
     48 H14        -0.4540    2.8920   -8.3960 hn        1 14S      0.464800
     49 H15        -0.6420    4.9260  -10.4890 h1        1 14S      0.087700
     50 H16        -2.9140    5.2920   -9.9920 hc        1 14S      0.054700
     51 H17        -3.1610    3.6740   -9.2290 hc        1 14S      0.054700
     52 H18        -3.3690    4.4500  -12.1230 hc        1 14S      0.054950
     53 H19        -4.0440    3.0160  -11.2660 hc        1 14S      0.054950
     54 H20        -1.6410    3.1760  -12.9460 hc        1 14S      0.054950
     55 H21        -2.3230    1.7220  -12.1290 hc        1 14S      0.054950
     56 H22         0.1450    2.9300  -11.4580 hc        1 14S      0.054700
     57 H23        -0.8130    1.8460  -10.3770 hc        1 14S      0.054700
     58 H24         0.7030    5.6550   -4.6030 h4        1 14S      0.005100
     59 H25        -1.2040    8.5500   -8.6110 hn        1 14S      0.479800
     60 H26        -1.5080    9.5550   -6.1160 h1        1 14S      0.076200
     61 H27         0.3140    9.5630   -6.3030 h1        1 14S      0.076200
     62 H28         1.2350   11.5120   -7.1190 ha        1 14S      0.140000
     63 H29         1.0510   13.6860   -8.3150 ha        1 14S      0.148000
     64 H30        -1.0500   14.2750   -9.5270 ha        1 14S      0.147000
     65 H31        -2.9670   12.6970   -9.5540 ha        1 14S      0.149000
     66 H32        -4.8670    9.7720   -8.6070 h1        1 14S      0.052700
     67 H33        -4.5770   11.5630   -8.3010 h1        1 14S      0.052700
     68 H34        -4.1480   10.8290   -9.9310 h1        1 14S      0.052700
     69 H102        1.9080    3.6860   -4.5870 hn        1 14S      0.448800
@<TRIPOS>BOND
     1    1    2 2   
     2    2    3 1   
     3    2    6 1   
     4    3    4 1   
     5    3   35 1   
     6    3   36 1   
     7    4    5 1   
     8    4   37 1   
     9    4   38 1   
    10    5    6 1   
    11    5   39 1   
    12    5   40 1   
    13    6    7 1   
    14    7    8 1   
    15    7   41 1   
    16    7   42 1   
    17    8    9 1   
    18    8   43 1   
    19    8   44 1   
    20    9   10 1   
    21    9   45 1   
    22    9   46 1   
    23   10   11 1   
    24   10   47 1   
    25   10   69 1   
    26   11   12 2   
    27   11   13 1   
    28   13   14 ar  
    29   13   21 ar  
    30   14   15 1   
    31   14   24 ar  
    32   15   16 1   
    33   15   48 1   
    34   16   17 1   
    35   16   20 1   
    36   16   49 1   
    37   17   18 1   
    38   17   50 1   
    39   17   51 1   
    40   18   19 1   
    41   18   52 1   
    42   18   53 1   
    43   19   20 1   
    44   19   54 1   
    45   19   55 1   
    46   20   56 1   
    47   20   57 1   
    48   21   22 ar  
    49   21   58 1   
    50   22   23 ar  
    51   23   24 ar  
    52   23   25 1   
    53   25   26 1   
    54   25   59 1   
    55   26   27 1   
    56   26   60 1   
    57   26   61 1   
    58   27   28 ar  
    59   27   32 ar  
    60   28   29 ar  
    61   28   62 1   
    62   29   30 ar  
    63   29   63 1   
    64   30   31 ar  
    65   30   64 1   
    66   31   32 ar  
    67   31   65 1   
    68   32   33 1   
    69   33   34 1   
    70   34   66 1   
    71   34   67 1   
    72   34   68 1   
@<TRIPOS>SUBSTRUCTURE
     1 14S         1 TEMP              0 ****  ****    0 ROOT
