@<TRIPOS>MOLECULE
14S
   69    72     1     0     0
SMALL
bcc


@<TRIPOS>ATOM
      1 O33         0.7300    1.4490   -0.0890 o         1 14S     -0.640500
      2 C28         1.5950    0.5700    0.0490 c         1 14S      0.702500
      3 C32         2.0600   -0.0530    1.3570 c3        1 14S     -0.154400
      4 C34         3.1050   -1.0960    0.9670 c3        1 14S     -0.094400
      5 C29         3.2180   -1.0320   -0.5730 c3        1 14S      0.090000
      6 N24         2.3210    0.0210   -1.0150 n         1 14S     -0.497800
      7 C21         1.9660    0.1740   -2.3910 c3        1 14S      0.130000
      8 C19         1.9750    1.6410   -2.8530 c3        1 14S     -0.140400
      9 C15         1.3580    1.7230   -4.2410 c3        1 14S      0.113800
     10 N10         1.0600    3.1310   -4.6330 ny        1 14S     -0.673800
     11 C6          0.4650    3.2590   -6.0410 c         1 14S      0.599700
     12 O11         0.3440    2.1740   -6.6140 o         1 14S     -0.526100
     13 C2          0.1490    4.5760   -6.4670 ca        1 14S     -0.596200
     14 C1         -0.3960    4.8450   -7.8050 ca        1 14S      0.822200
     15 N4         -0.5720    3.8370   -8.7040 nu        1 14S     -0.818900
     16 C8         -1.1250    4.0160  -10.0350 c3        1 14S      0.212500
     17 C14        -2.6570    4.2090  -10.0750 c3        1 14S     -0.092400
     18 C18        -3.1190    3.6310  -11.4030 c3        1 14S     -0.080900
     19 C17        -1.9860    2.7770  -11.9600 c3        1 14S     -0.080900
     20 C13        -0.8430    2.8090  -10.9570 c3        1 14S     -0.092400
     21 C5          0.3270    5.7360   -5.6430 ca        1 14S      0.531200
     22 N9          0.0510    6.9690   -5.9870 nb        1 14S     -0.740000
     23 C7         -0.4780    7.1560   -7.3010 ca        1 14S      0.964900
     24 N3         -0.7150    6.1220   -8.1860 nb        1 14S     -0.846000
     25 N12        -0.7490    8.4230   -7.7240 nu        1 14S     -0.781900
     26 C16        -0.6520    9.5900   -6.8680 c3        1 14S      0.272100
     27 C20        -0.7600   10.8670   -7.6440 ca        1 14S     -0.163300
     28 C23         0.3060   11.7690   -7.6590 ca        1 14S     -0.075000
     29 C27         0.1970   12.9870   -8.3260 ca        1 14S     -0.157000
     30 C30        -0.9840   13.3130   -8.9940 ca        1 14S     -0.072000
     31 C25        -2.0590   12.4270   -9.0030 ca        1 14S     -0.195000
     32 C22        -1.9450   11.2030   -8.3320 ca        1 14S      0.135100
     33 O26        -2.9410   10.2440   -8.3050 os        1 14S     -0.351900
     34 C31        -4.2160   10.6450   -8.8020 c3        1 14S      0.113700
     35 H1          1.1820   -0.5100    1.8770 hc        1 14S      0.092200
     36 H2          2.4860    0.7430    2.0170 hc        1 14S      0.092200
     37 H3          2.7930   -2.1190    1.2890 hc        1 14S      0.068700
     38 H4          4.0930   -0.8710    1.4360 hc        1 14S      0.068700
     39 H5          4.2680   -0.7850   -0.8880 h1        1 14S      0.051700
     40 H6          2.9330   -2.0160   -1.0360 h1        1 14S      0.051700
     41 H7          0.9280   -0.2410   -2.5630 h1        1 14S      0.052200
     42 H8          2.6900   -0.4150   -3.0220 h1        1 14S      0.052200
     43 H9          3.0260    2.0280   -2.8690 hc        1 14S      0.082700
     44 H10         1.3870    2.2560   -2.1160 hc        1 14S      0.082700
     45 H11         0.3870    1.1480   -4.2840 hx        1 14S      0.110700
     46 H12         2.0510    1.2860   -5.0160 hx        1 14S      0.110700
     47 H13         0.3970    3.5290   -3.9600 hn        1 14S      0.448800
     48 H14        -0.4450    2.8930   -8.4030 hn        1 14S      0.464800
     49 H15        -0.6400    4.9290  -10.4940 h1        1 14S      0.087700
     50 H16        -2.9100    5.2940   -9.9890 hc        1 14S      0.054700
     51 H17        -3.1550    3.6750   -9.2270 hc        1 14S      0.054700
     52 H18        -4.0450    3.0190  -11.2610 hc        1 14S      0.054950
     53 H19        -3.3720    4.4530  -12.1190 hc        1 14S      0.054950
     54 H20        -2.3260    1.7250  -12.1300 hc        1 14S      0.054950
     55 H21        -1.6470    3.1790  -12.9480 hc        1 14S      0.054950
     56 H22         0.1440    2.9330  -11.4660 hc        1 14S      0.054700
     57 H23        -0.8100    1.8480  -10.3830 hc        1 14S      0.054700
     58 H24         0.7260    5.6550   -4.6120 h4        1 14S      0.005100
     59 H25        -1.2000    8.5510   -8.6100 hn        1 14S      0.479800
     60 H26        -1.4920    9.5520   -6.1110 h1        1 14S      0.076200
     61 H27         0.3290    9.5650   -6.3110 h1        1 14S      0.076200
     62 H28         1.2400   11.5160   -7.1320 ha        1 14S      0.140000
     63 H29         1.0420   13.6920   -8.3250 ha        1 14S      0.148000
     64 H30        -1.0700   14.2770   -9.5200 ha        1 14S      0.147000
     65 H31        -2.9830   12.6940   -9.5340 ha        1 14S      0.149000
     66 H32        -4.5810   11.5560   -8.2700 h1        1 14S      0.052700
     67 H33        -4.1630   10.8240   -9.9030 h1        1 14S      0.052700
     68 H34        -4.8700    9.7640   -8.5750 h1        1 14S      0.052700
     69 H102        1.9230    3.6800   -4.5950 hn        1 14S      0.448800
@<TRIPOS>BOND
     1    1    2 2   
     2    2    3 1   
     3    2    6 1   
     4    3    4 1   
     5    3   35 1   
     6    3   36 1   
     7    4    5 1   
     8    4   37 1   
     9    4   38 1   
    10    5    6 1   
    11    5   39 1   
    12    5   40 1   
    13    6    7 1   
    14    7    8 1   
    15    7   41 1   
    16    7   42 1   
    17    8    9 1   
    18    8   43 1   
    19    8   44 1   
    20    9   10 1   
    21    9   45 1   
    22    9   46 1   
    23   10   11 1   
    24   10   47 1   
    25   10   69 1   
    26   11   12 2   
    27   11   13 1   
    28   13   14 ar  
    29   13   21 ar  
    30   14   15 1   
    31   14   24 ar  
    32   15   16 1   
    33   15   48 1   
    34   16   17 1   
    35   16   20 1   
    36   16   49 1   
    37   17   18 1   
    38   17   50 1   
    39   17   51 1   
    40   18   19 1   
    41   18   52 1   
    42   18   53 1   
    43   19   20 1   
    44   19   54 1   
    45   19   55 1   
    46   20   56 1   
    47   20   57 1   
    48   21   22 ar  
    49   21   58 1   
    50   22   23 ar  
    51   23   24 ar  
    52   23   25 1   
    53   25   26 1   
    54   25   59 1   
    55   26   27 1   
    56   26   60 1   
    57   26   61 1   
    58   27   28 ar  
    59   27   32 ar  
    60   28   29 ar  
    61   28   62 1   
    62   29   30 ar  
    63   29   63 1   
    64   30   31 ar  
    65   30   64 1   
    66   31   32 ar  
    67   31   65 1   
    68   32   33 1   
    69   33   34 1   
    70   34   66 1   
    71   34   67 1   
    72   34   68 1   
@<TRIPOS>SUBSTRUCTURE
     1 14S         1 TEMP              0 ****  ****    0 ROOT
