@<TRIPOS>MOLECULE
14T
   40    41     1     0     0
SMALL
bcc


@<TRIPOS>ATOM
      1 F1          3.5810   -3.4380    1.1010 f         1 14T     -0.234300
      2 C7          2.5140   -3.5740    0.2450 c3        1 14T      0.330900
      3 F2          1.5030   -3.9920    1.0770 f         1 14T     -0.234300
      4 C8          2.1600   -2.2290   -0.4780 c         1 14T      0.625100
      5 O5          2.0690   -2.2250   -1.7140 o         1 14T     -0.555100
      6 N1          1.9300   -1.1420    0.3310 n         1 14T     -0.530900
      7 C5          1.7170    0.1770   -0.2030 c3        1 14T      0.084700
      8 C6          2.7480    1.2110    0.3190 c3        1 14T      0.129100
      9 O3          4.0300    0.7740   -0.0900 oh        1 14T     -0.587800
     10 C2          2.4380    2.5950   -0.2810 c3        1 14T      0.077100
     11 O2          3.3780    3.4780    0.3100 oh        1 14T     -0.598800
     12 C3          1.0020    3.0040    0.0660 c3        1 14T      0.071100
     13 C4          0.5860    4.2970   -0.6460 c3        1 14T      0.137400
     14 O4         -0.7400    4.6460   -0.3200 oh        1 14T     -0.589800
     15 O1          0.0870    2.0130   -0.3990 os        1 14T     -0.440600
     16 C1          0.3040    0.7260    0.1680 c3        1 14T      0.324900
     17 O6         -0.6420   -0.0520   -0.5450 os        1 14T     -0.298900
     18 C10        -1.9350   -0.0540   -0.0380 ca        1 14T      0.124100
     19 C9         -2.6620   -1.2260   -0.2870 ca        1 14T     -0.160000
     20 C14        -3.9990   -1.2960    0.1320 ca        1 14T      0.119900
     21 F3         -4.7240   -2.4120   -0.1010 f         1 14T     -0.120900
     22 C11        -2.5120    1.0400    0.6170 ca        1 14T     -0.174000
     23 C12        -3.8340    0.9660    1.0420 ca        1 14T     -0.118000
     24 C13        -4.5910   -0.1930    0.8080 ca        1 14T      0.069900
     25 F4         -5.8770   -0.2650    1.2200 f         1 14T     -0.124900
     26 H7          2.7290   -4.3470   -0.5520 h2        1 14T      0.108700
     27 H1          2.1740   -1.2120    1.2920 hn        1 14T      0.323500
     28 H5          1.7850    0.1260   -1.3330 h1        1 14T      0.128700
     29 H6          2.7120    1.2800    1.4430 h1        1 14T      0.051700
     30 HA          0.1180    0.7420    1.2750 h2        1 14T      0.059700
     31 H3          4.6510    1.4740    0.1580 ho        1 14T      0.427000
     32 H2          2.5760    2.5640   -1.3970 h1        1 14T      0.071700
     33 HB          3.3050    4.3210   -0.1530 ho        1 14T      0.416000
     34 HC          0.8920    3.1250    1.1790 h1        1 14T      0.067700
     35 H41C        1.2150    5.1490   -0.2750 h1        1 14T      0.056700
     36 H42C        0.7030    4.1780   -1.7550 h1        1 14T      0.056700
     37 H4         -1.3080    3.9300   -0.6370 ho        1 14T      0.418000
     38 H9         -2.1960   -2.0720   -0.8120 ha        1 14T      0.175000
     39 H11        -1.9300    1.9610    0.7780 ha        1 14T      0.157000
     40 H12        -4.3030    1.8170    1.5590 ha        1 14T      0.158000
@<TRIPOS>BOND
     1    1    2 1   
     2    2    3 1   
     3    2    4 1   
     4    2   26 1   
     5    4    5 2   
     6    4    6 1   
     7    6    7 1   
     8    6   27 1   
     9    7    8 1   
    10    7   16 1   
    11    7   28 1   
    12    8    9 1   
    13    8   10 1   
    14    8   29 1   
    15    9   31 1   
    16   10   11 1   
    17   10   12 1   
    18   10   32 1   
    19   11   33 1   
    20   12   13 1   
    21   12   15 1   
    22   12   34 1   
    23   13   14 1   
    24   13   35 1   
    25   13   36 1   
    26   14   37 1   
    27   15   16 1   
    28   16   17 1   
    29   16   30 1   
    30   17   18 1   
    31   18   19 ar  
    32   18   22 ar  
    33   19   20 ar  
    34   19   38 1   
    35   20   21 1   
    36   20   24 ar  
    37   22   23 ar  
    38   22   39 1   
    39   23   24 ar  
    40   23   40 1   
    41   24   25 1   
@<TRIPOS>SUBSTRUCTURE
     1 14T         1 TEMP              0 ****  ****    0 ROOT
