@<TRIPOS>MOLECULE
14T
   40    39     1     0     0
SMALL
bcc


@<TRIPOS>ATOM
      1 F1         -3.5440    1.8820    3.9130 f         1 14T     -0.163500
      2 C7         -2.2150    1.9380    3.7110 c3        1 14T      0.199000
      3 F2         -1.5870    1.9270    4.8860 f         1 14T     -0.163500
      4 C8         -1.7780    0.7420    2.8940 c2        1 14T      0.269000
      5 O5         -2.3570   -0.3150    3.0110 o         1 14T     -0.315000
      6 N1         -0.6240    0.8360    2.0600 n         1 14T     -0.339000
      7 C5         -0.1580   -0.2980    1.3730 c3        1 14T      0.007000
      8 C6          1.1900   -0.6310    1.8740 c3        1 14T     -0.018000
      9 O3          1.0840   -1.0030    3.3250 oh        1 14T     -0.314000
     10 C2          1.8030   -1.7070    1.1710 c3        1 14T     -0.037000
     11 O2          3.2230   -1.8370    1.6460 oh        1 14T     -0.312000
     12 C3          1.8160   -1.5480   -0.2740 c3        1 14T     -0.036000
     13 C4          2.3370   -2.8630   -0.9170 c3        1 14T     -0.012000
     14 O4          3.4230   -2.5660   -1.8040 oh        1 14T     -0.319000
     15 O1          0.4930   -1.2360   -0.8500 os        1 14T     -0.290000
     16 C1         -0.2170    0.0080   -0.2330 c3        1 14T      0.141000
     17 O6         -1.3780    0.0890   -0.6190 os        1 14T     -0.189000
     18 C10        -1.4170    0.7430   -1.8400 c2        1 14T      0.075000
     19 C9         -1.3270    2.1370   -1.8870 c2        1 14T     -0.186000
     20 C14        -1.4910    2.8000   -3.0900 c1        1 14T      0.078000
     21 F3         -1.3670    4.1260   -3.1410 f         1 14T     -0.088000
     22 C11        -1.6700    0.0280   -2.9950 c1        1 14T     -0.119000
     23 C12        -1.8360    0.6950   -4.2060 c1        1 14T     -0.128000
     24 C13        -1.7470    2.0780   -4.2530 c2        1 14T      0.047000
     25 F4         -1.8610    2.7170   -5.4250 f         1 14T     -0.089000
     26 H7         -1.9920    2.7640    3.2280 h2        1 14T      0.148000
     27 H1         -0.1840    1.6160    1.9900 hn        1 14T      0.236000
     28 H5         -0.7540   -1.0460    1.5690 h1        1 14T      0.167000
     29 H6          1.7630    0.1670    1.7930 h1        1 14T      0.076000
     30 HA          0.2680    0.8110   -0.4420 h2        1 14T      0.093000
     31 H3          1.6360   -0.4700    3.8170 ho        1 14T      0.225000
     32 H2          1.3250   -2.5320    1.3880 h1        1 14T      0.151000
     33 HB          3.6040   -1.0320    1.6670 ho        1 14T      0.206000
     34 HC          2.4320   -0.8240   -0.5010 h1        1 14T      0.093000
     35 H41C        1.6240   -3.2820   -1.4120 h1        1 14T      0.107000
     36 H42C        2.6470   -3.4710   -0.2140 h1        1 14T      0.107000
     37 H4          3.7320   -3.3320   -2.1670 ho        1 14T      0.212000
     38 H9         -1.1480    2.6470   -1.0640 ha        1 14T      0.158000
     39 H11        -1.7330   -0.9490   -2.9620 ha        1 14T      0.164000
     40 H12        -2.0140    0.1910   -5.0200 ha        1 14T      0.159000
@<TRIPOS>BOND
     1    1    2 1   
     2    2    3 1   
     3    2    4 1   
     4    2   26 1   
     5    4    5 1   
     6    4    6 1   
     7    6    7 1   
     8    6   27 1   
     9    7    8 1   
    10    7   16 1   
    11    7   28 1   
    12    8    9 1   
    13    8   10 1   
    14    8   29 1   
    15    9   31 1   
    16   10   11 1   
    17   10   12 1   
    18   10   32 1   
    19   11   33 1   
    20   12   13 1   
    21   12   15 1   
    22   12   34 1   
    23   13   14 1   
    24   13   35 1   
    25   13   36 1   
    26   14   37 1   
    27   15   16 1   
    28   16   17 1   
    29   16   30 1   
    30   17   18 1   
    31   18   19 1   
    32   18   22 1   
    33   19   20 1   
    34   19   38 1   
    35   20   24 1   
    36   22   39 1   
    37   23   24 1   
    38   23   40 1   
    39   24   25 1   
@<TRIPOS>SUBSTRUCTURE
     1 14T         1 TEMP              0 ****  ****    0 ROOT
