@<TRIPOS>MOLECULE
14U
   57    73     1     0     0
SMALL
bcc


@<TRIPOS>ATOM
      1 CAA         0.0000    0.0000    0.0000 c3        1 14U     -0.280000
      2 CAB        16.6870    1.4380   11.9060 c3        1 14U     -0.107000
      3 OAC        18.2360   -0.9870   10.0970 o         1 14U     -0.527000
      4 OAD        16.3910    0.0020    9.0510 o         1 14U     -0.272000
      5 CAE        17.9070   -0.5990   11.1930 c2        1 14U      0.466000
      6 CAF         1.5300    0.0000    0.0000 DU        1 14U      0.087000
      7 CAG         2.0400    0.0000    1.4420 DU        1 14U     -0.228000
      8 CAH         3.5700   -0.0000    1.4420 DU        1 14U     -0.282000
      9 CAI         4.0800    0.0000    2.8850 DU        1 14U     -0.277000
     10 CAJ         5.6100    0.0000    2.8850 DU        1 14U     -0.270000
     11 CAK         6.1200    0.0000    4.3270 DU        1 14U     -0.272000
     12 CAL         7.6500    0.0000    4.3270 DU        1 14U     -0.279000
     13 CAM         8.1600    0.0010    5.7700 DU        1 14U     -0.280000
     14 CAN         9.6900    0.0000    5.7690 DU        1 14U     -0.272000
     15 CAO        10.2000    0.0010    7.2120 DU        1 14U     -0.276000
     16 CAP        11.7300    0.0010    7.2120 DU        1 14U     -0.282000
     17 CAQ        12.2410    0.0010    8.6540 DU        1 14U     -0.313000
     18 CAR        13.7700    0.0010    8.6540 DU        1 14U     -0.269000
     19 CAS        14.2800    0.0010   10.0970 c3        1 14U     -0.563000
     20 CAT        15.7880    0.0020   10.0970 c3        1 14U      0.174000
     21 CAU        16.5410    0.0020   11.4010 c3        1 14U     -0.358000
     22 HAA         0.9040   -0.0490    0.5940 DU        1 14U      0.145000
     23 HAAA       -0.3610   -0.8840    0.5110 hc        1 14U      0.058500
     24 HAAB       -0.3610    0.8850    0.5110 hc        1 14U      0.058500
     25 HAB        15.8260    1.3660   11.2530 hc        1 14U      0.041333
     26 HABA       17.1620    2.0430   11.1430 hc        1 14U      0.041333
     27 HABB       15.7080    1.8440   12.1310 hc        1 14U      0.041333
     28 HAF         2.3690    0.0770    0.6810 DU        1 14U      0.007500
     29 HAFA        1.8910   -0.8840   -0.5110 ha        1 14U      0.103000
     30 HAG         1.9660    0.4470    0.4580 DU        1 14U      0.007500
     31 HAGA        1.6790    0.8840    1.9530 ha        1 14U      0.101000
     32 HAH         2.6180   -0.4470    1.7010 DU        1 14U      0.153000
     33 HAHA        3.9310    0.8840    0.9310 ha        1 14U      0.095000
     34 HAI         4.0060   -0.4470    1.9010 DU        1 14U      0.179000
     35 HAIA        3.7190    0.8850    3.3950 ha        1 14U      0.091000
     36 HAJ         4.6580   -0.4470    3.1440 DU        1 14U      0.177000
     37 HAJA        5.9710    0.8850    2.3740 ha        1 14U      0.093000
     38 HAK         6.0460   -0.4470    3.3430 DU        1 14U      0.176000
     39 HAKA        5.7590    0.8850    4.8380 ha        1 14U      0.093000
     40 HAL         6.6980   -0.4470    4.5860 DU        1 14U      0.177000
     41 HALA        8.0110    0.8850    3.8160 ha        1 14U      0.098000
     42 HAM         8.0860   -0.4470    4.7860 DU        1 14U      0.176000
     43 HAMA        7.7990    0.8860    6.2810 ha        1 14U      0.092000
     44 HAN         8.7380   -0.4470    6.0280 DU        1 14U      0.189000
     45 HANA       10.0510   -0.8840    5.2590 ha        1 14U      0.115000
     46 HAO        10.1270    0.4480    6.2280 DU        1 14U      0.160000
     47 HAOA        9.8390    0.8860    7.7230 ha        1 14U      0.105000
     48 HAP        10.7780   -0.4470    7.4710 DU        1 14U      0.157000
     49 HAPA       12.0910    0.8850    6.7020 ha        1 14U      0.089000
     50 HAQ        12.1660   -0.4470    7.6710 DU        1 14U      0.187000
     51 HAQA       11.8800    0.8850    9.1650 ha        1 14U      0.095000
     52 HAR        12.8180   -0.4470    8.9130 DU        1 14U      0.191000
     53 HARA       14.1310    0.8850    8.1440 ha        1 14U      0.099000
     54 HAS        14.2070   -0.4460    9.1140 DU        1 14U      0.210000
     55 HASA       13.9200   -0.8830   10.6080 hc        1 14U      0.107000
     56 HAU        15.5540    0.3360   11.1040 DU        1 14U      0.300000
     57 O3         18.7590   -0.7040   12.2250 o         1 14U     -0.527000
@<TRIPOS>BOND
     1    1    6 1   
     2    1   22 1   
     3    1   23 1   
     4    1   24 1   
     5    2   21 1   
     6    2   25 1   
     7    2   26 1   
     8    2   27 1   
     9    3    5 1   
    10    4   20 1   
    11    5   21 1   
    12    5   57 1   
    13    6    7 1   
    14    6   22 1   
    15    6   28 1   
    16    6   29 1   
    17    6   30 1   
    18    7    8 1   
    19    7   28 1   
    20    7   30 1   
    21    7   31 1   
    22    7   32 1   
    23    8    9 1   
    24    8   32 1   
    25    8   33 1   
    26    8   34 1   
    27    9   10 1   
    28    9   34 1   
    29    9   35 1   
    30    9   36 1   
    31   10   11 1   
    32   10   36 1   
    33   10   37 1   
    34   10   38 1   
    35   11   12 1   
    36   11   38 1   
    37   11   39 1   
    38   11   40 1   
    39   12   13 1   
    40   12   40 1   
    41   12   41 1   
    42   12   42 1   
    43   13   14 1   
    44   13   42 1   
    45   13   43 1   
    46   13   44 1   
    47   14   15 1   
    48   14   44 1   
    49   14   45 1   
    50   14   46 1   
    51   15   16 1   
    52   15   46 1   
    53   15   47 1   
    54   15   48 1   
    55   16   17 1   
    56   16   48 1   
    57   16   49 1   
    58   16   50 1   
    59   17   18 1   
    60   17   50 1   
    61   17   51 1   
    62   17   52 1   
    63   18   19 1   
    64   18   52 1   
    65   18   53 1   
    66   18   54 1   
    67   19   20 1   
    68   19   54 1   
    69   19   55 1   
    70   20   21 1   
    71   20   56 1   
    72   21   56 1   
    73   28   30 1   
@<TRIPOS>SUBSTRUCTURE
     1 14U         1 TEMP              0 ****  ****    0 ROOT
