@<TRIPOS>MOLECULE
14U
   57    56     1     0     0
SMALL
bcc


@<TRIPOS>ATOM
      1 CAA        12.4680   -0.0690   -0.4840 c3        1 14U     -0.092100
      2 CAB        -8.7520    0.5510    0.7750 c3        1 14U     -0.054100
      3 OAC        -6.8040    0.6180   -2.3420 o         1 14U     -0.827300
      4 OAD        -6.2780   -0.4760    1.5690 o         1 14U     -0.600100
      5 CAE        -7.6590    0.2480   -1.4880 c         1 14U      0.927600
      6 CAF        11.2080   -0.6240    0.1280 c3        1 14U     -0.080400
      7 CAG         9.9750    0.0690   -0.4120 c3        1 14U     -0.079400
      8 CAH         8.7120   -0.4920    0.2050 c3        1 14U     -0.079400
      9 CAI         7.4800    0.2010   -0.3360 c3        1 14U     -0.079400
     10 CAJ         6.2170   -0.3600    0.2820 c3        1 14U     -0.079400
     11 CAK         4.9850    0.3330   -0.2590 c3        1 14U     -0.079400
     12 CAL         3.7220   -0.2280    0.3580 c3        1 14U     -0.078400
     13 CAM         2.4900    0.4650   -0.1830 c3        1 14U     -0.079400
     14 CAN         1.2270   -0.0960    0.4340 c3        1 14U     -0.078400
     15 CAO        -0.0050    0.5970   -0.1070 c3        1 14U     -0.079400
     16 CAP        -1.2690    0.0350    0.5100 c3        1 14U     -0.078400
     17 CAQ        -2.5010    0.7280   -0.0320 c3        1 14U     -0.078400
     18 CAR        -3.7640    0.1660    0.5850 c3        1 14U     -0.067400
     19 CAS        -4.9930    0.8490    0.0320 c3        1 14U     -0.204400
     20 CAT        -6.2750    0.3170    0.6150 c         1 14U      0.601100
     21 CAU        -7.5170    0.8340   -0.0430 c3        1 14U     -0.298700
     22 HAA        12.5650    1.0220   -0.2650 hc        1 14U      0.031033
     23 HAAA       13.3640   -0.5920   -0.0730 hc        1 14U      0.031033
     24 HAAB       12.4600   -0.2020   -1.5930 hc        1 14U      0.031033
     25 HAB        -8.8740   -0.5520    0.9030 hc        1 14U      0.024367
     26 HABA       -8.6800    1.0250    1.7840 hc        1 14U      0.024367
     27 HABB       -9.6520    0.9430    0.2450 hc        1 14U      0.024367
     28 HAF        11.1400   -1.7240   -0.0820 hc        1 14U      0.037700
     29 HAFA       11.2460   -0.5030    1.2430 hc        1 14U      0.037700
     30 HAG        10.0400    1.1690   -0.2020 hc        1 14U      0.039200
     31 HAGA        9.9340   -0.0520   -1.5270 hc        1 14U      0.039200
     32 HAH         8.6470   -1.5920   -0.0050 hc        1 14U      0.038700
     33 HAHA        8.7530   -0.3710    1.3200 hc        1 14U      0.038700
     34 HAI         7.5450    1.3010   -0.1260 hc        1 14U      0.039200
     35 HAIA        7.4390    0.0800   -1.4500 hc        1 14U      0.039200
     36 HAJ         6.1520   -1.4600    0.0710 hc        1 14U      0.038700
     37 HAJA        6.2580   -0.2390    1.3960 hc        1 14U      0.038700
     38 HAK         5.0500    1.4330   -0.0490 hc        1 14U      0.038700
     39 HAKA        4.9440    0.2120   -1.3740 hc        1 14U      0.038700
     40 HAL         3.6570   -1.3280    0.1470 hc        1 14U      0.038200
     41 HALA        3.7630   -0.1080    1.4730 hc        1 14U      0.038200
     42 HAM         2.5540    1.5650    0.0280 hc        1 14U      0.038200
     43 HAMA        2.4490    0.3440   -1.2970 hc        1 14U      0.038200
     44 HAN         1.1620   -1.1960    0.2230 hc        1 14U      0.037200
     45 HANA        1.2670    0.0240    1.5490 hc        1 14U      0.037200
     46 HAO         0.0590    1.6970    0.1040 hc        1 14U      0.037700
     47 HAOA       -0.0460    0.4760   -1.2210 hc        1 14U      0.037700
     48 HAP        -1.3340   -1.0640    0.2980 hc        1 14U      0.036700
     49 HAPA       -1.2300    0.1550    1.6240 hc        1 14U      0.036700
     50 HAQ        -2.4370    1.8280    0.1770 hc        1 14U      0.037200
     51 HAQA       -2.5440    0.6050   -1.1470 hc        1 14U      0.037200
     52 HAR        -3.8310   -0.9350    0.3820 hc        1 14U      0.041700
     53 HARA       -3.7330    0.2880    1.7000 hc        1 14U      0.041700
     54 HAS        -4.9460    1.9510    0.2350 hc        1 14U      0.086200
     55 HASA       -5.0560    0.7180   -1.0890 hc        1 14U      0.086200
     56 HAU        -7.3980    1.9440   -0.1800 hc        1 14U      0.050700
     57 O3         -8.6250   -0.5200   -1.7280 o         1 14U     -0.827300
@<TRIPOS>BOND
     1    1    6 1   
     2    1   22 1   
     3    1   23 1   
     4    1   24 1   
     5    2   21 1   
     6    2   25 1   
     7    2   26 1   
     8    2   27 1   
     9    3    5 1   
    10    4   20 2   
    11    5   21 1   
    12    5   57 1   
    13    6    7 1   
    14    6   28 1   
    15    6   29 1   
    16    7    8 1   
    17    7   30 1   
    18    7   31 1   
    19    8    9 1   
    20    8   32 1   
    21    8   33 1   
    22    9   10 1   
    23    9   34 1   
    24    9   35 1   
    25   10   11 1   
    26   10   36 1   
    27   10   37 1   
    28   11   12 1   
    29   11   38 1   
    30   11   39 1   
    31   12   13 1   
    32   12   40 1   
    33   12   41 1   
    34   13   14 1   
    35   13   42 1   
    36   13   43 1   
    37   14   15 1   
    38   14   44 1   
    39   14   45 1   
    40   15   16 1   
    41   15   46 1   
    42   15   47 1   
    43   16   17 1   
    44   16   48 1   
    45   16   49 1   
    46   17   18 1   
    47   17   50 1   
    48   17   51 1   
    49   18   19 1   
    50   18   52 1   
    51   18   53 1   
    52   19   20 1   
    53   19   54 1   
    54   19   55 1   
    55   20   21 1   
    56   21   56 1   
@<TRIPOS>SUBSTRUCTURE
     1 14U         1 TEMP              0 ****  ****    0 ROOT
