@<TRIPOS>MOLECULE
14U
   57    55     1     0     0
SMALL
bcc


@<TRIPOS>ATOM
      1 CAA        -6.4100   -2.8790   -7.9670 c3        1 14U     -0.210000
      2 CAB         7.3540    1.1130    6.3970 c3        1 14U     -0.172000
      3 OAC         5.5710    0.8160    8.7060 o         1 14U     -0.544000
      4 OAD         4.4590    0.1370    6.2780 o         1 14U     -0.362000
      5 CAE         5.7080    1.8920    8.0660 c1        1 14U      0.347000
      6 CAF        -5.8450   -1.7120   -7.1880 c3        1 14U     -0.159000
      7 CAG        -5.2640   -2.2110   -5.8830 c3        1 14U     -0.158000
      8 CAH        -4.6140   -1.0590   -5.1480 c3        1 14U     -0.158000
      9 CAI        -3.7430   -1.5990   -4.0350 c3        1 14U     -0.158000
     10 CAJ        -3.2210   -0.4490   -3.2010 c3        1 14U     -0.158000
     11 CAK        -2.1230   -0.9480   -2.2870 c3        1 14U     -0.158000
     12 CAL        -1.7890    0.1210   -1.2700 c3        1 14U     -0.157000
     13 CAM        -0.4040   -0.1260   -0.7140 c3        1 14U     -0.158000
     14 CAN        -0.2410    0.6280    0.5870 c3        1 14U     -0.157000
     15 CAO         1.2290    0.7320    0.9290 c3        1 14U     -0.157000
     16 CAP         1.3870    0.9230    2.4220 c3        1 14U     -0.155000
     17 CAQ         2.7930    1.3950    2.7230 c3        1 14U     -0.162000
     18 CAR         3.1220    1.1050    4.1710 c3        1 14U     -0.141000
     19 CAS         4.4610    1.7180    4.5160 c3        1 14U     -0.234000
     20 CAT         4.9490    1.1560    5.8330 c2        1 14U      0.262000
     21 CAU         6.0530    1.8580    6.5930 c3        1 14U     -0.238000
     22 HAA        -5.7300   -3.5810   -8.0430 hc        1 14U      0.070333
     23 HAAA       -7.1950   -3.2340   -7.5010 hc        1 14U      0.070333
     24 HAAB       -6.6690   -2.5780   -8.8630 hc        1 14U      0.070333
     25 HAB         8.0190    1.4420    7.0370 hc        1 14U      0.064000
     26 HABA        7.6790    1.2580    5.4840 hc        1 14U      0.064000
     27 HABB        7.2070    0.1550    6.5430 hc        1 14U      0.064000
     28 O3          5.5640    2.9960    8.6540 os        1 14U     -0.580000
     29 HAF        -6.5590   -1.0690   -7.0020 hc        1 14U      0.077000
     30 HAFA       -5.1440   -1.2780   -7.7130 hc        1 14U      0.077000
     31 HAG        -4.5940   -2.8990   -6.0670 hc        1 14U      0.078500
     32 HAGA       -5.9770   -2.5890   -5.3320 hc        1 14U      0.078500
     33 HAH        -4.0650   -0.5420   -5.7710 hc        1 14U      0.078000
     34 HAHA       -5.3070   -0.4820   -4.7690 hc        1 14U      0.078000
     35 HAI        -2.9900   -2.0910   -4.4200 hc        1 14U      0.078500
     36 HAIA       -4.2700   -2.1980   -3.4700 hc        1 14U      0.078500
     37 HAJ        -3.9490   -0.0790   -2.6640 hc        1 14U      0.077500
     38 HAJA       -2.8640    0.2450   -3.7900 hc        1 14U      0.077500
     39 HAK        -1.3260   -1.1540   -2.8160 hc        1 14U      0.078000
     40 HAKA       -2.4250   -1.7550   -1.8250 hc        1 14U      0.078000
     41 HAL        -2.4420    0.0940   -0.5420 hc        1 14U      0.077000
     42 HALA       -1.8170    1.0000   -1.6990 hc        1 14U      0.077000
     43 HAM        -0.2830   -1.0830   -0.5540 hc        1 14U      0.077500
     44 HAMA        0.2650    0.1850   -1.3570 hc        1 14U      0.077500
     45 HAN        -0.7090    0.1510    1.3010 hc        1 14U      0.076000
     46 HANA       -0.6180    1.5260    0.4940 hc        1 14U      0.076000
     47 HAO         1.6860   -0.0890    0.6560 hc        1 14U      0.077500
     48 HAOA        1.6200    1.4950    0.4590 hc        1 14U      0.077500
     49 HAP         0.7450    1.5920    2.7350 hc        1 14U      0.074000
     50 HAPA        1.2230    0.0740    2.8790 hc        1 14U      0.074000
     51 HAQ         3.4260    0.9250    2.1440 hc        1 14U      0.083000
     52 HAQA        2.8560    2.3570    2.5610 hc        1 14U      0.083000
     53 HAR         3.1620    0.1370    4.3090 hc        1 14U      0.076000
     54 HARA        2.4300    1.4880    4.7460 hc        1 14U      0.076000
     55 HAS         4.3660    2.6890    4.5920 hc        1 14U      0.127500
     56 HASA        5.1070    1.5080    3.8130 hc        1 14U      0.127500
     57 HAU         6.1470    2.7710    6.2600 hc        1 14U      0.089000
@<TRIPOS>BOND
     1    1    6 1   
     2    1   22 1   
     3    1   23 1   
     4    1   24 1   
     5    2   21 1   
     6    2   25 1   
     7    2   26 1   
     8    2   27 1   
     9    3    5 1   
    10    4   20 1   
    11    5   21 1   
    12    6    7 1   
    13    6   29 1   
    14    6   30 1   
    15    7    8 1   
    16    7   31 1   
    17    7   32 1   
    18    8    9 1   
    19    8   33 1   
    20    8   34 1   
    21    9   10 1   
    22    9   35 1   
    23    9   36 1   
    24   10   11 1   
    25   10   37 1   
    26   10   38 1   
    27   11   12 1   
    28   11   39 1   
    29   11   40 1   
    30   12   13 1   
    31   12   41 1   
    32   12   42 1   
    33   13   14 1   
    34   13   43 1   
    35   13   44 1   
    36   14   15 1   
    37   14   45 1   
    38   14   46 1   
    39   15   16 1   
    40   15   47 1   
    41   15   48 1   
    42   16   17 1   
    43   16   49 1   
    44   16   50 1   
    45   17   18 1   
    46   17   51 1   
    47   17   52 1   
    48   18   19 1   
    49   18   53 1   
    50   18   54 1   
    51   19   20 1   
    52   19   55 1   
    53   19   56 1   
    54   20   21 1   
    55   21   57 1   
@<TRIPOS>SUBSTRUCTURE
     1 14U         1 TEMP              0 ****  ****    0 ROOT
