@<TRIPOS>MOLECULE
14V
   59    57     1     0     0
SMALL
bcc


@<TRIPOS>ATOM
      1 CAA        -8.4370   -3.7610   -6.2850 c3        1 14V     -0.210000
      2 OAB        11.1930    1.4150    4.9050 o         1 14V     -0.542000
      3 OAC         8.3850    2.3610    3.6870 o         1 14V     -0.362000
      4 OAD         6.1590    2.6070    2.8750 o         1 14V     -0.344000
      5 CAE        10.4150    2.2600    5.4200 c1        1 14V      0.346000
      6 CAF        -7.1570   -2.9600   -6.1880 c3        1 14V     -0.159000
      7 CAG        -6.8240   -2.7160   -4.7330 c3        1 14V     -0.158000
      8 CAH        -5.5900   -1.8470   -4.6370 c3        1 14V     -0.158000
      9 CAI        -5.1550   -1.7460   -3.1910 c3        1 14V     -0.158000
     10 CAJ        -3.9410   -0.8480   -3.0910 c3        1 14V     -0.157000
     11 CAK        -3.4280   -0.8510   -1.6680 c3        1 14V     -0.158000
     12 CAL        -2.1970    0.0240   -1.5750 c3        1 14V     -0.157000
     13 CAM        -1.6170   -0.0690   -0.1810 c3        1 14V     -0.158000
     14 CAN        -0.3750    0.7900   -0.0930 c3        1 14V     -0.157000
     15 CAO         0.2940    0.5740    1.2470 c3        1 14V     -0.158000
     16 CAP         1.5960    1.3430    1.2900 c3        1 14V     -0.156000
     17 CAQ         2.2850    1.0950    2.6140 c3        1 14V     -0.159000
     18 CAR         3.6500    1.7470    2.6030 c3        1 14V     -0.147000
     19 CAS         9.0440    1.8330    5.8980 c3        1 14V     -0.294000
     20 CAT         4.3960    1.3770    3.8660 c3        1 14V     -0.223000
     21 CAU         6.5470    2.1290    5.1600 c3        1 14V     -0.299000
     22 CAV         8.0210    2.1250    4.8220 c2        1 14V      0.275000
     23 CAW         5.7360    2.0780    3.8840 c2        1 14V      0.261000
     24 HAA        -8.6430   -3.9360   -7.2270 hc        1 14V      0.070333
     25 HAAA       -9.1710   -3.2540   -5.8790 hc        1 14V      0.070333
     26 HAAB       -8.3270   -4.6120   -5.8110 hc        1 14V      0.070333
     27 O4         10.7790    3.4590    5.5420 os        1 14V     -0.583000
     28 HAF        -6.4290   -3.4580   -6.6110 hc        1 14V      0.077000
     29 HAFA       -7.2740   -2.1030   -6.6440 hc        1 14V      0.077000
     30 HAG        -7.5750   -2.2660   -4.2970 hc        1 14V      0.079000
     31 HAGA       -6.6550   -3.5720   -4.2890 hc        1 14V      0.079000
     32 HAH        -5.7930   -0.9540   -4.9800 hc        1 14V      0.078000
     33 HAHA       -4.8700   -2.2430   -5.1670 hc        1 14V      0.078000
     34 HAI        -4.9300   -2.6360   -2.8550 hc        1 14V      0.079000
     35 HAIA       -5.8830   -1.3700   -2.6570 hc        1 14V      0.079000
     36 HAJ        -4.1880    0.0640   -3.3470 hc        1 14V      0.078000
     37 HAJA       -3.2420   -1.1770   -3.6910 hc        1 14V      0.078000
     38 HAK        -4.1200   -0.5050   -1.0710 hc        1 14V      0.079000
     39 HAKA       -3.1980   -1.7650   -1.4070 hc        1 14V      0.079000
     40 HAL        -2.4410    0.9520   -1.7650 hc        1 14V      0.077000
     41 HALA       -1.5320   -0.2780   -2.2250 hc        1 14V      0.077000
     42 HAM        -2.2770    0.2450    0.4690 hc        1 14V      0.079000
     43 HAMA       -1.3840   -0.9990    0.0140 hc        1 14V      0.079000
     44 HAN         0.2440    0.5440   -0.8090 hc        1 14V      0.076500
     45 HANA       -0.6230    1.7320   -0.1850 hc        1 14V      0.076500
     46 HAO        -0.2950    0.8910    1.9610 hc        1 14V      0.079500
     47 HAOA        0.4740   -0.3790    1.3720 hc        1 14V      0.079500
     48 HAP         1.4140    2.2990    1.1920 hc        1 14V      0.076000
     49 HAPA        2.1750    1.0440    0.5610 hc        1 14V      0.076000
     50 HAQ         1.7470    1.4750    3.3380 hc        1 14V      0.081500
     51 HAQA        2.3850    0.1320    2.7540 hc        1 14V      0.081500
     52 HAR         4.1530    1.4360    1.8240 hc        1 14V      0.082500
     53 HARA        3.5460    2.7190    2.5580 hc        1 14V      0.082500
     54 HAS         9.0500    0.8740    6.0910 hc        1 14V      0.096500
     55 HASA        8.8130    2.3280    6.7100 hc        1 14V      0.096500
     56 HAT         3.8730    1.6530    4.6460 hc        1 14V      0.129000
     57 HATA        4.5340    0.4090    3.8920 hc        1 14V      0.129000
     58 HAU         6.3280    2.9440    5.6540 hc        1 14V      0.156500
     59 HAUA        6.3370    1.3480    5.7110 hc        1 14V      0.156500
@<TRIPOS>BOND
     1    1    6 1   
     2    1   24 1   
     3    1   25 1   
     4    1   26 1   
     5    2    5 1   
     6    3   22 1   
     7    4   23 1   
     8    5   19 1   
     9    6    7 1   
    10    6   28 1   
    11    6   29 1   
    12    7    8 1   
    13    7   30 1   
    14    7   31 1   
    15    8    9 1   
    16    8   32 1   
    17    8   33 1   
    18    9   10 1   
    19    9   34 1   
    20    9   35 1   
    21   10   11 1   
    22   10   36 1   
    23   10   37 1   
    24   11   12 1   
    25   11   38 1   
    26   11   39 1   
    27   12   13 1   
    28   12   40 1   
    29   12   41 1   
    30   13   14 1   
    31   13   42 1   
    32   13   43 1   
    33   14   15 1   
    34   14   44 1   
    35   14   45 1   
    36   15   16 1   
    37   15   46 1   
    38   15   47 1   
    39   16   17 1   
    40   16   48 1   
    41   16   49 1   
    42   17   18 1   
    43   17   50 1   
    44   17   51 1   
    45   18   20 1   
    46   18   52 1   
    47   18   53 1   
    48   19   22 1   
    49   19   54 1   
    50   19   55 1   
    51   20   23 1   
    52   20   56 1   
    53   20   57 1   
    54   21   22 1   
    55   21   23 1   
    56   21   58 1   
    57   21   59 1   
@<TRIPOS>SUBSTRUCTURE
     1 14V         1 TEMP              0 ****  ****    0 ROOT
