@<TRIPOS>MOLECULE
14V
   59    58     1     0     0
SMALL
bcc


@<TRIPOS>ATOM
      1 CAA        13.3400   -0.6730   -0.0100 c3        1 14V     -0.092100
      2 OAB        -7.0830   -2.2370   -1.8090 o         1 14V     -0.827800
      3 OAC        -6.2890   -1.0960    1.8920 o         1 14V     -0.601100
      4 OAD        -5.3280    2.1120    0.1670 o         1 14V     -0.583100
      5 CAE        -7.5890   -2.8000   -0.7950 c         1 14V      0.926600
      6 CAF        12.1290    0.2200   -0.0690 c3        1 14V     -0.080400
      7 CAG        10.8450   -0.5790    0.0020 c3        1 14V     -0.079400
      8 CAH         9.6300    0.3230   -0.0580 c3        1 14V     -0.079400
      9 CAI         8.3470   -0.4770    0.0130 c3        1 14V     -0.079400
     10 CAJ         7.1330    0.4240   -0.0460 c3        1 14V     -0.078400
     11 CAK         5.8500   -0.3760    0.0240 c3        1 14V     -0.079400
     12 CAL         4.6350    0.5260   -0.0340 c3        1 14V     -0.078400
     13 CAM         3.3520   -0.2740    0.0360 c3        1 14V     -0.079400
     14 CAN         2.1380    0.6270   -0.0230 c3        1 14V     -0.078400
     15 CAO         0.8550   -0.1740    0.0480 c3        1 14V     -0.079400
     16 CAP        -0.3600    0.7270   -0.0110 c3        1 14V     -0.077400
     17 CAQ        -1.6430   -0.0740    0.0590 c3        1 14V     -0.080400
     18 CAR        -2.8570    0.8270    0.0020 c3        1 14V     -0.068400
     19 CAS        -7.9980   -1.9130    0.4140 c3        1 14V     -0.315400
     20 CAT        -4.1350    0.0230    0.0660 c3        1 14V     -0.194400
     21 CAU        -6.6580    0.1460   -0.1390 c3        1 14V     -0.320400
     22 CAV        -6.9190   -0.9760    0.8300 c         1 14V      0.614100
     23 CAW        -5.3670    0.8790    0.0570 c         1 14V      0.600100
     24 HAA        13.3540   -1.2580    0.9420 hc        1 14V      0.031033
     25 HAAA       13.3400   -1.3950   -0.8630 hc        1 14V      0.031033
     26 HAAB       14.2750   -0.0650   -0.0640 hc        1 14V      0.031033
     27 O4         -7.8240   -4.0320   -0.7020 o         1 14V     -0.827800
     28 HAF        12.1590    0.9530    0.7800 hc        1 14V      0.037700
     29 HAFA       12.1460    0.8170   -1.0190 hc        1 14V      0.037700
     30 HAG        10.8110   -1.3110   -0.8480 hc        1 14V      0.039700
     31 HAGA       10.8250   -1.1740    0.9520 hc        1 14V      0.039700
     32 HAH         9.6640    1.0550    0.7920 hc        1 14V      0.038700
     33 HAHA        9.6500    0.9190   -1.0080 hc        1 14V      0.038700
     34 HAI         8.3130   -1.2090   -0.8360 hc        1 14V      0.039700
     35 HAIA        8.3270   -1.0730    0.9640 hc        1 14V      0.039700
     36 HAJ         7.1660    1.1570    0.8030 hc        1 14V      0.038700
     37 HAJA        7.1520    1.0200   -0.9970 hc        1 14V      0.038700
     38 HAK         5.8160   -1.1080   -0.8250 hc        1 14V      0.039700
     39 HAKA        5.8300   -0.9720    0.9750 hc        1 14V      0.039700
     40 HAL         4.6690    1.2580    0.8150 hc        1 14V      0.037700
     41 HALA        4.6550    1.1220   -0.9850 hc        1 14V      0.037700
     42 HAM         3.3180   -1.0060   -0.8130 hc        1 14V      0.039700
     43 HAMA        3.3320   -0.8710    0.9860 hc        1 14V      0.039700
     44 HAN         2.1710    1.3590    0.8270 hc        1 14V      0.037200
     45 HANA        2.1570    1.2230   -0.9730 hc        1 14V      0.037200
     46 HAO         0.8210   -0.9060   -0.8020 hc        1 14V      0.040200
     47 HAOA        0.8350   -0.7700    0.9980 hc        1 14V      0.040200
     48 HAP        -0.3280    1.4590    0.8390 hc        1 14V      0.036700
     49 HAPA       -0.3420    1.3230   -0.9610 hc        1 14V      0.036700
     50 HAQ        -1.6770   -0.8060   -0.7910 hc        1 14V      0.042200
     51 HAQA       -1.6630   -0.6710    1.0090 hc        1 14V      0.042200
     52 HAR        -2.8330    1.5580    0.8540 hc        1 14V      0.043200
     53 HARA       -2.8410    1.4300   -0.9440 hc        1 14V      0.043200
     54 HAS        -8.8980   -1.3300    0.0940 hc        1 14V      0.057200
     55 HASA       -8.2780   -2.5840    1.2640 hc        1 14V      0.057200
     56 HAT        -4.1900   -0.6940   -0.7970 hc        1 14V      0.089700
     57 HATA       -4.1640   -0.5920    1.0090 hc        1 14V      0.089700
     58 HAU        -6.6570   -0.3140   -1.1790 hc        1 14V      0.117200
     59 HAUA       -7.5190    0.8640   -0.0820 hc        1 14V      0.117200
@<TRIPOS>BOND
     1    1    6 1   
     2    1   24 1   
     3    1   25 1   
     4    1   26 1   
     5    2    5 1   
     6    3   22 2   
     7    4   23 2   
     8    5   19 1   
     9    5   27 1   
    10    6    7 1   
    11    6   28 1   
    12    6   29 1   
    13    7    8 1   
    14    7   30 1   
    15    7   31 1   
    16    8    9 1   
    17    8   32 1   
    18    8   33 1   
    19    9   10 1   
    20    9   34 1   
    21    9   35 1   
    22   10   11 1   
    23   10   36 1   
    24   10   37 1   
    25   11   12 1   
    26   11   38 1   
    27   11   39 1   
    28   12   13 1   
    29   12   40 1   
    30   12   41 1   
    31   13   14 1   
    32   13   42 1   
    33   13   43 1   
    34   14   15 1   
    35   14   44 1   
    36   14   45 1   
    37   15   16 1   
    38   15   46 1   
    39   15   47 1   
    40   16   17 1   
    41   16   48 1   
    42   16   49 1   
    43   17   18 1   
    44   17   50 1   
    45   17   51 1   
    46   18   20 1   
    47   18   52 1   
    48   18   53 1   
    49   19   22 1   
    50   19   54 1   
    51   19   55 1   
    52   20   23 1   
    53   20   56 1   
    54   20   57 1   
    55   21   22 1   
    56   21   23 1   
    57   21   58 1   
    58   21   59 1   
@<TRIPOS>SUBSTRUCTURE
     1 14V         1 TEMP              0 ****  ****    0 ROOT
