@<TRIPOS>MOLECULE
14V
   59    58     1     0     0
SMALL
bcc


@<TRIPOS>ATOM
      1 CAA        -0.1930    0.0050    0.8670 c3        1 14V     -0.092100
      2 OAB        16.5700    1.7610   12.6460 o         1 14V     -0.827800
      3 OAC        16.5050   -1.9150   11.1920 o         1 14V     -0.601100
      4 OAD        17.2950   -0.1230    7.9730 o         1 14V     -0.583100
      5 CAE        16.7300    0.7360   13.3690 c         1 14V      0.926600
      6 CAF         1.3050    0.0790    0.7160 c3        1 14V     -0.080400
      7 CAG         2.0040   -0.0060    2.0560 c3        1 14V     -0.079400
      8 CAH         3.5070    0.0690    1.9000 c3        1 14V     -0.079400
      9 CAI         4.2050   -0.0170    3.2400 c3        1 14V     -0.079400
     10 CAJ         5.7090    0.0580    3.0840 c3        1 14V     -0.078400
     11 CAK         6.4060   -0.0270    4.4250 c3        1 14V     -0.079400
     12 CAL         7.9100    0.0480    4.2690 c3        1 14V     -0.078400
     13 CAM         8.6070   -0.0380    5.6090 c3        1 14V     -0.079400
     14 CAN        10.1110    0.0380    5.4530 c3        1 14V     -0.078400
     15 CAO        10.8080   -0.0480    6.7940 c3        1 14V     -0.079400
     16 CAP        12.3120    0.0280    6.6390 c3        1 14V     -0.077400
     17 CAQ        13.0080   -0.0590    7.9800 c3        1 14V     -0.080400
     18 CAR        14.5120    0.0160    7.8240 c3        1 14V     -0.068400
     19 CAS        17.5450   -0.4550   12.7920 c3        1 14V     -0.315400
     20 CAT        15.2030   -0.0650    9.1650 c3        1 14V     -0.194400
     21 CAU        17.4350    0.1410   10.3480 c3        1 14V     -0.320400
     22 CAV        17.0980   -0.8510   11.4290 c         1 14V      0.614100
     23 CAW        16.6990   -0.0380    9.0570 c         1 14V      0.600100
     24 HAA        -0.5670    0.8440    1.5020 hc        1 14V      0.031033
     25 HAAA       -0.6880    0.0690   -0.1320 hc        1 14V      0.031033
     26 HAAB       -0.4930   -0.9580    1.3480 hc        1 14V      0.031033
     27 O4         16.3060    0.6170   14.5470 o         1 14V     -0.827800
     28 HAF         1.6590   -0.7570    0.0570 hc        1 14V      0.037700
     29 HAFA        1.5850    1.0400    0.2090 hc        1 14V      0.037700
     30 HAG         1.7260   -0.9680    2.5640 hc        1 14V      0.039700
     31 HAGA        1.6520    0.8290    2.7170 hc        1 14V      0.039700
     32 HAH         3.8590   -0.7670    1.2390 hc        1 14V      0.038700
     33 HAHA        3.7850    1.0300    1.3920 hc        1 14V      0.038700
     34 HAI         3.8540    0.8190    3.9010 hc        1 14V      0.039700
     35 HAIA        3.9280   -0.9780    3.7480 hc        1 14V      0.039700
     36 HAJ         5.9870    1.0200    2.5760 hc        1 14V      0.038700
     37 HAJA        6.0600   -0.7770    2.4230 hc        1 14V      0.038700
     38 HAK         6.1290   -0.9880    4.9320 hc        1 14V      0.039700
     39 HAKA        6.0550    0.8080    5.0860 hc        1 14V      0.039700
     40 HAL         8.1880    1.0100    3.7610 hc        1 14V      0.037700
     41 HALA        8.2620   -0.7870    3.6070 hc        1 14V      0.037700
     42 HAM         8.2560    0.7980    6.2700 hc        1 14V      0.039700
     43 HAMA        8.3300   -0.9990    6.1170 hc        1 14V      0.039700
     44 HAN        10.3890    0.9990    4.9460 hc        1 14V      0.037200
     45 HANA       10.4630   -0.7970    4.7920 hc        1 14V      0.037200
     46 HAO        10.5310   -1.0100    7.3010 hc        1 14V      0.040200
     47 HAOA       10.4570    0.7870    7.4560 hc        1 14V      0.040200
     48 HAP        12.6650   -0.8080    5.9780 hc        1 14V      0.036700
     49 HAPA       12.5900    0.9890    6.1320 hc        1 14V      0.036700
     50 HAQ        12.6570    0.7770    8.6420 hc        1 14V      0.042200
     51 HAQA       12.7310   -1.0200    8.4880 hc        1 14V      0.042200
     52 HAR        14.7950    0.9740    7.3130 hc        1 14V      0.043200
     53 HARA       14.8720   -0.8210    7.1680 hc        1 14V      0.043200
     54 HAS        17.4540   -1.3190   13.4960 hc        1 14V      0.057200
     55 HASA       18.6140   -0.1240   12.7540 hc        1 14V      0.057200
     56 HAT        14.8760    0.7840    9.8250 hc        1 14V      0.089700
     57 HATA       14.9240   -1.0200    9.6930 hc        1 14V      0.089700
     58 HAU        17.1890    1.1720   10.7620 hc        1 14V      0.117200
     59 HAUA       18.5410    0.1000   10.1680 hc        1 14V      0.117200
@<TRIPOS>BOND
     1    1    6 1   
     2    1   24 1   
     3    1   25 1   
     4    1   26 1   
     5    2    5 1   
     6    3   22 2   
     7    4   23 2   
     8    5   19 1   
     9    5   27 1   
    10    6    7 1   
    11    6   28 1   
    12    6   29 1   
    13    7    8 1   
    14    7   30 1   
    15    7   31 1   
    16    8    9 1   
    17    8   32 1   
    18    8   33 1   
    19    9   10 1   
    20    9   34 1   
    21    9   35 1   
    22   10   11 1   
    23   10   36 1   
    24   10   37 1   
    25   11   12 1   
    26   11   38 1   
    27   11   39 1   
    28   12   13 1   
    29   12   40 1   
    30   12   41 1   
    31   13   14 1   
    32   13   42 1   
    33   13   43 1   
    34   14   15 1   
    35   14   44 1   
    36   14   45 1   
    37   15   16 1   
    38   15   46 1   
    39   15   47 1   
    40   16   17 1   
    41   16   48 1   
    42   16   49 1   
    43   17   18 1   
    44   17   50 1   
    45   17   51 1   
    46   18   20 1   
    47   18   52 1   
    48   18   53 1   
    49   19   22 1   
    50   19   54 1   
    51   19   55 1   
    52   20   23 1   
    53   20   56 1   
    54   20   57 1   
    55   21   22 1   
    56   21   23 1   
    57   21   58 1   
    58   21   59 1   
@<TRIPOS>SUBSTRUCTURE
     1 14V         1 TEMP              0 ****  ****    0 ROOT
