@<TRIPOS>MOLECULE
14V
   59    58     1     0     0
SMALL
bcc


@<TRIPOS>ATOM
      1 CAA        -0.1180    0.1880    1.0280 c3        1 14V     -0.092100
      2 OAB        15.7100   -0.6050   14.0120 o         1 14V     -0.829300
      3 OAC        18.7720    0.8880   11.5870 o         1 14V     -0.585100
      4 OAD        17.4830    0.0160    7.9720 o         1 14V     -0.577100
      5 CAE        15.7200   -0.4850   12.7600 c         1 14V      0.920600
      6 CAF         1.3360   -0.1940    0.9340 c3        1 14V     -0.080400
      7 CAG         2.0940    0.1880    2.1880 c3        1 14V     -0.079400
      8 CAH         3.5540   -0.1980    2.0890 c3        1 14V     -0.079400
      9 CAI         4.3100    0.1850    3.3440 c3        1 14V     -0.079400
     10 CAJ         5.7710   -0.2000    3.2450 c3        1 14V     -0.078400
     11 CAK         6.5270    0.1840    4.4980 c3        1 14V     -0.079400
     12 CAL         7.9880   -0.2000    4.3990 c3        1 14V     -0.078400
     13 CAM         8.7440    0.1860    5.6520 c3        1 14V     -0.079400
     14 CAN        10.2050   -0.1970    5.5530 c3        1 14V     -0.078400
     15 CAO        10.9620    0.1900    6.8050 c3        1 14V     -0.079400
     16 CAP        12.4230   -0.1920    6.7070 c3        1 14V     -0.077400
     17 CAQ        13.1780    0.1950    7.9600 c3        1 14V     -0.080400
     18 CAR        14.6400   -0.1850    7.8590 c3        1 14V     -0.065400
     19 CAS        16.4530    0.7420   12.1630 c3        1 14V     -0.314400
     20 CAT        15.3810    0.1790    9.1270 c3        1 14V     -0.210400
     21 CAU        17.5080   -0.6430   10.2710 c3        1 14V     -0.307400
     22 CAV        17.6590    0.3890   11.3630 c         1 14V      0.607100
     23 CAW        16.8500   -0.1190    9.0280 c         1 14V      0.596100
     24 HAA        -0.2280    1.2900    1.1710 hc        1 14V      0.031033
     25 HAAA       -0.6570   -0.1020    0.0940 hc        1 14V      0.031033
     26 HAAB       -0.6060   -0.3260    1.8910 hc        1 14V      0.031033
     27 O4         15.1410   -1.2780   11.9590 o         1 14V     -0.829300
     28 HAF         1.4250   -1.3000    0.7660 hc        1 14V      0.037700
     29 HAFA        1.8030    0.3120    0.0480 hc        1 14V      0.037700
     30 HAG         1.6300   -0.3190    3.0750 hc        1 14V      0.039200
     31 HAGA        2.0070    1.2930    2.3570 hc        1 14V      0.039200
     32 HAH         3.6410   -1.3040    1.9210 hc        1 14V      0.038700
     33 HAHA        4.0170    0.3090    1.2020 hc        1 14V      0.038700
     34 HAI         4.2230    1.2910    3.5120 hc        1 14V      0.039200
     35 HAIA        3.8470   -0.3220    4.2310 hc        1 14V      0.039200
     36 HAJ         6.2330    0.3060    2.3570 hc        1 14V      0.038200
     37 HAJA        5.8580   -1.3060    3.0770 hc        1 14V      0.038200
     38 HAK         6.0650   -0.3220    5.3860 hc        1 14V      0.039200
     39 HAKA        6.4390    1.2900    4.6670 hc        1 14V      0.039200
     40 HAL         8.4500    0.3060    3.5100 hc        1 14V      0.037700
     41 HALA        8.0750   -1.3060    4.2330 hc        1 14V      0.037700
     42 HAM         8.6560    1.2920    5.8190 hc        1 14V      0.039200
     43 HAMA        8.2830   -0.3190    6.5410 hc        1 14V      0.039200
     44 HAN        10.6670    0.3070    4.6630 hc        1 14V      0.037200
     45 HANA       10.2930   -1.3030    5.3880 hc        1 14V      0.037200
     46 HAO        10.5020   -0.3150    7.6950 hc        1 14V      0.040200
     47 HAOA       10.8740    1.2960    6.9710 hc        1 14V      0.040200
     48 HAP        12.5120   -1.2990    6.5420 hc        1 14V      0.035700
     49 HAPA       12.8860    0.3120    5.8170 hc        1 14V      0.035700
     50 HAQ        13.0880    1.3000    8.1270 hc        1 14V      0.044700
     51 HAQA       12.7210   -0.3130    8.8500 hc        1 14V      0.044700
     52 HAR        15.1130    0.3320    6.9830 hc        1 14V      0.041200
     53 HARA       14.7300   -1.2890    7.6800 hc        1 14V      0.041200
     54 HAS        16.7450    1.4250   13.0010 hc        1 14V      0.058700
     55 HASA       15.7240    1.2750   11.5010 hc        1 14V      0.058700
     56 HAT        15.2670    1.2790    9.3280 hc        1 14V      0.098200
     57 HATA       14.9470   -0.3750   10.0130 hc        1 14V      0.098200
     58 HAU        18.5230   -1.0460   10.0080 hc        1 14V      0.105700
     59 HAUA       16.8700   -1.4820   10.6830 hc        1 14V      0.105700
@<TRIPOS>BOND
     1    1    6 1   
     2    1   24 1   
     3    1   25 1   
     4    1   26 1   
     5    2    5 1   
     6    3   22 2   
     7    4   23 2   
     8    5   19 1   
     9    5   27 1   
    10    6    7 1   
    11    6   28 1   
    12    6   29 1   
    13    7    8 1   
    14    7   30 1   
    15    7   31 1   
    16    8    9 1   
    17    8   32 1   
    18    8   33 1   
    19    9   10 1   
    20    9   34 1   
    21    9   35 1   
    22   10   11 1   
    23   10   36 1   
    24   10   37 1   
    25   11   12 1   
    26   11   38 1   
    27   11   39 1   
    28   12   13 1   
    29   12   40 1   
    30   12   41 1   
    31   13   14 1   
    32   13   42 1   
    33   13   43 1   
    34   14   15 1   
    35   14   44 1   
    36   14   45 1   
    37   15   16 1   
    38   15   46 1   
    39   15   47 1   
    40   16   17 1   
    41   16   48 1   
    42   16   49 1   
    43   17   18 1   
    44   17   50 1   
    45   17   51 1   
    46   18   20 1   
    47   18   52 1   
    48   18   53 1   
    49   19   22 1   
    50   19   54 1   
    51   19   55 1   
    52   20   23 1   
    53   20   56 1   
    54   20   57 1   
    55   21   22 1   
    56   21   23 1   
    57   21   58 1   
    58   21   59 1   
@<TRIPOS>SUBSTRUCTURE
     1 14V         1 TEMP              0 ****  ****    0 ROOT
