@<TRIPOS>MOLECULE
14W
   28    24     1     0     0
SMALL
bcc


@<TRIPOS>ATOM
      1 C2          0.8160   -0.4130   -0.7110 c1        1 14W     -0.046500
      2 C3          2.2390   -0.3620   -0.7510 c1        1 14W     -0.097100
      3 C4          2.9430   -0.2840    0.4000 c1        1 14W     -0.064500
      4 C5          2.2780   -0.2550    1.6160 c1        1 14W     -0.066000
      5 C6          0.8780   -0.3060    1.6520 c1        1 14W     -0.066000
      6 C1          0.1660   -0.3840    0.4880 c1        1 14W     -0.069100
      7 C7         -1.3310   -0.4870    0.5350 c3        1 14W      0.198900
      8 N8         -1.9200    0.8730    0.6400 nh        1 14W     -0.798000
      9 C9         -3.3330    1.0340    0.9380 c2        1 14W      0.167800
     10 C10        -4.2750    1.6030   -0.1230 c3        1 14W     -0.060900
     11 N11        -3.8070    0.6870    2.1340 n1        1 14W     -0.301000
     12 C12         2.9540   -0.3000   -2.0780 c3        1 14W      0.160900
     13 N13         3.5980   -1.5120   -2.3240 n3        1 14W     -0.900800
     14 H2          0.3250   -0.4670   -1.5080 ha        1 14W      0.087500
     15 H4          3.9600   -0.2470    0.3730 ha        1 14W      0.074500
     16 H5          2.7990   -0.1970    2.4690 ha        1 14W      0.077500
     17 H6          0.4200   -0.2850    2.4930 ha        1 14W      0.077500
     18 H71        -1.6700   -0.9430   -0.3180 h1        1 14W      0.044200
     19 H72        -1.6080   -1.0470    1.3610 h1        1 14W      0.044200
     20 H8         -1.4400    1.5490    0.5080 hn        1 14W      0.407800
     21 H101       -4.1690    2.5480   -0.1660 hc        1 14W      0.058033
     22 H102       -5.1840    1.3920    0.1110 hc        1 14W      0.058033
     23 H103       -4.0550    1.1940   -1.0300 hc        1 14W      0.058033
     24 H11        -3.2130    0.3270    2.8050 DU        1 14W      0.138000
     25 H121        2.2970   -0.1280   -2.7950 h1        1 14W      0.060700
     26 H122        3.6190    0.4250   -2.0610 h1        1 14W      0.060700
     27 H131        3.5490   -2.0470   -1.5740 hn        1 14W      0.348300
     28 H132        3.1650   -1.9680   -3.0850 hn        1 14W      0.348300
@<TRIPOS>BOND
     1    1    6 3   
     2    1   14 1   
     3    2    3 3   
     4    2   12 1   
     5    3   15 1   
     6    4    5 3   
     7    4   16 1   
     8    5   17 1   
     9    6    7 1   
    10    7    8 1   
    11    7   18 1   
    12    7   19 1   
    13    8    9 1   
    14    8   20 1   
    15    9   10 1   
    16    9   11 2   
    17   10   21 1   
    18   10   22 1   
    19   10   23 1   
    20   12   13 1   
    21   12   25 1   
    22   12   26 1   
    23   13   27 1   
    24   13   28 1   
@<TRIPOS>SUBSTRUCTURE
     1 14W         1 TEMP              0 ****  ****    0 ROOT
