@<TRIPOS>MOLECULE
14W
   30    30     1     0     0
SMALL
bcc


@<TRIPOS>ATOM
      1 C2          0.0320    0.1380   -0.1830 ca        1 14W     -0.059000
      2 C3          1.4310    0.0960   -0.1390 ca        1 14W     -0.167300
      3 C4          2.1000    0.3220    1.0710 ca        1 14W     -0.079000
      4 C5          1.3740    0.5900    2.2310 ca        1 14W     -0.091000
      5 C6         -0.0210    0.6040    2.1960 ca        1 14W     -0.076000
      6 C1         -0.6950    0.3770    0.9890 ca        1 14W     -0.155300
      7 C7         -2.1890    0.2740    0.9720 c3        1 14W      0.148100
      8 N8         -2.8710    1.5300    1.3840 ny        1 14W     -0.820000
      9 C9         -4.4150    1.4590    1.4380 c2        1 14W      0.577200
     10 C10        -4.9760    2.8050    1.8310 c3        1 14W     -0.167400
     11 N11        -5.1140    0.4380    1.1950 n2        1 14W     -0.671100
     12 C12         2.1990   -0.3080   -1.3550 c3        1 14W      0.160100
     13 N13         3.1560    0.7430   -1.8220 nz        1 14W     -0.840600
     14 H2         -0.4970   -0.0520   -1.1320 ha        1 14W      0.155000
     15 H4          3.2000    0.2610    1.1280 ha        1 14W      0.156000
     16 H5          1.9030    0.7640    3.1850 ha        1 14W      0.188000
     17 H6         -0.5800    0.7650    3.1330 ha        1 14W      0.157000
     18 H71        -2.4990   -0.5460    1.6890 hx        1 14W      0.115700
     19 H72        -2.5520    0.0030   -0.0630 hx        1 14W      0.115700
     20 H8         -2.5430    1.8040    2.3180 hn        1 14W      0.453300
     21 H101       -6.0980    2.7490    1.8720 hc        1 14W      0.106367
     22 H102       -4.6950    3.5830    1.0780 hc        1 14W      0.106367
     23 H103       -4.6080    3.1020    2.8450 hc        1 14W      0.106367
     24 H11        -4.7700   -0.4590    0.9390 hn        1 14W      0.469400
     25 H121        2.8040   -1.2380   -1.1270 hx        1 14W      0.127200
     26 H122        1.5030   -0.5400   -2.2160 hx        1 14W      0.127200
     27 H131        3.7000    0.3880   -2.6180 hn        1 14W      0.468133
     28 H132        2.6510    1.5860   -2.1150 hn        1 14W      0.468133
     29 H82        -2.6220    2.2840    0.7340 hn        1 14W      0.453300
     30 H133        3.8010    0.9980   -1.0650 hn        1 14W      0.468133
@<TRIPOS>BOND
     1    1    2 ar  
     2    1    6 ar  
     3    1   14 1   
     4    2    3 ar  
     5    2   12 1   
     6    3    4 ar  
     7    3   15 1   
     8    4    5 ar  
     9    4   16 1   
    10    5    6 ar  
    11    5   17 1   
    12    6    7 1   
    13    7    8 1   
    14    7   18 1   
    15    7   19 1   
    16    8    9 1   
    17    8   20 1   
    18    8   29 1   
    19    9   10 1   
    20    9   11 2   
    21   10   21 1   
    22   10   22 1   
    23   10   23 1   
    24   11   24 1   
    25   12   13 1   
    26   12   25 1   
    27   12   26 1   
    28   13   27 1   
    29   13   28 1   
    30   13   30 1   
@<TRIPOS>SUBSTRUCTURE
     1 14W         1 TEMP              0 ****  ****    0 ROOT
