@<TRIPOS>MOLECULE
14W
   30    30     1     0     0
SMALL
bcc


@<TRIPOS>ATOM
      1 C2          0.0340    0.1430   -0.1870 ca        1 14W     -0.059000
      2 C3          1.4320    0.0870   -0.1280 ca        1 14W     -0.167300
      3 C4          2.0900    0.2880    1.0920 ca        1 14W     -0.079000
      4 C5          1.3530    0.5460    2.2480 ca        1 14W     -0.091000
      5 C6         -0.0400    0.5740    2.1980 ca        1 14W     -0.076000
      6 C1         -0.7040    0.3710    0.9810 ca        1 14W     -0.155300
      7 C7         -2.1980    0.2830    0.9460 c3        1 14W      0.148100
      8 N8         -2.8720    1.5400    1.3690 n4        1 14W     -0.820000
      9 C9         -4.4170    1.4810    1.4090 c2        1 14W      0.577200
     10 C10        -4.9690    2.8230    1.8280 c3        1 14W     -0.167400
     11 N11        -5.1230    0.4730    1.1380 n2        1 14W     -0.671100
     12 C12         2.2100   -0.3060   -1.3420 c3        1 14W      0.160100
     13 N13         3.1820    0.7430   -1.7820 n4        1 14W     -0.840600
     14 H2         -0.4860   -0.0270   -1.1440 ha        1 14W      0.155000
     15 H4          3.1880    0.2160    1.1610 ha        1 14W      0.156000
     16 H5          1.8740    0.7010    3.2110 ha        1 14W      0.188000
     17 H6         -0.6080    0.7260    3.1310 ha        1 14W      0.157000
     18 H71        -2.5240   -0.5440    1.6470 hx        1 14W      0.115700
     19 H72        -2.5520    0.0310   -0.0970 hx        1 14W      0.115700
     20 H8         -2.5500    1.7980    2.3090 hn        1 14W      0.453300
     21 H101       -6.0930    2.7780    1.8560 hc        1 14W      0.106700
     22 H102       -4.6730    3.6160    1.0970 hc        1 14W      0.106700
     23 H103       -4.6100    3.0920    2.8530 hc        1 14W      0.106700
     24 H11        -4.7850   -0.4210    0.8640 hn        1 14W      0.469400
     25 H121        2.8040   -1.2450   -1.1210 hx        1 14W      0.127200
     26 H122        1.5210   -0.5180   -2.2140 hx        1 14W      0.127200
     27 H131        3.7320    0.3940   -2.5780 hn        1 14W      0.468133
     28 H132        2.6880    1.5950   -2.0680 hn        1 14W      0.468133
     29 H82        -2.6110    2.3000    0.7310 hn        1 14W      0.453300
     30 H133        3.8210    0.9800   -1.0150 hn        1 14W      0.468133
@<TRIPOS>BOND
     1    1    2 ar  
     2    1    6 ar  
     3    1   14 1   
     4    2    3 ar  
     5    2   12 1   
     6    3    4 ar  
     7    3   15 1   
     8    4    5 ar  
     9    4   16 1   
    10    5    6 ar  
    11    5   17 1   
    12    6    7 1   
    13    7    8 1   
    14    7   18 1   
    15    7   19 1   
    16    8    9 1   
    17    8   20 1   
    18    8   29 1   
    19    9   10 1   
    20    9   11 2   
    21   10   21 1   
    22   10   22 1   
    23   10   23 1   
    24   11   24 1   
    25   12   13 1   
    26   12   25 1   
    27   12   26 1   
    28   13   27 1   
    29   13   28 1   
    30   13   30 1   
@<TRIPOS>SUBSTRUCTURE
     1 14W         1 TEMP              0 ****  ****    0 ROOT
