@<TRIPOS>MOLECULE
14W
   28    28     1     0     0
SMALL
bcc


@<TRIPOS>ATOM
      1 C2          3.8290    2.7190    1.8110 ca        1 14W     -0.110000
      2 C3          4.3070    3.0340    3.0860 ca        1 14W     -0.095300
      3 C4          3.9970    4.2740    3.6550 ca        1 14W     -0.101000
      4 C5          3.2160    5.1890    2.9520 ca        1 14W     -0.136000
      5 C6          2.7400    4.8750    1.6790 ca        1 14W     -0.118000
      6 C1          3.0430    3.6360    1.1070 ca        1 14W     -0.109300
      7 C7          2.5000    3.2800   -0.2460 c3        1 14W      0.234100
      8 N8          3.5280    2.9310   -1.1970 nh        1 14W     -0.867200
      9 C9          3.1880    2.8420   -2.5720 c2        1 14W      0.604200
     10 C10         4.3940    2.8770   -3.4980 c3        1 14W     -0.140400
     11 N11         2.0100    2.6690   -3.0860 n2        1 14W     -0.834100
     12 C12         5.1160    2.0250    3.8480 c3        1 14W      0.203100
     13 N13         6.3210    2.5670    4.4350 n3        1 14W     -0.916800
     14 H2          4.0640    1.7440    1.3560 ha        1 14W      0.142000
     15 H4          4.3710    4.5230    4.6610 ha        1 14W      0.150000
     16 H5          2.9740    6.1630    3.4020 ha        1 14W      0.135000
     17 H6          2.1230    5.6020    1.1300 ha        1 14W      0.133000
     18 H71         1.8180    2.3850   -0.1330 h1        1 14W      0.043700
     19 H72         1.8650    4.1360   -0.6260 h1        1 14W      0.043700
     20 H8          4.4150    3.3480   -1.0170 hn        1 14W      0.406800
     21 H101        4.9120    3.8610   -3.4050 hc        1 14W      0.057700
     22 H102        5.1040    2.0590   -3.2250 hc        1 14W      0.057700
     23 H103        4.0840    2.7370   -4.5620 hc        1 14W      0.057700
     24 H11         1.2390    2.6520   -2.4540 hn        1 14W      0.382400
     25 H121        4.4800    1.6350    4.6970 h1        1 14W      0.035200
     26 H122        5.3290    1.1450    3.1680 h1        1 14W      0.035200
     27 H131        6.8400    3.1030    3.7680 hn        1 14W      0.352800
     28 H132        6.8960    1.8280    4.7860 hn        1 14W      0.352800
@<TRIPOS>BOND
     1    1    2 ar  
     2    1    6 ar  
     3    1   14 1   
     4    2    3 ar  
     5    2   12 1   
     6    3    4 ar  
     7    3   15 1   
     8    4    5 ar  
     9    4   16 1   
    10    5    6 ar  
    11    5   17 1   
    12    6    7 1   
    13    7    8 1   
    14    7   18 1   
    15    7   19 1   
    16    8    9 1   
    17    8   20 1   
    18    9   10 1   
    19    9   11 2   
    20   10   21 1   
    21   10   22 1   
    22   10   23 1   
    23   11   24 1   
    24   12   13 1   
    25   12   25 1   
    26   12   26 1   
    27   13   27 1   
    28   13   28 1   
@<TRIPOS>SUBSTRUCTURE
     1 14W         1 TEMP              0 ****  ****    0 ROOT
