@<TRIPOS>MOLECULE
14W
   30    30     1     0     0
SMALL
bcc


@<TRIPOS>ATOM
      1 C2          0.0350    0.1570   -0.1950 ca        1 14W     -0.059000
      2 C3          1.4320    0.0970   -0.1350 ca        1 14W     -0.167300
      3 C4          2.0880    0.2720    1.0910 ca        1 14W     -0.079000
      4 C5          1.3500    0.5080    2.2500 ca        1 14W     -0.091000
      5 C6         -0.0440    0.5400    2.1970 ca        1 14W     -0.076000
      6 C1         -0.7050    0.3630    0.9760 ca        1 14W     -0.155300
      7 C7         -2.2000    0.2780    0.9360 c3        1 14W      0.148100
      8 N8         -2.8720    1.5280    1.3830 n4        1 14W     -0.820000
      9 C9         -4.4180    1.4740    1.4120 c2        1 14W      0.577200
     10 C10        -4.9680    2.8140    1.8360 c3        1 14W     -0.167400
     11 N11        -5.1250    0.4700    1.1290 n2        1 14W     -0.671100
     12 C12         2.2110   -0.2740   -1.3550 c3        1 14W      0.160100
     13 N13         3.1860    0.7820   -1.7720 n4        1 14W     -0.840600
     14 H2         -0.4840    0.0070   -1.1570 ha        1 14W      0.155000
     15 H4          3.1860    0.1960    1.1590 ha        1 14W      0.156000
     16 H5          1.8690    0.6420    3.2160 ha        1 14W      0.188000
     17 H6         -0.6130    0.6740    3.1330 ha        1 14W      0.157000
     18 H71        -2.5290   -0.5620    1.6190 hx        1 14W      0.115700
     19 H72        -2.5520    0.0480   -0.1120 hx        1 14W      0.115700
     20 H8         -2.6050    2.3010    0.7650 hn        1 14W      0.453300
     21 H101       -4.6690    3.6100    1.1090 hc        1 14W      0.106367
     22 H102       -6.0920    2.7710    1.8610 hc        1 14W      0.106367
     23 H103       -4.6110    3.0780    2.8620 hc        1 14W      0.106367
     24 H11        -4.7880   -0.4240    0.8510 hn        1 14W      0.469400
     25 H121        2.8030   -1.2190   -1.1520 hx        1 14W      0.127200
     26 H122        1.5240   -0.4670   -2.2320 hx        1 14W      0.127200
     27 H131        2.6950    1.6410   -2.0420 hn        1 14W      0.468133
     28 H132        3.8250    1.0020   -0.9990 hn        1 14W      0.468133
     29 H82        -2.5560    1.7630    2.3310 hn        1 14W      0.453300
     30 H133        3.7370    0.4480   -2.5730 hn        1 14W      0.468133
@<TRIPOS>BOND
     1    1    2 ar  
     2    1    6 ar  
     3    1   14 1   
     4    2    3 ar  
     5    2   12 1   
     6    3    4 ar  
     7    3   15 1   
     8    4    5 ar  
     9    4   16 1   
    10    5    6 ar  
    11    5   17 1   
    12    6    7 1   
    13    7    8 1   
    14    7   18 1   
    15    7   19 1   
    16    8    9 1   
    17    8   20 1   
    18    8   29 1   
    19    9   10 1   
    20    9   11 2   
    21   10   21 1   
    22   10   22 1   
    23   10   23 1   
    24   11   24 1   
    25   12   13 1   
    26   12   25 1   
    27   12   26 1   
    28   13   27 1   
    29   13   28 1   
    30   13   30 1   
@<TRIPOS>SUBSTRUCTURE
     1 14W         1 TEMP              0 ****  ****    0 ROOT
