@<TRIPOS>MOLECULE
14X
   37    39     1     0     0
SMALL
bcc


@<TRIPOS>ATOM
      1 C4         -0.0720   -0.0810    0.0110 ca        1 14X     -0.419500
      2 C5          1.3280   -0.1140   -0.0200 ca        1 14X      0.025000
      3 C6          2.0840   -0.0930    1.1410 ca        1 14X     -0.215000
      4 C11        -0.7240   -3.7660   -2.9020 c3        1 14X     -0.083400
      5 C7          1.4350   -0.0310    2.3980 ca        1 14X      0.157600
      6 C8          1.5240   -0.0240    4.8470 c         1 14X      0.810500
      7 C9         -2.1630   -2.5170   -1.3640 c3        1 14X      0.231300
      8 C10        -2.0060   -3.8660   -2.0840 c3        1 14X     -0.083400
      9 C12        -0.1640   -2.3560   -2.6510 c3        1 14X      0.231300
     10 N1          2.1540   -0.0010    3.5820 n         1 14X     -0.468100
     11 N2         -1.0900   -1.6470   -1.7940 n3        1 14X     -0.833500
     12 C3         -0.7090   -0.0120    1.2550 ca        1 14X      0.028000
     13 O2         -2.2510    0.4430   -1.1290 o         1 14X     -0.656800
     14 S          -0.9680   -0.0780   -1.4170 sy        1 14X      1.528200
     15 O1         -0.2160    0.5870   -2.4110 o         1 14X     -0.656800
     16 C2          0.0170    0.0160    2.4390 ca        1 14X     -0.185300
     17 C1         -0.6980    0.1210    3.7500 c3        1 14X      0.147300
     18 O           2.2540   -0.0280    5.8650 o         1 14X     -0.650500
     19 N           0.1280   -0.1020    4.9180 n         1 14X     -0.457800
     20 C          -0.5100    0.1020    6.1910 c3        1 14X      0.080300
     21 H1          1.8410   -0.1420   -0.9990 ha        1 14X      0.153000
     22 H2          3.1820   -0.1190    1.0830 ha        1 14X      0.146000
     23 H4          0.0180   -4.5390   -2.5850 hc        1 14X      0.052950
     24 H5         -3.1550   -2.0440   -1.6070 h1        1 14X      0.046200
     25 H6         -2.1120   -2.6640   -0.2480 h1        1 14X      0.046200
     26 H7         -2.8880   -4.0570   -2.7430 hc        1 14X      0.052950
     27 H8         -1.9470   -4.6970   -1.3400 hc        1 14X      0.052950
     28 H9          0.8450   -2.4190   -2.1530 h1        1 14X      0.046200
     29 H10        -0.0380   -1.7960   -3.6200 h1        1 14X      0.046200
     30 H11         3.1480   -0.0400    3.5700 hn        1 14X      0.350500
     31 H12        -1.8130    0.0380    1.2930 ha        1 14X      0.158000
     32 H13        -1.1770    1.1450    3.8150 h1        1 14X      0.053700
     33 H14        -1.5310   -0.6430    3.7820 h1        1 14X      0.053700
     34 H15         0.2050   -0.1480    7.0200 h1        1 14X      0.053033
     35 H16        -1.4040   -0.5750    6.2530 h1        1 14X      0.053033
     36 H17        -0.8500    1.1660    6.3080 h1        1 14X      0.053033
     37 H3         -0.9290   -3.9130   -3.9900 hc        1 14X      0.052950
@<TRIPOS>BOND
     1    1    2 ar  
     2    1   12 ar  
     3    1   14 1   
     4    2    3 ar  
     5    2   21 1   
     6    3    5 ar  
     7    3   22 1   
     8    4    8 1   
     9    4    9 1   
    10    4   23 1   
    11    4   37 1   
    12    5   10 1   
    13    5   16 ar  
    14    6   10 1   
    15    6   18 2   
    16    6   19 1   
    17    7    8 1   
    18    7   11 1   
    19    7   24 1   
    20    7   25 1   
    21    8   26 1   
    22    8   27 1   
    23    9   11 1   
    24    9   28 1   
    25    9   29 1   
    26   10   30 1   
    27   11   14 1   
    28   12   16 ar  
    29   12   31 1   
    30   13   14 2   
    31   14   15 2   
    32   16   17 1   
    33   17   19 1   
    34   17   32 1   
    35   17   33 1   
    36   19   20 1   
    37   20   34 1   
    38   20   35 1   
    39   20   36 1   
@<TRIPOS>SUBSTRUCTURE
     1 14X         1 TEMP              0 ****  ****    0 ROOT
