@<TRIPOS>MOLECULE
14X
   37    39     1     0     0
SMALL
bcc


@<TRIPOS>ATOM
      1 C4         -0.0590   -0.0880    0.0030 ca        1 14X     -0.419500
      2 C5          1.3420   -0.1280   -0.0210 ca        1 14X      0.025000
      3 C6          2.0920   -0.1040    1.1440 ca        1 14X     -0.215000
      4 C11        -0.7290   -3.7920   -2.8800 c3        1 14X     -0.083400
      5 C7          1.4380   -0.0300    2.3970 ca        1 14X      0.157600
      6 C8          1.5150   -0.0080    4.8470 c         1 14X      0.810500
      7 C9         -2.1660   -2.5160   -1.3610 c3        1 14X      0.231300
      8 C10        -2.0180   -3.8730   -2.0690 c3        1 14X     -0.083400
      9 C12        -0.1570   -2.3850   -2.6380 c3        1 14X      0.231300
     10 N1          2.1510    0.0040    3.5840 n         1 14X     -0.468100
     11 N2         -1.0820   -1.6600   -1.7930 n3        1 14X     -0.833500
     12 C3         -0.7010   -0.0070    1.2440 ca        1 14X      0.028000
     13 O2         -2.2270    0.4450   -1.1510 o         1 14X     -0.656800
     14 S          -0.9480   -0.0890   -1.4290 sy        1 14X      1.528200
     15 O1         -0.1850    0.5610   -2.4250 o         1 14X     -0.656800
     16 C2          0.0190    0.0250    2.4310 ca        1 14X     -0.185300
     17 C1         -0.7010    0.1420    3.7380 c3        1 14X      0.147300
     18 O           2.2400   -0.0080    5.8680 o         1 14X     -0.650500
     19 N           0.1180   -0.0780    4.9110 n         1 14X     -0.457800
     20 C          -0.5240    0.1380    6.1800 c3        1 14X      0.080300
     21 H1          1.8590   -0.1660   -0.9970 ha        1 14X      0.153000
     22 H2          3.1900   -0.1360    1.0910 ha        1 14X      0.146000
     23 H4          0.0030   -4.5690   -2.5520 hc        1 14X      0.052950
     24 H5         -2.1230   -2.6540   -0.2440 h1        1 14X      0.046200
     25 H6         -3.1520   -2.0360   -1.6150 h1        1 14X      0.046200
     26 H7         -2.8970   -4.0620   -2.7320 hc        1 14X      0.052950
     27 H8         -1.9700   -4.6980   -1.3170 hc        1 14X      0.052950
     28 H9          0.8470   -2.4540   -2.1320 h1        1 14X      0.046200
     29 H10        -0.0200   -1.8350   -3.6110 h1        1 14X      0.046200
     30 H11         3.1450   -0.0400    3.5780 hn        1 14X      0.350500
     31 H12        -1.8050    0.0490    1.2760 ha        1 14X      0.158000
     32 H13        -1.5380   -0.6170    3.7710 h1        1 14X      0.053700
     33 H14        -1.1750    1.1690    3.7940 h1        1 14X      0.053700
     34 H15        -1.4220   -0.5340    6.2420 h1        1 14X      0.053033
     35 H16         0.1850   -0.1110    7.0140 h1        1 14X      0.053033
     36 H17        -0.8600    1.2050    6.2890 h1        1 14X      0.053033
     37 H3         -0.9290   -3.9460   -3.9680 hc        1 14X      0.052950
@<TRIPOS>BOND
     1    1    2 ar  
     2    1   12 ar  
     3    1   14 1   
     4    2    3 ar  
     5    2   21 1   
     6    3    5 ar  
     7    3   22 1   
     8    4    8 1   
     9    4    9 1   
    10    4   23 1   
    11    4   37 1   
    12    5   10 1   
    13    5   16 ar  
    14    6   10 1   
    15    6   18 2   
    16    6   19 1   
    17    7    8 1   
    18    7   11 1   
    19    7   24 1   
    20    7   25 1   
    21    8   26 1   
    22    8   27 1   
    23    9   11 1   
    24    9   28 1   
    25    9   29 1   
    26   10   30 1   
    27   11   14 1   
    28   12   16 ar  
    29   12   31 1   
    30   13   14 2   
    31   14   15 2   
    32   16   17 1   
    33   17   19 1   
    34   17   32 1   
    35   17   33 1   
    36   19   20 1   
    37   20   34 1   
    38   20   35 1   
    39   20   36 1   
@<TRIPOS>SUBSTRUCTURE
     1 14X         1 TEMP              0 ****  ****    0 ROOT
