@<TRIPOS>MOLECULE
14X
   37    39     1     0     0
SMALL
bcc


@<TRIPOS>ATOM
      1 C4         -0.0700   -0.0810    0.0090 ca        1 14X     -0.419500
      2 C5          1.3310   -0.1130   -0.0220 ca        1 14X      0.025000
      3 C6          2.0860   -0.0910    1.1390 ca        1 14X     -0.215000
      4 C11        -0.7270   -3.7710   -2.8960 c3        1 14X     -0.083400
      5 C7          1.4370   -0.0290    2.3960 ca        1 14X      0.157600
      6 C8          1.5250   -0.0210    4.8450 c         1 14X      0.810500
      7 C9         -2.1660   -2.5150   -1.3620 c3        1 14X      0.231300
      8 C10        -2.0110   -3.8670   -2.0790 c3        1 14X     -0.083400
      9 C12        -0.1650   -2.3620   -2.6480 c3        1 14X      0.231300
     10 N1          2.1550    0.0020    3.5800 ns        1 14X     -0.468100
     11 N2         -1.0900   -1.6480   -1.7930 n3        1 14X     -0.833500
     12 C3         -0.7070   -0.0120    1.2530 ca        1 14X      0.028000
     13 O2         -2.2470    0.4440   -1.1330 o         1 14X     -0.656800
     14 S          -0.9660   -0.0790   -1.4190 sy        1 14X      1.528200
     15 O1         -0.2120    0.5830   -2.4140 o         1 14X     -0.656800
     16 C2          0.0190    0.0170    2.4370 ca        1 14X     -0.185300
     17 C1         -0.6960    0.1220    3.7480 c3        1 14X      0.147300
     18 O           2.2540   -0.0230    5.8630 o         1 14X     -0.650500
     19 N           0.1290   -0.1000    4.9160 n         1 14X     -0.457800
     20 C          -0.5090    0.1050    6.1890 c3        1 14X      0.080300
     21 H1          1.8440   -0.1420   -1.0010 ha        1 14X      0.153000
     22 H2          3.1840   -0.1170    1.0810 ha        1 14X      0.146000
     23 H4          0.0130   -4.5450   -2.5760 hc        1 14X      0.052950
     24 H5         -3.1570   -2.0410   -1.6080 h1        1 14X      0.046200
     25 H6         -2.1150   -2.6600   -0.2460 h1        1 14X      0.046200
     26 H7         -2.8920   -4.0580   -2.7380 hc        1 14X      0.052950
     27 H8         -1.9530   -4.6960   -1.3320 hc        1 14X      0.052950
     28 H9         -0.0370   -1.8040   -3.6180 h1        1 14X      0.046200
     29 H10         0.8430   -2.4260   -2.1480 h1        1 14X      0.046200
     30 H11         3.1500   -0.0360    3.5690 hn        1 14X      0.350500
     31 H12        -1.8110    0.0380    1.2900 ha        1 14X      0.158000
     32 H13        -1.5290   -0.6420    3.7800 h1        1 14X      0.053700
     33 H14        -1.1760    1.1470    3.8120 h1        1 14X      0.053700
     34 H15        -1.4030   -0.5720    6.2500 h1        1 14X      0.053033
     35 H16        -0.8500    1.1690    6.3050 h1        1 14X      0.053033
     36 H17         0.2050   -0.1450    7.0180 h1        1 14X      0.053033
     37 H3         -0.9320   -3.9200   -3.9840 hc        1 14X      0.052950
@<TRIPOS>BOND
     1    1    2 ar  
     2    1   12 ar  
     3    1   14 1   
     4    2    3 ar  
     5    2   21 1   
     6    3    5 ar  
     7    3   22 1   
     8    4    8 1   
     9    4    9 1   
    10    4   23 1   
    11    4   37 1   
    12    5   10 1   
    13    5   16 ar  
    14    6   10 1   
    15    6   18 2   
    16    6   19 1   
    17    7    8 1   
    18    7   11 1   
    19    7   24 1   
    20    7   25 1   
    21    8   26 1   
    22    8   27 1   
    23    9   11 1   
    24    9   28 1   
    25    9   29 1   
    26   10   30 1   
    27   11   14 1   
    28   12   16 ar  
    29   12   31 1   
    30   13   14 2   
    31   14   15 2   
    32   16   17 1   
    33   17   19 1   
    34   17   32 1   
    35   17   33 1   
    36   19   20 1   
    37   20   34 1   
    38   20   35 1   
    39   20   36 1   
@<TRIPOS>SUBSTRUCTURE
     1 14X         1 TEMP              0 ****  ****    0 ROOT
