@<TRIPOS>MOLECULE
14X
   37    34     1     0     0
SMALL
bcc


@<TRIPOS>ATOM
      1 C4          0.1630    0.7060   -0.5270 c1        1 14X     -0.462200
      2 C5          1.5500    0.8050   -0.5080 c1        1 14X      0.082500
      3 C6          2.2240    0.9480    0.7070 c1        1 14X     -0.157500
      4 C11        -0.1750   -2.2420   -4.6390 c3        1 14X     -0.083400
      5 C7          1.5000    0.9920    1.9140 c1        1 14X      0.110700
      6 C8          1.4960    0.7710    4.4120 c1        1 14X      0.634500
      7 C9         -1.7260   -1.1950   -3.2350 c3        1 14X      0.231300
      8 C10        -1.1670   -2.5760   -3.8820 c3        1 14X     -0.083400
      9 C12         0.3840   -0.9150   -4.0140 c3        1 14X      0.231300
     10 N1          2.2140    0.9860    3.1820 n3        1 14X     -0.317400
     11 N2         -0.6800   -0.4550   -2.9880 n3        1 14X     -0.833500
     12 C3         -0.5550    0.7500    0.6670 c1        1 14X      0.085500
     13 O2         -1.9920    1.4770   -1.9560 o         1 14X     -0.656800
     14 S          -0.6620    0.9550   -2.1290 s6        1 14X      1.570900
     15 O1         -0.0430    2.0120   -2.8770 o         1 14X     -0.656800
     16 C2          0.1260    0.8940    1.8960 c1        1 14X     -0.178000
     17 C1         -0.6510    0.8450    3.2080 c2        1 14X      0.570100
     18 O           2.1120    0.5930    5.4550 o         1 14X     -0.608500
     19 N           0.0650    0.8140    4.4240 n2        1 14X     -0.728900
     20 C          -0.6480    0.7960    5.6790 c3        1 14X      0.168100
     21 H1          2.0530    0.7750   -1.3450 ha        1 14X      0.095500
     22 H2          3.2030    1.0180    0.7200 ha        1 14X      0.088500
     23 H3          0.5170   -2.9450   -4.6270 hc        1 14X      0.052950
     24 H4         -0.4840   -2.0830   -5.5560 hc        1 14X      0.052950
     25 H5         -2.2110   -1.3840   -2.4010 h1        1 14X      0.046200
     26 H6         -2.3220   -0.7360   -3.8780 h1        1 14X      0.046200
     27 H7         -1.8670   -3.0070   -4.4130 hc        1 14X      0.052950
     28 H8         -0.8610   -3.1800   -3.1720 hc        1 14X      0.052950
     29 H9          0.5000   -0.2310   -4.7140 h1        1 14X      0.046200
     30 H10         1.2310   -1.0850   -3.5660 h1        1 14X      0.046200
     31 H11         3.1220    1.1640    3.2010 hn        1 14X      0.313700
     32 H12        -1.5290    0.6800    0.6530 ha        1 14X      0.100500
     33 H13        -1.2360    1.6300    3.2320 h4        1 14X     -0.036200
     34 H14        -1.2200    0.0500    3.1820 h4        1 14X     -0.036200
     35 H15        -0.4180    1.5970    6.1980 h1        1 14X      0.053033
     36 H16        -0.3950   -0.0060    6.1870 h1        1 14X      0.053033
     37 H17        -1.6170    0.7840    5.5070 h1        1 14X      0.053033
@<TRIPOS>BOND
     1    1    2 3   
     2    1   14 1   
     3    2   21 1   
     4    3    5 3   
     5    3   22 1   
     6    4    8 1   
     7    4    9 1   
     8    4   23 1   
     9    4   24 1   
    10    5   10 1   
    11    6   10 2   
    12    6   18 2   
    13    7    8 1   
    14    7   11 1   
    15    7   25 1   
    16    7   26 1   
    17    8   27 1   
    18    8   28 1   
    19    9   11 1   
    20    9   29 1   
    21    9   30 1   
    22   10   31 1   
    23   11   14 1   
    24   12   16 3   
    25   12   32 1   
    26   13   14 2   
    27   14   15 2   
    28   17   19 2   
    29   17   33 1   
    30   17   34 1   
    31   19   20 1   
    32   20   35 1   
    33   20   36 1   
    34   20   37 1   
@<TRIPOS>SUBSTRUCTURE
     1 14X         1 TEMP              0 ****  ****    0 ROOT
