@<TRIPOS>MOLECULE
14X
   37    39     1     0     0
SMALL
bcc


@<TRIPOS>ATOM
      1 C4         -0.6410   -0.6590   -0.2880 ca        1 14X     -0.419500
      2 C5         -0.3040   -1.5050    0.7770 ca        1 14X      0.025000
      3 C6          0.9880   -1.5760    1.2710 ca        1 14X     -0.215000
      4 C11        -4.4170    1.2800    1.8310 c3        1 14X     -0.083400
      5 C7          2.0050   -0.7780    0.6920 ca        1 14X      0.157600
      6 C8          4.3530   -0.0920    0.5430 c         1 14X      0.812500
      7 C9         -3.0710    1.8480   -0.1360 c3        1 14X      0.231300
      8 C10        -4.0280    2.4360    0.9150 c3        1 14X     -0.083400
      9 C12        -3.6900    0.0390    1.2870 c3        1 14X      0.231300
     10 N1          3.3050   -0.8040    1.1700 n         1 14X     -0.467100
     11 N2         -2.9720    0.4220    0.0910 n3        1 14X     -0.833500
     12 C3          0.3690    0.1190   -0.8650 ca        1 14X      0.028000
     13 O2         -2.1670   -0.0830   -2.2010 o         1 14X     -0.656300
     14 S          -2.2140   -0.6160   -0.8930 sy        1 14X      1.528200
     15 O1         -2.7810   -1.9010   -0.7450 o         1 14X     -0.656300
     16 C2          1.6750    0.0740   -0.3950 ca        1 14X     -0.185300
     17 C1          2.7260    0.9300   -1.0320 c3        1 14X      0.151300
     18 O           5.5050   -0.2020    1.0210 o         1 14X     -0.652500
     19 N           4.0800    0.6620   -0.6030 n         1 14X     -0.462800
     20 C           5.0990    1.5320   -1.1230 c3        1 14X      0.083300
     21 H1         -1.0890   -2.1440    1.2220 ha        1 14X      0.152000
     22 H2          1.2220   -2.2530    2.1060 ha        1 14X      0.146000
     23 H4         -5.5220    1.1160    1.8210 hc        1 14X      0.053200
     24 H5         -3.4510    2.0410   -1.1780 h1        1 14X      0.046200
     25 H6         -2.0540    2.3210   -0.0420 h1        1 14X      0.046200
     26 H7         -4.9280    2.8730    0.4170 hc        1 14X      0.053200
     27 H8         -3.5210    3.2500    1.4870 hc        1 14X      0.053200
     28 H9         -2.9670   -0.3570    2.0550 h1        1 14X      0.046200
     29 H10        -4.4220   -0.7820    1.0440 h1        1 14X      0.046200
     30 H11         3.5570   -1.4190    1.9110 hn        1 14X      0.349500
     31 H12         0.1220    0.7710   -1.7240 ha        1 14X      0.159000
     32 H13         2.6930    0.7820   -2.1530 h1        1 14X      0.052700
     33 H14         2.4760    2.0160   -0.8280 h1        1 14X      0.052700
     34 H15         4.9310    2.5920   -0.7890 h1        1 14X      0.052367
     35 H16         6.1090    1.1920   -0.7720 h1        1 14X      0.052367
     36 H17         5.0620    1.4950   -2.2450 h1        1 14X      0.052367
     37 H3         -4.1070    1.4790    2.8850 hc        1 14X      0.053200
@<TRIPOS>BOND
     1    1    2 ar  
     2    1   12 ar  
     3    1   14 1   
     4    2    3 ar  
     5    2   21 1   
     6    3    5 ar  
     7    3   22 1   
     8    4    8 1   
     9    4    9 1   
    10    4   23 1   
    11    4   37 1   
    12    5   10 1   
    13    5   16 ar  
    14    6   10 1   
    15    6   18 2   
    16    6   19 1   
    17    7    8 1   
    18    7   11 1   
    19    7   24 1   
    20    7   25 1   
    21    8   26 1   
    22    8   27 1   
    23    9   11 1   
    24    9   28 1   
    25    9   29 1   
    26   10   30 1   
    27   11   14 1   
    28   12   16 ar  
    29   12   31 1   
    30   13   14 2   
    31   14   15 2   
    32   16   17 1   
    33   17   19 1   
    34   17   32 1   
    35   17   33 1   
    36   19   20 1   
    37   20   34 1   
    38   20   35 1   
    39   20   36 1   
@<TRIPOS>SUBSTRUCTURE
     1 14X         1 TEMP              0 ****  ****    0 ROOT
