@<TRIPOS>MOLECULE
14Y
   57    56     1     0     0
SMALL
bcc


@<TRIPOS>ATOM
      1 O2          0.0480    0.6740   -2.7480 os        1 14Y     -0.443900
      2 C1          1.1550    1.2700   -2.2020 c         1 14Y      0.629100
      3 O1          0.9840    2.2460   -1.4700 o         1 14Y     -0.541000
      4 C2          2.4310    0.6130   -2.6240 c3        1 14Y     -0.126400
      5 C3          3.4420    0.6150   -1.4980 c3        1 14Y     -0.079400
      6 C4          4.7750    0.0770   -1.9720 c3        1 14Y     -0.078400
      7 C5          5.7860    0.0590   -0.8450 c3        1 14Y     -0.079400
      8 C6          7.1220   -0.4760   -1.3170 c3        1 14Y     -0.080400
      9 C7          8.1350   -0.4890   -0.1930 c3        1 14Y     -0.075400
     10 C8          9.4720   -1.0460   -0.6380 c3        1 14Y     -0.049200
     11 C9          9.4390   -2.5050   -0.8970 c2        1 14Y     -0.174200
     12 C10        10.4610   -3.1890   -1.4230 c2        1 14Y     -0.174200
     13 C11        11.7470   -2.5710   -1.8240 c3        1 14Y     -0.049200
     14 C12        12.7660   -3.6010   -2.2670 c3        1 14Y     -0.077400
     15 C13        14.0690   -2.9430   -2.6660 c3        1 14Y     -0.079400
     16 C14        15.0890   -3.9700   -3.1100 c3        1 14Y     -0.079400
     17 C15        16.3930   -3.3130   -3.5090 c3        1 14Y     -0.079400
     18 C16        17.4120   -4.3400   -3.9530 c3        1 14Y     -0.079400
     19 C17        18.7180   -3.6840   -4.3510 c3        1 14Y     -0.080400
     20 C18        19.7360   -4.7030   -4.7940 c3        1 14Y     -0.092100
     21 CA4        -1.2180    1.2480   -2.4240 c3        1 14Y      0.125700
     22 HA41       -1.9490    0.6060   -2.9740 h1        1 14Y      0.050367
     23 HA42       -1.3840    1.2060   -1.3210 h1        1 14Y      0.050367
     24 HA43       -1.2570    2.3070   -2.7760 h1        1 14Y      0.050367
     25 H21C        2.8270    1.1860   -3.5060 hc        1 14Y      0.078200
     26 H22C        2.2210   -0.4360   -2.9640 hc        1 14Y      0.078200
     27 H31C        3.0610   -0.0110   -0.6480 hc        1 14Y      0.057700
     28 H32C        3.5660    1.6610   -1.1090 hc        1 14Y      0.057700
     29 H41C        5.1610    0.7110   -2.8130 hc        1 14Y      0.041200
     30 H42C        4.6420   -0.9620   -2.3740 hc        1 14Y      0.041200
     31 H51C        5.4020   -0.5770   -0.0050 hc        1 14Y      0.042200
     32 H52C        5.9170    1.0970   -0.4410 hc        1 14Y      0.042200
     33 H61C        7.5040    0.1580   -2.1600 hc        1 14Y      0.042200
     34 H62C        6.9930   -1.5160   -1.7170 hc        1 14Y      0.042200
     35 H71C        8.2840    0.5570    0.1840 hc        1 14Y      0.040700
     36 H72C        7.7390   -1.0970    0.6640 hc        1 14Y      0.040700
     37 H81C        9.8130   -0.5080   -1.5650 hc        1 14Y      0.048200
     38 H82C       10.2390   -0.8370    0.1590 hc        1 14Y      0.048200
     39 H9          8.5060   -3.0240   -0.6210 ha        1 14Y      0.122000
     40 H10        10.3770   -4.2770   -1.5850 ha        1 14Y      0.122000
     41 H111       11.5630   -1.8410   -2.6600 hc        1 14Y      0.047200
     42 H112       12.1620   -1.9770   -0.9640 hc        1 14Y      0.047200
     43 H121       12.9510   -4.3290   -1.4340 hc        1 14Y      0.041200
     44 H122       12.3580   -4.1860   -3.1330 hc        1 14Y      0.041200
     45 H131       13.8830   -2.2140   -3.4980 hc        1 14Y      0.039700
     46 H132       14.4770   -2.3590   -1.8000 hc        1 14Y      0.039700
     47 H141       14.6810   -4.5540   -3.9770 hc        1 14Y      0.039700
     48 H142       15.2740   -4.7000   -2.2780 hc        1 14Y      0.039700
     49 H151       16.8000   -2.7290   -2.6420 hc        1 14Y      0.039700
     50 H152       16.2070   -2.5830   -4.3400 hc        1 14Y      0.039700
     51 H161       17.5980   -5.0700   -3.1210 hc        1 14Y      0.039700
     52 H162       17.0060   -4.9230   -4.8200 hc        1 14Y      0.039700
     53 H171       19.1220   -3.0990   -3.4820 hc        1 14Y      0.038700
     54 H172       18.5300   -2.9530   -5.1810 hc        1 14Y      0.038700
     55 H181       20.6890   -4.1980   -5.0820 hc        1 14Y      0.032700
     56 H182       19.9540   -5.4260   -3.9710 hc        1 14Y      0.032700
     57 H183       19.3610   -5.2780   -5.6740 hc        1 14Y      0.032700
@<TRIPOS>BOND
     1    1    2 1   
     2    1   21 1   
     3    2    3 2   
     4    2    4 1   
     5    4    5 1   
     6    4   25 1   
     7    4   26 1   
     8    5    6 1   
     9    5   27 1   
    10    5   28 1   
    11    6    7 1   
    12    6   29 1   
    13    6   30 1   
    14    7    8 1   
    15    7   31 1   
    16    7   32 1   
    17    8    9 1   
    18    8   33 1   
    19    8   34 1   
    20    9   10 1   
    21    9   35 1   
    22    9   36 1   
    23   10   11 1   
    24   10   37 1   
    25   10   38 1   
    26   11   12 2   
    27   11   39 1   
    28   12   13 1   
    29   12   40 1   
    30   13   14 1   
    31   13   41 1   
    32   13   42 1   
    33   14   15 1   
    34   14   43 1   
    35   14   44 1   
    36   15   16 1   
    37   15   45 1   
    38   15   46 1   
    39   16   17 1   
    40   16   47 1   
    41   16   48 1   
    42   17   18 1   
    43   17   49 1   
    44   17   50 1   
    45   18   19 1   
    46   18   51 1   
    47   18   52 1   
    48   19   20 1   
    49   19   53 1   
    50   19   54 1   
    51   20   55 1   
    52   20   56 1   
    53   20   57 1   
    54   21   22 1   
    55   21   23 1   
    56   21   24 1   
@<TRIPOS>SUBSTRUCTURE
     1 14Y         1 TEMP              0 ****  ****    0 ROOT
