@<TRIPOS>MOLECULE
14Y
   57    56     1     0     0
SMALL
bcc


@<TRIPOS>ATOM
      1 O2          9.3100    1.2120   -0.6460 os        1 14Y     -0.443900
      2 C1          8.3860    0.7170    0.2360 c         1 14Y      0.629100
      3 O1          8.5420    0.9620    1.4330 o         1 14Y     -0.541000
      4 C2          7.3160   -0.0830   -0.4370 c3        1 14Y     -0.126400
      5 C3          5.9770    0.1220    0.2380 c3        1 14Y     -0.079400
      6 C4          4.9300   -0.7940   -0.3560 c3        1 14Y     -0.078400
      7 C5          3.5830   -0.5800    0.3010 c3        1 14Y     -0.079400
      8 C6          2.5340   -1.5000   -0.2870 c3        1 14Y     -0.079400
      9 C7          1.1870   -1.2830    0.3680 c3        1 14Y     -0.076400
     10 C8          0.1390   -2.2080   -0.2190 c3        1 14Y     -0.048200
     11 C9         -1.1820   -2.0140    0.4260 c2        1 14Y     -0.172200
     12 C10        -2.3310   -1.9340   -0.2500 c2        1 14Y     -0.170200
     13 C11        -3.6560   -1.7840    0.3980 c3        1 14Y     -0.048200
     14 C12        -4.5040   -0.7410   -0.3030 c3        1 14Y     -0.076400
     15 C13        -5.8600   -0.6090    0.3560 c3        1 14Y     -0.079400
     16 C14        -6.7110    0.4300   -0.3430 c3        1 14Y     -0.079400
     17 C15        -8.0670    0.5640    0.3160 c3        1 14Y     -0.079400
     18 C16        -8.9180    1.6020   -0.3830 c3        1 14Y     -0.079400
     19 C17       -10.2740    1.7370    0.2750 c3        1 14Y     -0.080400
     20 C18       -11.1250    2.7700   -0.4180 c3        1 14Y     -0.092100
     21 CA4        10.3870    1.9690   -0.0940 c3        1 14Y      0.125700
     22 HA41       10.9750    1.3350    0.6130 h1        1 14Y      0.050367
     23 HA42       10.9940    2.2580   -0.9870 h1        1 14Y      0.050367
     24 HA43        9.9890    2.8660    0.4380 h1        1 14Y      0.050367
     25 H21C        7.2590    0.2010   -1.5220 hc        1 14Y      0.078200
     26 H22C        7.6210   -1.1630   -0.3810 hc        1 14Y      0.078200
     27 H31C        6.0800   -0.0730    1.3390 hc        1 14Y      0.057700
     28 H32C        5.6560    1.1910    0.1210 hc        1 14Y      0.057700
     29 H41C        4.8450   -0.6060   -1.4590 hc        1 14Y      0.041200
     30 H42C        5.2450   -1.8630   -0.2260 hc        1 14Y      0.041200
     31 H51C        3.6700   -0.7640    1.4040 hc        1 14Y      0.043200
     32 H52C        3.2650    0.4880    0.1680 hc        1 14Y      0.043200
     33 H61C        2.4490   -1.3170   -1.3910 hc        1 14Y      0.039700
     34 H62C        2.8510   -2.5670   -0.1510 hc        1 14Y      0.039700
     35 H71C        1.2720   -1.4630    1.4730 hc        1 14Y      0.042700
     36 H72C        0.8670   -0.2170    0.2300 hc        1 14Y      0.042700
     37 H81C        0.0690   -2.0370   -1.3270 hc        1 14Y      0.045700
     38 H82C        0.4600   -3.2750   -0.0700 hc        1 14Y      0.045700
     39 H9         -1.1610   -1.9490    1.5270 ha        1 14Y      0.120000
     40 H10        -2.3510   -1.9900   -1.3510 ha        1 14Y      0.120000
     41 H111       -4.1860   -2.7760    0.3670 hc        1 14Y      0.045700
     42 H112       -3.5410   -1.5070    1.4800 hc        1 14Y      0.045700
     43 H121       -3.9760    0.2480   -0.2820 hc        1 14Y      0.041700
     44 H122       -4.6350   -1.0240   -1.3810 hc        1 14Y      0.041700
     45 H131       -6.3860   -1.6000    0.3380 hc        1 14Y      0.039700
     46 H132       -5.7290   -0.3240    1.4330 hc        1 14Y      0.039700
     47 H141       -6.1840    1.4210   -0.3250 hc        1 14Y      0.039700
     48 H142       -6.8430    0.1450   -1.4200 hc        1 14Y      0.039700
     49 H151       -8.5930   -0.4270    0.2980 hc        1 14Y      0.039700
     50 H152       -7.9350    0.8490    1.3930 hc        1 14Y      0.039700
     51 H161       -8.3920    2.5930   -0.3650 hc        1 14Y      0.039700
     52 H162       -9.0500    1.3180   -1.4600 hc        1 14Y      0.039700
     53 H171      -10.7980    0.7450    0.2580 hc        1 14Y      0.038700
     54 H172      -10.1400    2.0200    1.3530 hc        1 14Y      0.038700
     55 H181      -10.6310    3.7720   -0.3890 hc        1 14Y      0.032700
     56 H182      -11.2900    2.4930   -1.4870 hc        1 14Y      0.032700
     57 H183      -12.1200    2.8540    0.0830 hc        1 14Y      0.032700
@<TRIPOS>BOND
     1    1    2 1   
     2    1   21 1   
     3    2    3 2   
     4    2    4 1   
     5    4    5 1   
     6    4   25 1   
     7    4   26 1   
     8    5    6 1   
     9    5   27 1   
    10    5   28 1   
    11    6    7 1   
    12    6   29 1   
    13    6   30 1   
    14    7    8 1   
    15    7   31 1   
    16    7   32 1   
    17    8    9 1   
    18    8   33 1   
    19    8   34 1   
    20    9   10 1   
    21    9   35 1   
    22    9   36 1   
    23   10   11 1   
    24   10   37 1   
    25   10   38 1   
    26   11   12 2   
    27   11   39 1   
    28   12   13 1   
    29   12   40 1   
    30   13   14 1   
    31   13   41 1   
    32   13   42 1   
    33   14   15 1   
    34   14   43 1   
    35   14   44 1   
    36   15   16 1   
    37   15   45 1   
    38   15   46 1   
    39   16   17 1   
    40   16   47 1   
    41   16   48 1   
    42   17   18 1   
    43   17   49 1   
    44   17   50 1   
    45   18   19 1   
    46   18   51 1   
    47   18   52 1   
    48   19   20 1   
    49   19   53 1   
    50   19   54 1   
    51   20   55 1   
    52   20   56 1   
    53   20   57 1   
    54   21   22 1   
    55   21   23 1   
    56   21   24 1   
@<TRIPOS>SUBSTRUCTURE
     1 14Y         1 TEMP              0 ****  ****    0 ROOT
