@<TRIPOS>MOLECULE
14Y
   57    55     1     0     0
SMALL
bcc


@<TRIPOS>ATOM
      1 O2          7.1870   -3.2540    2.4010 os        1 14Y     -0.282000
      2 C1          6.1860   -3.1600    3.3820 c2        1 14Y      0.300000
      3 O1          6.3980   -2.5500    4.4100 o         1 14Y     -0.352000
      4 C2          4.8390   -3.8110    3.1520 c3        1 14Y     -0.155000
      5 C3          3.7840   -3.0810    3.9540 c3        1 14Y     -0.158000
      6 C4          2.4180   -3.3710    3.3710 c3        1 14Y     -0.157000
      7 C5          1.4230   -2.3560    3.8890 c3        1 14Y     -0.158000
      8 C6          0.1600   -2.4180    3.0570 c3        1 14Y     -0.158000
      9 C7         -0.7130   -1.2240    3.3760 c3        1 14Y     -0.156000
     10 C8         -1.5580   -0.8810    2.1690 c3        1 14Y     -0.132000
     11 C9         -2.4660    0.2820    2.5040 c2        1 14Y     -0.171000
     12 C10        -3.0410    0.9950    1.5150 c1        1 14Y     -0.169000
     13 C11        -2.7770    0.6320    0.0700 c2        1 14Y     -0.132000
     14 C12        -3.3530    1.7020   -0.8310 c3        1 14Y     -0.156000
     15 C13        -2.7370    1.5860   -2.2080 c3        1 14Y     -0.158000
     16 C14        -3.3730    2.6020   -3.1320 c3        1 14Y     -0.158000
     17 C15        -2.4640    2.8450   -4.3160 c3        1 14Y     -0.158000
     18 C16        -3.2460    3.5150   -5.4240 c3        1 14Y     -0.158000
     19 C17        -2.3090    3.8790   -6.5550 c3        1 14Y     -0.159000
     20 C18        -3.1110    4.4140   -7.7210 c3        1 14Y     -0.210000
     21 CA4         8.3640   -2.5440    2.7170 c3        1 14Y     -0.064000
     22 HA41        8.6480   -2.7700    3.6290 h1        1 14Y      0.089667
     23 HA42        9.0730   -2.7880    2.0830 h1        1 14Y      0.089667
     24 HA43        8.1900   -1.5800    2.6580 h1        1 14Y      0.089667
     25 H21C        4.6140   -3.7680    2.2010 hc        1 14Y      0.117500
     26 H22C        4.8760   -4.7460    3.4370 hc        1 14Y      0.117500
     27 H31C        3.9550   -2.1190    3.9190 hc        1 14Y      0.097000
     28 H32C        3.8130   -3.3840    4.8830 hc        1 14Y      0.097000
     29 H41C        2.4610   -3.3170    2.3960 hc        1 14Y      0.080500
     30 H42C        2.1350   -4.2690    3.6360 hc        1 14Y      0.080500
     31 H51C        1.8100   -1.4600    3.8280 hc        1 14Y      0.082500
     32 H52C        1.2080   -2.5560    4.8220 hc        1 14Y      0.082500
     33 H61C        0.3950   -2.4060    2.1080 hc        1 14Y      0.079000
     34 H62C       -0.3260   -3.2420    3.2630 hc        1 14Y      0.079000
     35 H71C       -0.1480   -0.4600    3.6070 hc        1 14Y      0.081500
     36 H72C       -1.2950   -1.4390    4.1320 hc        1 14Y      0.081500
     37 H81C       -2.1000   -1.6560    1.9200 hc        1 14Y      0.086500
     38 H82C       -0.9760   -0.6360    1.4230 hc        1 14Y      0.086500
     39 H9         -2.6360    0.5160    3.4360 ha        1 14Y      0.122000
     40 H10        -3.6260    1.7450    1.7310 ha        1 14Y      0.122000
     41 H111       -3.2000   -0.2270   -0.1330 ha        1 14Y      0.087000
     42 H112       -1.8130    0.5640   -0.0790 ha        1 14Y      0.087000
     43 H121       -4.3220    1.5860   -0.8970 hc        1 14Y      0.081000
     44 H122       -3.1540    2.5840   -0.4580 hc        1 14Y      0.081000
     45 H131       -2.8890    0.6860   -2.5590 hc        1 14Y      0.079000
     46 H132       -1.7750    1.7550   -2.1510 hc        1 14Y      0.079000
     47 H141       -3.5110    3.4410   -2.6490 hc        1 14Y      0.079000
     48 H142       -4.2340    2.2610   -3.4470 hc        1 14Y      0.079000
     49 H151       -2.1100    1.9910   -4.6370 hc        1 14Y      0.079000
     50 H152       -1.7230    3.4240   -4.0450 hc        1 14Y      0.079000
     51 H161       -3.6720    4.3250   -5.0790 hc        1 14Y      0.079000
     52 H162       -3.9330    2.9010   -5.7550 hc        1 14Y      0.079000
     53 H171       -1.6810    4.5640   -6.2490 hc        1 14Y      0.078000
     54 H172       -1.8140    3.0850   -6.8370 hc        1 14Y      0.078000
     55 H181       -2.5040    4.8180   -8.3760 hc        1 14Y      0.072000
     56 H182       -3.6050    3.6800   -8.1420 hc        1 14Y      0.072000
     57 H183       -3.7420    5.0920   -7.4000 hc        1 14Y      0.072000
@<TRIPOS>BOND
     1    1    2 1   
     2    1   21 1   
     3    2    3 1   
     4    2    4 1   
     5    4    5 1   
     6    4   25 1   
     7    4   26 1   
     8    5    6 1   
     9    5   27 1   
    10    5   28 1   
    11    6    7 1   
    12    6   29 1   
    13    6   30 1   
    14    7    8 1   
    15    7   31 1   
    16    7   32 1   
    17    8    9 1   
    18    8   33 1   
    19    8   34 1   
    20    9   10 1   
    21    9   35 1   
    22    9   36 1   
    23   10   11 1   
    24   10   37 1   
    25   10   38 1   
    26   11   12 1   
    27   11   39 1   
    28   12   40 1   
    29   13   14 1   
    30   13   41 1   
    31   13   42 1   
    32   14   15 1   
    33   14   43 1   
    34   14   44 1   
    35   15   16 1   
    36   15   45 1   
    37   15   46 1   
    38   16   17 1   
    39   16   47 1   
    40   16   48 1   
    41   17   18 1   
    42   17   49 1   
    43   17   50 1   
    44   18   19 1   
    45   18   51 1   
    46   18   52 1   
    47   19   20 1   
    48   19   53 1   
    49   19   54 1   
    50   20   55 1   
    51   20   56 1   
    52   20   57 1   
    53   21   22 1   
    54   21   23 1   
    55   21   24 1   
@<TRIPOS>SUBSTRUCTURE
     1 14Y         1 TEMP              0 ****  ****    0 ROOT
