@<TRIPOS>MOLECULE
14Y
   57    56     1     0     0
SMALL
bcc


@<TRIPOS>ATOM
      1 O2         -0.0140    0.2800   -1.0410 os        1 14Y     -0.443900
      2 C1          1.2130    0.3620   -0.4370 c         1 14Y      0.629100
      3 O1          1.2800    0.9130    0.6640 o         1 14Y     -0.541000
      4 C2          2.2980   -0.2740   -1.2460 c3        1 14Y     -0.126400
      5 C3          3.5970    0.4930   -1.1140 c3        1 14Y     -0.079400
      6 C4          4.7220   -0.2310   -1.8210 c3        1 14Y     -0.078400
      7 C5          6.0200    0.5400   -1.7090 c3        1 14Y     -0.079400
      8 C6          7.1500   -0.1850   -2.4090 c3        1 14Y     -0.080400
      9 C7          8.4470    0.5890   -2.3030 c3        1 14Y     -0.075400
     10 C8          9.5960   -0.1340   -2.9750 c3        1 14Y     -0.048200
     11 C9         10.0250   -1.3520   -2.2480 c2        1 14Y     -0.176200
     12 C10        10.9180   -2.2260   -2.7240 c2        1 14Y     -0.173200
     13 C11        11.5770   -2.0950   -4.0450 c3        1 14Y     -0.049200
     14 C12        12.6660   -3.1220   -4.2740 c3        1 14Y     -0.075400
     15 C13        13.8830   -2.8630   -3.4120 c3        1 14Y     -0.080400
     16 C14        14.9490   -3.9150   -3.6350 c3        1 14Y     -0.079400
     17 C15        16.1680   -3.6510   -2.7770 c3        1 14Y     -0.079400
     18 C16        17.2340   -4.7040   -2.9990 c3        1 14Y     -0.079400
     19 C17        18.4540   -4.4410   -2.1420 c3        1 14Y     -0.080400
     20 C18        19.5170   -5.4870   -2.3590 c3        1 14Y     -0.092100
     21 CA4        -1.1200    0.8370   -0.3310 c3        1 14Y      0.125700
     22 HA41       -1.9900    0.6530   -1.0080 h1        1 14Y      0.050367
     23 HA42       -1.2450    0.3170    0.6490 h1        1 14Y      0.050367
     24 HA43       -0.9540    1.9290   -0.1640 h1        1 14Y      0.050367
     25 H21C        1.9820   -0.3330   -2.3210 hc        1 14Y      0.078200
     26 H22C        2.4250   -1.3250   -0.8680 hc        1 14Y      0.078200
     27 H31C        3.8450    0.6230   -0.0270 hc        1 14Y      0.057700
     28 H32C        3.4730    1.5190   -1.5500 hc        1 14Y      0.057700
     29 H41C        4.4600   -0.3720   -2.9020 hc        1 14Y      0.041200
     30 H42C        4.8530   -1.2530   -1.3750 hc        1 14Y      0.041200
     31 H51C        6.2790    0.6850   -0.6260 hc        1 14Y      0.042200
     32 H52C        5.8920    1.5600   -2.1570 hc        1 14Y      0.042200
     33 H61C        6.8880   -0.3350   -3.4900 hc        1 14Y      0.041700
     34 H62C        7.2840   -1.2030   -1.9570 hc        1 14Y      0.041700
     35 H71C        8.3180    1.5950   -2.7840 hc        1 14Y      0.040700
     36 H72C        8.6920    0.7660   -1.2230 hc        1 14Y      0.040700
     37 H81C        9.3050   -0.4060   -4.0270 hc        1 14Y      0.047200
     38 H82C       10.4730    0.5690   -3.0540 hc        1 14Y      0.047200
     39 H9          9.5660   -1.5090   -1.2590 ha        1 14Y      0.122000
     40 H10        11.2020   -3.1100   -2.1300 ha        1 14Y      0.123000
     41 H111       10.7980   -2.2030   -4.8510 hc        1 14Y      0.047200
     42 H112       12.0080   -1.0610   -4.1490 hc        1 14Y      0.047200
     43 H121       12.2680   -4.1490   -4.0620 hc        1 14Y      0.040200
     44 H122       12.9670   -3.0990   -5.3550 hc        1 14Y      0.040200
     45 H131       14.3010   -1.8490   -3.6460 hc        1 14Y      0.041200
     46 H132       13.5820   -2.8540   -2.3310 hc        1 14Y      0.041200
     47 H141       15.2460   -3.9260   -4.7170 hc        1 14Y      0.038700
     48 H142       14.5330   -4.9290   -3.3960 hc        1 14Y      0.038700
     49 H151       15.8710   -3.6390   -1.6950 hc        1 14Y      0.039700
     50 H152       16.5850   -2.6380   -3.0170 hc        1 14Y      0.039700
     51 H161       16.8170   -5.7170   -2.7590 hc        1 14Y      0.039700
     52 H162       17.5310   -4.7170   -4.0810 hc        1 14Y      0.039700
     53 H171       18.1550   -4.4270   -1.0600 hc        1 14Y      0.038700
     54 H172       18.8680   -3.4270   -2.3820 hc        1 14Y      0.038700
     55 H181       20.4070   -5.2740   -1.7180 hc        1 14Y      0.032700
     56 H182       19.1310   -6.5020   -2.1010 hc        1 14Y      0.032700
     57 H183       19.8460   -5.4990   -3.4260 hc        1 14Y      0.032700
@<TRIPOS>BOND
     1    1    2 1   
     2    1   21 1   
     3    2    3 2   
     4    2    4 1   
     5    4    5 1   
     6    4   25 1   
     7    4   26 1   
     8    5    6 1   
     9    5   27 1   
    10    5   28 1   
    11    6    7 1   
    12    6   29 1   
    13    6   30 1   
    14    7    8 1   
    15    7   31 1   
    16    7   32 1   
    17    8    9 1   
    18    8   33 1   
    19    8   34 1   
    20    9   10 1   
    21    9   35 1   
    22    9   36 1   
    23   10   11 1   
    24   10   37 1   
    25   10   38 1   
    26   11   12 2   
    27   11   39 1   
    28   12   13 1   
    29   12   40 1   
    30   13   14 1   
    31   13   41 1   
    32   13   42 1   
    33   14   15 1   
    34   14   43 1   
    35   14   44 1   
    36   15   16 1   
    37   15   45 1   
    38   15   46 1   
    39   16   17 1   
    40   16   47 1   
    41   16   48 1   
    42   17   18 1   
    43   17   49 1   
    44   17   50 1   
    45   18   19 1   
    46   18   51 1   
    47   18   52 1   
    48   19   20 1   
    49   19   53 1   
    50   19   54 1   
    51   20   55 1   
    52   20   56 1   
    53   20   57 1   
    54   21   22 1   
    55   21   23 1   
    56   21   24 1   
@<TRIPOS>SUBSTRUCTURE
     1 14Y         1 TEMP              0 ****  ****    0 ROOT
