@<TRIPOS>MOLECULE
14Z
   33    34     1     0     0
SMALL
bcc


@<TRIPOS>ATOM
      1 CAO        -5.0480    1.1010    2.1370 c3        1 14Z     -0.111100
      2 CAN        -3.7680    1.2220    1.3230 c3        1 14Z      0.225800
      3 NAM        -3.0870   -0.0210    1.1010 n3        1 14Z     -0.922100
      4 SAP        -2.5630   -0.5450   -0.3340 sy        1 14Z      1.523200
      5 OAQ        -2.5480   -1.9580   -0.3120 o         1 14Z     -0.658300
      6 OAR        -3.2820    0.0820   -1.3760 o         1 14Z     -0.658300
      7 CAA        -0.9680   -0.0070   -0.3910 ca        1 14Z     -0.424500
      8 CAF         0.0750   -0.8150    0.0750 ca        1 14Z      0.028000
      9 CAE         1.3980   -0.3980    0.0110 ca        1 14Z     -0.184300
     10 CAJ         2.4900   -1.3030    0.4920 c3        1 14Z      0.147300
     11 NAI         3.7930   -0.6840    0.6070 n         1 14Z     -0.457800
     12 CAL         4.8790   -1.5570    0.9620 c3        1 14Z      0.080300
     13 CAH         4.0860    0.5210   -0.0450 c         1 14Z      0.810500
     14 OAK         5.2470    0.9840   -0.1190 o         1 14Z     -0.650500
     15 NAG         3.0320    1.2850   -0.5960 n         1 14Z     -0.468100
     16 CAD         1.7110    0.8750   -0.5340 ca        1 14Z      0.158600
     17 CAC         0.6590    1.6920   -1.0160 ca        1 14Z     -0.215000
     18 CAB        -0.6490    1.2410   -0.9420 ca        1 14Z      0.026000
     19 H1         -5.4930    2.1170    2.2580 hc        1 14Z      0.044033
     20 H2         -5.7910    0.4440    1.6250 hc        1 14Z      0.044033
     21 H3         -4.8430    0.6800    3.1500 hc        1 14Z      0.044033
     22 H4         -4.0180    1.6760    0.3190 h1        1 14Z      0.048200
     23 H5         -3.0730    1.9340    1.8600 h1        1 14Z      0.048200
     24 H6         -2.9830   -0.5690    1.9210 hn        1 14Z      0.446800
     25 H7         -0.1590   -1.8150    0.4840 ha        1 14Z      0.156000
     26 H8          2.2200   -1.7000    1.5160 h1        1 14Z      0.053700
     27 H9          2.5530   -2.1910   -0.2080 h1        1 14Z      0.053700
     28 H10         5.0330   -2.3510    0.1810 h1        1 14Z      0.053033
     29 H11         5.8260   -0.9630    1.0720 h1        1 14Z      0.053033
     30 H12         4.6330   -2.0510    1.9390 h1        1 14Z      0.053033
     31 H13         3.2670    2.1780   -0.9690 hn        1 14Z      0.350500
     32 H14         0.8770    2.6770   -1.4540 ha        1 14Z      0.147000
     33 H15        -1.4630    1.8740   -1.3400 ha        1 14Z      0.155000
@<TRIPOS>BOND
     1    1    2 1   
     2    1   19 1   
     3    1   20 1   
     4    1   21 1   
     5    2    3 1   
     6    2   22 1   
     7    2   23 1   
     8    3    4 1   
     9    3   24 1   
    10    4    5 2   
    11    4    6 2   
    12    4    7 1   
    13    7    8 ar  
    14    7   18 ar  
    15    8    9 ar  
    16    8   25 1   
    17    9   10 1   
    18    9   16 ar  
    19   10   11 1   
    20   10   26 1   
    21   10   27 1   
    22   11   12 1   
    23   11   13 1   
    24   12   28 1   
    25   12   29 1   
    26   12   30 1   
    27   13   14 2   
    28   13   15 1   
    29   15   16 1   
    30   15   31 1   
    31   16   17 ar  
    32   17   18 ar  
    33   17   32 1   
    34   18   33 1   
@<TRIPOS>SUBSTRUCTURE
     1 14Z         1 TEMP              0 ****  ****    0 ROOT
