@<TRIPOS>MOLECULE
14Z
   34    35     1     0     0
SMALL
bcc


@<TRIPOS>ATOM
      1 CAO        -0.2280   -0.2250    0.1280 c3        1 14Z     -0.130100
      2 CAN         1.1590   -0.7100    0.4930 c3        1 14Z      0.106800
      3 NAM         2.0900    0.3680    0.8940 n4        1 14Z     -0.695900
      4 SAP         3.8790   -0.2970    1.2800 sy        1 14Z      1.508200
      5 OAQ         3.7950   -0.3660    2.6570 o         1 14Z     -0.580300
      6 OAR         3.9140   -1.4360    0.5030 o         1 14Z     -0.580300
      7 CAA         4.6790    0.9400    0.7120 ca        1 14Z     -0.637500
      8 CAF         5.0670    2.0180    1.5510 ca        1 14Z      0.054000
      9 CAE         5.8260    3.0670    1.0910 ca        1 14Z     -0.186300
     10 CAJ         6.2560    4.1580    2.0270 c3        1 14Z      0.138300
     11 NAI         6.7950    5.3370    1.3870 n         1 14Z     -0.448800
     12 CAL         7.2610    6.3820    2.2660 c3        1 14Z      0.072300
     13 CAH         7.2940    5.2910    0.0850 c         1 14Z      0.800500
     14 OAK         7.9460    6.2040   -0.4520 o         1 14Z     -0.581500
     15 NAG         6.9770    4.1560   -0.7380 n         1 14Z     -0.431100
     16 CAD         6.2440    3.1050   -0.2830 ca        1 14Z      0.233600
     17 CAC         5.8740    2.0160   -1.1320 ca        1 14Z     -0.224000
     18 CAB         5.1240    0.9800   -0.6360 ca        1 14Z      0.056000
     19 H1         -0.2030    0.4750   -0.7420 hc        1 14Z      0.072033
     20 H2         -0.8490   -1.1130   -0.1560 hc        1 14Z      0.072033
     21 H3         -0.7240    0.2850    0.9890 hc        1 14Z      0.072033
     22 H4          1.6200   -1.2500   -0.3870 hx        1 14Z      0.106200
     23 H5          1.0930   -1.4380    1.3540 hx        1 14Z      0.106200
     24 H6          2.1200    1.0710    0.1610 hn        1 14Z      0.437300
     25 H7          4.7640    1.9960    2.6160 ha        1 14Z      0.166000
     26 H8          5.3690    4.4920    2.6440 h1        1 14Z      0.070200
     27 H9          7.0240    3.7270    2.7410 h1        1 14Z      0.070200
     28 H10         8.1050    6.0170    2.9120 h1        1 14Z      0.068033
     29 H11         6.4050    6.6990    2.9200 h1        1 14Z      0.068033
     30 H12         7.6130    7.2600    1.6610 h1        1 14Z      0.068033
     31 H13         7.2960    4.1950   -1.6860 hn        1 14Z      0.369500
     32 H14         6.2020    2.0070   -2.1850 ha        1 14Z      0.175000
     33 H15         4.8670    0.1330   -1.3020 ha        1 14Z      0.167000
     34 HAM2        1.7190    0.8210    1.7280 hn        1 14Z      0.437300
@<TRIPOS>BOND
     1    1    2 1   
     2    1   19 1   
     3    1   20 1   
     4    1   21 1   
     5    2    3 1   
     6    2   22 1   
     7    2   23 1   
     8    3    4 1   
     9    3   24 1   
    10    3   34 1   
    11    4    5 2   
    12    4    6 2   
    13    4    7 1   
    14    7    8 ar  
    15    7   18 ar  
    16    8    9 ar  
    17    8   25 1   
    18    9   10 1   
    19    9   16 ar  
    20   10   11 1   
    21   10   26 1   
    22   10   27 1   
    23   11   12 1   
    24   11   13 1   
    25   12   28 1   
    26   12   29 1   
    27   12   30 1   
    28   13   14 2   
    29   13   15 1   
    30   15   16 1   
    31   15   31 1   
    32   16   17 ar  
    33   17   18 ar  
    34   17   32 1   
    35   18   33 1   
@<TRIPOS>SUBSTRUCTURE
     1 14Z         1 TEMP              0 ****  ****    0 ROOT
