@<TRIPOS>MOLECULE
14Z
   34    35     1     0     0
SMALL
bcc


@<TRIPOS>ATOM
      1 CAO        -0.2280   -0.2340    0.1450 c3        1 14Z     -0.130100
      2 CAN         1.1650   -0.7180    0.4880 c3        1 14Z      0.106800
      3 NAM         2.0980    0.3590    0.8870 n4        1 14Z     -0.695900
      4 SAP         3.8930   -0.3060    1.2440 sy        1 14Z      1.508200
      5 OAQ         3.8240   -0.3980    2.6200 o         1 14Z     -0.580300
      6 OAR         3.9240   -1.4330    0.4490 o         1 14Z     -0.580300
      7 CAA         4.6840    0.9420    0.6880 ca        1 14Z     -0.637500
      8 CAF         5.0770    2.0080    1.5390 ca        1 14Z      0.054000
      9 CAE         5.8270    3.0670    1.0880 ca        1 14Z     -0.186300
     10 CAJ         6.2650    4.1430    2.0380 c3        1 14Z      0.138300
     11 NAI         6.7930    5.3350    1.4100 n         1 14Z     -0.448800
     12 CAL         7.2640    6.3670    2.3020 c3        1 14Z      0.072300
     13 CAH         7.2770    5.3110    0.1030 c         1 14Z      0.800500
     14 OAK         7.9210    6.2350   -0.4260 o         1 14Z     -0.581500
     15 NAG         6.9560    4.1880   -0.7350 n         1 14Z     -0.431100
     16 CAD         6.2310    3.1280   -0.2890 ca        1 14Z      0.233600
     17 CAC         5.8550    2.0510   -1.1510 ca        1 14Z     -0.224000
     18 CAB         5.1140    1.0050   -0.6650 ca        1 14Z      0.056000
     19 H1         -0.2150    0.4740   -0.7200 hc        1 14Z      0.072033
     20 H2         -0.7150    0.2690    1.0160 hc        1 14Z      0.072033
     21 H3         -0.8500   -1.1210   -0.1390 hc        1 14Z      0.072033
     22 H4          1.6150   -1.2500   -0.4020 hx        1 14Z      0.106200
     23 H5          1.1110   -1.4530    1.3440 hx        1 14Z      0.106200
     24 H6          1.7370    0.8040    1.7280 hn        1 14Z      0.437300
     25 H7          4.7850    1.9680    2.6070 ha        1 14Z      0.166000
     26 H8          7.0420    3.7040    2.7360 h1        1 14Z      0.070200
     27 H9          5.3830    4.4650    2.6700 h1        1 14Z      0.070200
     28 H10         8.1160    5.9950    2.9320 h1        1 14Z      0.068033
     29 H11         7.6060    7.2560    1.7060 h1        1 14Z      0.068033
     30 H12         6.4140    6.6700    2.9690 h1        1 14Z      0.068033
     31 H13         7.2650    4.2430   -1.6850 hn        1 14Z      0.369500
     32 H14         6.1720    2.0600   -2.2080 ha        1 14Z      0.175000
     33 H15         4.8530    0.1680   -1.3420 ha        1 14Z      0.167000
     34 HAM2        2.1180    1.0670    0.1580 hn        1 14Z      0.437300
@<TRIPOS>BOND
     1    1    2 1   
     2    1   19 1   
     3    1   20 1   
     4    1   21 1   
     5    2    3 1   
     6    2   22 1   
     7    2   23 1   
     8    3    4 1   
     9    3   24 1   
    10    3   34 1   
    11    4    5 2   
    12    4    6 2   
    13    4    7 1   
    14    7    8 ar  
    15    7   18 ar  
    16    8    9 ar  
    17    8   25 1   
    18    9   10 1   
    19    9   16 ar  
    20   10   11 1   
    21   10   26 1   
    22   10   27 1   
    23   11   12 1   
    24   11   13 1   
    25   12   28 1   
    26   12   29 1   
    27   12   30 1   
    28   13   14 2   
    29   13   15 1   
    30   15   16 1   
    31   15   31 1   
    32   16   17 ar  
    33   17   18 ar  
    34   17   32 1   
    35   18   33 1   
@<TRIPOS>SUBSTRUCTURE
     1 14Z         1 TEMP              0 ****  ****    0 ROOT
