@<TRIPOS>MOLECULE
14Z
   34    35     1     0     0
SMALL
bcc


@<TRIPOS>ATOM
      1 CAO        -0.2230   -0.2400    0.1450 c3        1 14Z     -0.130100
      2 CAN         1.1680   -0.7210    0.5010 c3        1 14Z      0.106800
      3 NAM         2.0970    0.3600    0.8990 ny        1 14Z     -0.695900
      4 SAP         3.8900   -0.3000    1.2750 sy        1 14Z      1.508200
      5 OAQ         3.8130   -0.3740    2.6520 o         1 14Z     -0.580300
      6 OAR         3.9250   -1.4370    0.4940 o         1 14Z     -0.580300
      7 CAA         4.6840    0.9410    0.7070 ca        1 14Z     -0.637500
      8 CAF         5.0720    2.0180    1.5470 ca        1 14Z      0.054000
      9 CAE         5.8250    3.0710    1.0860 ca        1 14Z     -0.186300
     10 CAJ         6.2570    4.1600    2.0240 c3        1 14Z      0.138300
     11 NAI         6.7880    5.3430    1.3850 n         1 14Z     -0.448800
     12 CAL         7.2540    6.3870    2.2650 c3        1 14Z      0.072300
     13 CAH         7.2800    5.3030    0.0800 c         1 14Z      0.800500
     14 OAK         7.9260    6.2200   -0.4570 o         1 14Z     -0.581500
     15 NAG         6.9630    4.1690   -0.7440 ns        1 14Z     -0.431100
     16 CAD         6.2370    3.1140   -0.2890 ca        1 14Z      0.233600
     17 CAC         5.8650    2.0260   -1.1390 ca        1 14Z     -0.224000
     18 CAB         5.1220    0.9870   -0.6430 ca        1 14Z      0.056000
     19 H1         -0.7160    0.2670    1.0090 hc        1 14Z      0.072033
     20 H2         -0.2050    0.4620   -0.7240 hc        1 14Z      0.072033
     21 H3         -0.8420   -1.1290   -0.1380 hc        1 14Z      0.072033
     22 H4          1.6260   -1.2580   -0.3820 hx        1 14Z      0.106200
     23 H5          1.1090   -1.4500    1.3610 hx        1 14Z      0.106200
     24 H6          2.1220    1.0630    0.1670 hn        1 14Z      0.437300
     25 H7          4.7740    1.9920    2.6140 ha        1 14Z      0.166000
     26 H8          5.3720    4.4890    2.6470 h1        1 14Z      0.070200
     27 H9          7.0300    3.7300    2.7330 h1        1 14Z      0.070200
     28 H10         7.5990    7.2690    1.6600 h1        1 14Z      0.068033
     29 H11         8.1030    6.0230    2.9050 h1        1 14Z      0.068033
     30 H12         6.4000    6.6990    2.9240 h1        1 14Z      0.068033
     31 H13         7.2780    4.2120   -1.6940 hn        1 14Z      0.369500
     32 H14         6.1890    2.0220   -2.1940 ha        1 14Z      0.175000
     33 H15         4.8650    0.1400   -1.3110 ha        1 14Z      0.167000
     34 HAM2        1.7290    0.8100    1.7350 hn        1 14Z      0.437300
@<TRIPOS>BOND
     1    1    2 1   
     2    1   19 1   
     3    1   20 1   
     4    1   21 1   
     5    2    3 1   
     6    2   22 1   
     7    2   23 1   
     8    3    4 1   
     9    3   24 1   
    10    3   34 1   
    11    4    5 2   
    12    4    6 2   
    13    4    7 1   
    14    7    8 ar  
    15    7   18 ar  
    16    8    9 ar  
    17    8   25 1   
    18    9   10 1   
    19    9   16 ar  
    20   10   11 1   
    21   10   26 1   
    22   10   27 1   
    23   11   12 1   
    24   11   13 1   
    25   12   28 1   
    26   12   29 1   
    27   12   30 1   
    28   13   14 2   
    29   13   15 1   
    30   15   16 1   
    31   15   31 1   
    32   16   17 ar  
    33   17   18 ar  
    34   17   32 1   
    35   18   33 1   
@<TRIPOS>SUBSTRUCTURE
     1 14Z         1 TEMP              0 ****  ****    0 ROOT
