@<TRIPOS>MOLECULE
14Z
   33    29     1     0     0
SMALL
bcc


@<TRIPOS>ATOM
      1 CAO        -4.2180   -3.3500   -1.5550 c3        1 14Z     -0.229000
      2 CAN        -2.8050   -3.2460   -2.1460 c3        1 14Z     -0.011000
      3 NAM        -2.0630   -2.2200   -1.4470 n3        1 14Z     -0.895000
      4 SAP        -0.4300   -2.3860   -1.2210 s4        1 14Z      2.078800
      5 OAQ        -0.1410   -3.3660   -0.2120 o         1 14Z     -0.545400
      6 OAR         0.1970   -2.9750   -2.3680 o         1 14Z     -0.545400
      7 CAA         0.3030   -0.8100   -0.8220 c1        1 14Z     -0.869000
      8 CAF         0.2980   -0.2560    0.4550 c1        1 14Z      0.028000
      9 CAE         1.0520    0.9000    0.7210 c1        1 14Z     -0.177000
     10 CAJ         1.0840    1.4750    2.1130 c3        1 14Z      0.024000
     11 NAI         1.6390    2.7500    2.3070 n3        1 14Z     -0.316000
     12 CAL         1.5310    3.3820    3.5650 c3        1 14Z     -0.075000
     13 CAH         2.3860    3.3730    1.2540 c1        1 14Z      0.401000
     14 OAK         2.8820    4.4670    1.4290 o         1 14Z     -0.375000
     15 NAG         2.4960    2.7310   -0.0270 n2        1 14Z     -0.322000
     16 CAD         1.7930    1.4810   -0.2770 c1        1 14Z      0.166000
     17 CAC         1.7970    0.9170   -1.5700 c1        1 14Z     -0.094500
     18 CAB         1.0520   -0.2230   -1.8320 c1        1 14Z     -0.094500
     19 H1         -4.7150   -4.0620   -2.0170 hc        1 14Z      0.083333
     20 H2         -4.6870   -2.4940   -1.6730 hc        1 14Z      0.083333
     21 H3         -4.1570   -3.5600   -0.5990 hc        1 14Z      0.083333
     22 H4         -2.3450   -4.1070   -2.0460 h1        1 14Z      0.087500
     23 H5         -2.8630   -3.0160   -3.1000 h1        1 14Z      0.087500
     24 H6         -2.5020   -1.5050   -1.0890 hn        1 14Z      0.242000
     25 H7         -0.1520   -0.7180    1.1810 ha        1 14Z      0.156000
     26 H8          0.1600    1.5040    2.4410 h1        1 14Z      0.093000
     27 H9          1.5840    0.8470    2.6800 h1        1 14Z      0.093000
     28 H10         0.9210    2.8750    4.1320 h1        1 14Z      0.092333
     29 H11         2.4190    3.4210    3.9900 h1        1 14Z      0.092333
     30 H12         1.1870    4.2920    3.4440 h1        1 14Z      0.092333
     31 H13         2.9720    3.1290   -0.6970 hn        1 14Z      0.264000
     32 H14         2.3210    1.3280   -2.2770 ha        1 14Z      0.151000
     33 H15         1.0060   -0.5770   -2.7400 ha        1 14Z      0.151000
@<TRIPOS>BOND
     1    1    2 1   
     2    1   19 1   
     3    1   20 1   
     4    1   21 1   
     5    2    3 1   
     6    2   22 1   
     7    2   23 1   
     8    3    4 1   
     9    3   24 1   
    10    4    5 1   
    11    4    6 1   
    12    7    8 1   
    13    8   25 1   
    14    9   10 1   
    15    9   16 1   
    16   10   11 1   
    17   10   26 1   
    18   10   27 1   
    19   11   12 1   
    20   11   13 1   
    21   12   28 1   
    22   12   29 1   
    23   12   30 1   
    24   13   14 1   
    25   15   16 1   
    26   15   31 1   
    27   17   18 1   
    28   17   32 1   
    29   18   33 1   
@<TRIPOS>SUBSTRUCTURE
     1 14Z         1 TEMP              0 ****  ****    0 ROOT
