@<TRIPOS>MOLECULE
150
   22    22     1     0     0
SMALL
bcc


@<TRIPOS>ATOM
      1 N1         -0.0660    0.0770   -0.0190 nh        1 150     -0.802200
      2 N2          1.3650   -0.1210    2.4720 nh        1 150     -0.802200
      3 C1          1.3440    0.0780    0.0090 ca        1 150      0.080600
      4 C2          2.0530   -0.1010    1.2410 ca        1 150      0.080600
      5 C3          3.4580   -0.1670    1.2040 ca        1 150     -0.157000
      6 C4          4.1700   -0.0700    0.0100 ca        1 150     -0.079300
      7 C5          3.4750    0.0910   -1.1980 ca        1 150     -0.079300
      8 C6          2.0830    0.1670   -1.1850 ca        1 150     -0.157000
      9 C7          5.6500   -0.1410    0.0200 c3        1 150     -0.047800
     10 C8          4.2120    0.1850   -2.4800 c3        1 150     -0.047800
     11 HN11       -0.4270    0.3350   -0.9150 hn        1 150      0.376800
     12 HN12       -0.4670    0.6420    0.7020 hn        1 150      0.376800
     13 HN21        0.5490   -0.6990    2.4490 hn        1 150      0.376800
     14 HN22        1.9600   -0.3770    3.2330 hn        1 150      0.376800
     15 H3          4.0180   -0.2970    2.1450 ha        1 150      0.128000
     16 H6          1.5520    0.2970   -2.1420 ha        1 150      0.128000
     17 H71         6.0470   -0.2730    1.0560 hc        1 150      0.041367
     18 H72         6.0840    0.7980   -0.4080 hc        1 150      0.041367
     19 H73         6.0000   -1.0000   -0.6060 hc        1 150      0.041367
     20 H81         4.8160   -0.7430   -2.6470 hc        1 150      0.041367
     21 H82         3.5170    0.3140   -3.3440 hc        1 150      0.041367
     22 H83         4.9160    1.0550   -2.4580 hc        1 150      0.041367
@<TRIPOS>BOND
     1    1    3 1   
     2    1   11 1   
     3    1   12 1   
     4    2    4 1   
     5    2   13 1   
     6    2   14 1   
     7    3    4 ar  
     8    3    8 ar  
     9    4    5 ar  
    10    5    6 ar  
    11    5   15 1   
    12    6    7 ar  
    13    6    9 1   
    14    7    8 ar  
    15    7   10 1   
    16    8   16 1   
    17    9   17 1   
    18    9   18 1   
    19    9   19 1   
    20   10   20 1   
    21   10   21 1   
    22   10   22 1   
@<TRIPOS>SUBSTRUCTURE
     1 150         1 TEMP              0 ****  ****    0 ROOT
