@<TRIPOS>MOLECULE
150
   24    24     1     0     0
SMALL
bcc


@<TRIPOS>ATOM
      1 N1         -0.0800    0.0010   -0.0780 n4        1 150     -0.715000
      2 N2          1.4310   -0.0020    2.5290 n4        1 150     -0.715000
      3 C1          1.3810    0.0010   -0.0060 ca        1 150     -0.052400
      4 C2          2.0950   -0.0000    1.2250 ca        1 150     -0.052400
      5 C3          3.4970    0.0000    1.2010 ca        1 150     -0.073000
      6 C4          4.2080    0.0020   -0.0080 ca        1 150      0.018700
      7 C5          3.5020    0.0040   -1.2270 ca        1 150      0.018700
      8 C6          2.0980    0.0030   -1.2110 ca        1 150     -0.073000
      9 C7          5.6860    0.0030    0.0050 c3        1 150     -0.097800
     10 C8          4.2250    0.0060   -2.5160 c3        1 150     -0.097800
     11 HN11       -0.4690   -0.8420    0.3620 hn        1 150      0.478133
     12 HN12       -0.4700    0.8420    0.3650 hn        1 150      0.478133
     13 HN21        0.8540    0.8400    2.6490 hn        1 150      0.478133
     14 HN22        0.8540   -0.8450    2.6460 hn        1 150      0.478133
     15 H3          4.0810   -0.0010    2.1430 ha        1 150      0.190000
     16 H6          1.5710    0.0040   -2.1860 ha        1 150      0.190000
     17 H71         6.0770   -0.9020   -0.5340 hc        1 150      0.098033
     18 H72         6.1000    0.0020    1.0440 hc        1 150      0.098033
     19 H73         6.0760    0.9100   -0.5310 hc        1 150      0.098033
     20 H81         4.8860   -0.9000   -2.5890 hc        1 150      0.098033
     21 H82         4.8850    0.9120   -2.5870 hc        1 150      0.098033
     22 H83         3.5300    0.0070   -3.3920 hc        1 150      0.098033
     23 H13        -0.3730    0.0020   -1.0710 hn        1 150      0.478133
     24 H23         2.1470   -0.0030    3.2770 hn        1 150      0.478133
@<TRIPOS>BOND
     1    1    3 1   
     2    1   11 1   
     3    1   12 1   
     4    1   23 1   
     5    2    4 1   
     6    2   13 1   
     7    2   14 1   
     8    2   24 1   
     9    3    4 ar  
    10    3    8 ar  
    11    4    5 ar  
    12    5    6 ar  
    13    5   15 1   
    14    6    7 ar  
    15    6    9 1   
    16    7    8 ar  
    17    7   10 1   
    18    8   16 1   
    19    9   17 1   
    20    9   18 1   
    21    9   19 1   
    22   10   20 1   
    23   10   21 1   
    24   10   22 1   
@<TRIPOS>SUBSTRUCTURE
     1 150         1 TEMP              0 ****  ****    0 ROOT
