@<TRIPOS>MOLECULE
150
   22    22     1     0     0
SMALL
bcc


@<TRIPOS>ATOM
      1 N1         -1.4400   -0.0280   -2.4500 nh        1 150     -0.802200
      2 N2          1.4400    0.0280   -2.4500 nh        1 150     -0.802200
      3 C1         -0.7160    0.0260   -1.2410 ca        1 150      0.080600
      4 C2          0.7160   -0.0260   -1.2410 ca        1 150      0.080600
      5 C3          1.3880   -0.0450   -0.0050 ca        1 150     -0.157000
      6 C4          0.7010   -0.0180    1.2080 ca        1 150     -0.079300
      7 C5         -0.7010    0.0180    1.2080 ca        1 150     -0.079300
      8 C6         -1.3880    0.0450   -0.0050 ca        1 150     -0.157000
      9 C7          1.4510   -0.0340    2.4860 c3        1 150     -0.047800
     10 C8         -1.4500    0.0340    2.4860 c3        1 150     -0.047800
     11 HN11       -2.4150    0.1430   -2.3150 hn        1 150      0.376800
     12 HN12       -1.0660    0.5780   -3.1510 hn        1 150      0.376800
     13 HN21        2.4150   -0.1430   -2.3150 hn        1 150      0.376800
     14 HN22        1.0660   -0.5790   -3.1510 hn        1 150      0.376800
     15 H3          2.4890   -0.0770    0.0120 ha        1 150      0.128000
     16 H6         -2.4900    0.0770    0.0120 ha        1 150      0.128000
     17 H71         1.2260    0.8910    3.0760 hc        1 150      0.041367
     18 H72         1.1480   -0.9180    3.1020 hc        1 150      0.041367
     19 H73         2.5540   -0.0840    2.3140 hc        1 150      0.041367
     20 H81        -1.2260   -0.8900    3.0760 hc        1 150      0.041367
     21 H82        -1.1480    0.9190    3.1020 hc        1 150      0.041367
     22 H83        -2.5530    0.0840    2.3140 hc        1 150      0.041367
@<TRIPOS>BOND
     1    1    3 1   
     2    1   11 1   
     3    1   12 1   
     4    2    4 1   
     5    2   13 1   
     6    2   14 1   
     7    3    4 ar  
     8    3    8 ar  
     9    4    5 ar  
    10    5    6 ar  
    11    5   15 1   
    12    6    7 ar  
    13    6    9 1   
    14    7    8 ar  
    15    7   10 1   
    16    8   16 1   
    17    9   17 1   
    18    9   18 1   
    19    9   19 1   
    20   10   20 1   
    21   10   21 1   
    22   10   22 1   
@<TRIPOS>SUBSTRUCTURE
     1 150         1 TEMP              0 ****  ****    0 ROOT
