@<TRIPOS>MOLECULE
150
   22    22     1     0     0
SMALL
bcc


@<TRIPOS>ATOM
      1 N1         -0.0650    0.0780    0.0010 nv        1 150     -0.802200
      2 N2          1.3830   -0.1020    2.4840 nv        1 150     -0.802200
      3 C1          1.3450    0.0790    0.0200 ca        1 150      0.080600
      4 C2          2.0620   -0.0900    1.2480 ca        1 150      0.080600
      5 C3          3.4670   -0.1570    1.2030 ca        1 150     -0.157000
      6 C4          4.1710   -0.0680    0.0030 ca        1 150     -0.079300
      7 C5          3.4680    0.0830   -1.2020 ca        1 150     -0.079300
      8 C6          2.0760    0.1590   -1.1800 ca        1 150     -0.157000
      9 C7          5.6510   -0.1390    0.0030 c3        1 150     -0.047800
     10 C8          4.1960    0.1670   -2.4900 c3        1 150     -0.047800
     11 HN11       -0.4610    0.6480    0.7210 hn        1 150      0.376800
     12 HN12       -0.4320    0.3290   -0.8940 hn        1 150      0.376800
     13 HN21        1.9840   -0.3510    3.2430 hn        1 150      0.376800
     14 HN22        0.5670   -0.6790    2.4710 hn        1 150      0.376800
     15 H3          4.0330   -0.2790    2.1400 ha        1 150      0.128000
     16 H6          1.5380    0.2810   -2.1350 ha        1 150      0.128000
     17 H71         6.0820    0.8010   -0.4260 hc        1 150      0.041367
     18 H72         5.9980   -0.9970   -0.6270 hc        1 150      0.041367
     19 H73         6.0550   -0.2720    1.0360 hc        1 150      0.041367
     20 H81         3.4950    0.2990   -3.3490 hc        1 150      0.041367
     21 H82         4.7910   -0.7670   -2.6580 hc        1 150      0.041367
     22 H83         4.9070    1.0310   -2.4760 hc        1 150      0.041367
@<TRIPOS>BOND
     1    1    3 1   
     2    1   11 1   
     3    1   12 1   
     4    2    4 1   
     5    2   13 1   
     6    2   14 1   
     7    3    4 ar  
     8    3    8 ar  
     9    4    5 ar  
    10    5    6 ar  
    11    5   15 1   
    12    6    7 ar  
    13    6    9 1   
    14    7    8 ar  
    15    7   10 1   
    16    8   16 1   
    17    9   17 1   
    18    9   18 1   
    19    9   19 1   
    20   10   20 1   
    21   10   21 1   
    22   10   22 1   
@<TRIPOS>SUBSTRUCTURE
     1 150         1 TEMP              0 ****  ****    0 ROOT
