@<TRIPOS>MOLECULE
150
   22    20     1     0     0
SMALL
bcc


@<TRIPOS>ATOM
      1 N1         -3.0270    0.0030    0.1260 n3        1 150     -0.311000
      2 N2         -1.6240    0.0150    2.5550 n3        1 150     -0.311000
      3 C1         -1.6080    0.0030    0.1260 c2        1 150     -0.001000
      4 C2         -0.9150    0.0030    1.3260 c2        1 150     -0.001000
      5 C3          0.4710    0.0030    1.3260 c1        1 150     -0.157000
      6 C4          1.1640    0.0030    0.1260 c1        1 150     -0.072000
      7 C5          0.4710    0.0030   -1.0740 c1        1 150     -0.072000
      8 C6         -0.9150    0.0030   -1.0740 c1        1 150     -0.157000
      9 C7          2.6770   -0.0240    0.1260 c3        1 150     -0.173000
     10 C8          1.2270    0.0070   -2.3840 c3        1 150     -0.173000
     11 HN11       -3.4830   -0.7810    0.0320 hn        1 150      0.172000
     12 HN12       -3.4830    0.7840    0.2460 hn        1 150      0.172000
     13 HN21       -1.6270    0.7660    3.0720 hn        1 150      0.172000
     14 HN22       -2.0620   -0.7340    2.8370 hn        1 150      0.172000
     15 H3          0.9590    0.0030    2.1720 ha        1 150      0.128000
     16 H6         -1.4030    0.0030   -1.9190 ha        1 150      0.128000
     17 H71         2.9880   -0.8260   -0.3350 hc        1 150      0.080667
     18 H72         3.0160    0.7680   -0.3330 hc        1 150      0.080667
     19 H73         3.0020   -0.0310    1.0460 hc        1 150      0.080667
     20 H81         1.7790   -0.7960   -2.4440 hc        1 150      0.080667
     21 H82         1.7980    0.7980   -2.4280 hc        1 150      0.080667
     22 H83         0.5930    0.0230   -3.1260 hc        1 150      0.080667
@<TRIPOS>BOND
     1    1    3 1   
     2    1   11 1   
     3    1   12 1   
     4    2    4 1   
     5    2   13 1   
     6    2   14 1   
     7    3    4 1   
     8    3    8 1   
     9    4    5 1   
    10    5   15 1   
    11    6    7 1   
    12    6    9 1   
    13    7   10 1   
    14    8   16 1   
    15    9   17 1   
    16    9   18 1   
    17    9   19 1   
    18   10   20 1   
    19   10   21 1   
    20   10   22 1   
@<TRIPOS>SUBSTRUCTURE
     1 150         1 TEMP              0 ****  ****    0 ROOT
