@<TRIPOS>MOLECULE
151
   59    61     1     0     0
SMALL
bcc


@<TRIPOS>ATOM
      1 O3          0.4350   -1.4590   -1.8580 o         1 151     -0.589100
      2 C2          0.5600   -0.7280   -0.8580 c         1 151      0.619600
      3 N1         -0.4690    0.1150   -0.4440 n         1 151     -0.441800
      4 C26        -0.3010    1.0360    0.6710 c3        1 151      0.074000
      5 C28        -1.7000    1.4920    1.1060 c3        1 151     -0.117400
      6 C29        -2.7020    0.7990    0.1460 c3        1 151      0.217500
      7 N2         -3.2810    1.6950   -0.8240 n3        1 151     -0.923100
      8 S1         -4.7420    2.3370   -0.7360 s6        1 151      1.469900
      9 C3         -4.8170    2.9920    0.8390 c3        1 151     -0.362300
     10 O1         -4.8210    3.4160   -1.6570 o         1 151     -0.673300
     11 O2         -5.7820    1.3930   -0.8500 o         1 151     -0.673300
     12 C8         -1.8590   -0.3540   -0.5090 c3        1 151      0.109700
     13 C7         -2.0950   -1.6870    0.2310 c3        1 151     -0.204700
     14 C27        -3.4660   -2.2870   -0.0620 c3        1 151     -0.046700
     15 C1         -3.7180   -2.4620   -1.5460 c3        1 151     -0.088600
     16 C17        -3.5890   -3.6280    0.6390 c3        1 151     -0.088600
     17 C30        -1.8900   -1.4890    1.7540 c         1 151      0.914600
     18 O5         -2.8410   -1.0330    2.4520 o         1 151     -0.853300
     19 C4          1.8330   -0.7020   -0.0930 cc        1 151      0.153500
     20 N3          3.0710   -0.2750   -0.6060 nc        1 151     -0.629000
     21 C5          3.9530   -0.5040    0.3650 cd        1 151      0.446700
     22 O4          3.3530   -1.0690    1.5140 os        1 151     -0.386800
     23 C6          2.0060   -1.1860    1.2030 cd        1 151      0.230300
     24 C9          5.4310   -0.3070    0.4480 c3        1 151      0.157500
     25 N4          5.8280    1.0830    0.3110 n3        1 151     -0.719600
     26 C11         7.2340    1.3120    0.6520 c3        1 151      0.158800
     27 C13         7.8860    2.1830   -0.4340 c3        1 151     -0.092900
     28 C14         6.8080    2.4330   -1.4800 c3        1 151     -0.092900
     29 C12         5.5600    1.6750   -1.0010 c3        1 151      0.158800
     30 O51        -0.7510   -1.7680    2.2350 o         1 151     -0.853300
     31 H261        0.3230    1.9030    0.3230 h1        1 151      0.050700
     32 H262        0.2180    0.5400    1.5410 h1        1 151      0.050700
     33 H281       -1.7790    2.6040    1.0890 hc        1 151      0.068700
     34 H282       -1.9110    1.1220    2.1450 hc        1 151      0.068700
     35 H29        -3.5310    0.3260    0.7560 h1        1 151      0.119700
     36 H2         -2.6450    1.9570   -1.5420 hn        1 151      0.454800
     37 H3C1       -4.3020    3.9790    0.9120 h1        1 151      0.112700
     38 H3C2       -5.8810    3.1550    1.1420 h1        1 151      0.112700
     39 H3C3       -4.3680    2.3370    1.6290 h1        1 151      0.112700
     40 H8         -2.1080   -0.4930   -1.5990 h1        1 151      0.069700
     41 H7         -1.3140   -2.4150   -0.1270 hc        1 151      0.062700
     42 H27        -4.2520   -1.6020    0.3670 hc        1 151      0.061700
     43 H1C1       -2.8300   -2.9190   -2.0460 hc        1 151      0.027700
     44 H1C2       -4.6000   -3.1270   -1.7120 hc        1 151      0.027700
     45 H1C3       -3.9340   -1.4800   -2.0320 hc        1 151      0.027700
     46 H171       -2.8490   -4.3560    0.2280 hc        1 151      0.027700
     47 H172       -3.3970   -3.4980    1.7330 hc        1 151      0.027700
     48 H173       -4.6150   -4.0450    0.4990 hc        1 151      0.027700
     49 H6          1.3330   -1.6060    1.9640 h4        1 151      0.140100
     50 H9C1        5.7660   -0.6650    1.4650 h1        1 151      0.053700
     51 H9C2        5.9030   -0.9750   -0.3350 h1        1 151      0.053700
     52 H111        7.2470    1.8430    1.6430 h1        1 151      0.049950
     53 H112        7.8100    0.3530    0.7720 h1        1 151      0.049950
     54 H131        8.2500    3.1430    0.0060 hc        1 151      0.042450
     55 H132        8.7650    1.6570   -0.8790 hc        1 151      0.042450
     56 H141        6.5870    3.5250   -1.5720 hc        1 151      0.042450
     57 H142        7.1280    2.0650   -2.4840 hc        1 151      0.042450
     58 H121        5.2630    0.9040   -1.7650 h1        1 151      0.049950
     59 H122        4.6930    2.3790   -0.8720 h1        1 151      0.049950
@<TRIPOS>BOND
     1    1    2 2   
     2    2    3 1   
     3    2   19 1   
     4    3    4 1   
     5    3   12 1   
     6    4    5 1   
     7    4   31 1   
     8    4   32 1   
     9    5    6 1   
    10    5   33 1   
    11    5   34 1   
    12    6    7 1   
    13    6   12 1   
    14    6   35 1   
    15    7    8 1   
    16    7   36 1   
    17    8    9 1   
    18    8   10 2   
    19    8   11 2   
    20    9   37 1   
    21    9   38 1   
    22    9   39 1   
    23   12   13 1   
    24   12   40 1   
    25   13   14 1   
    26   13   17 1   
    27   13   41 1   
    28   14   15 1   
    29   14   16 1   
    30   14   42 1   
    31   15   43 1   
    32   15   44 1   
    33   15   45 1   
    34   16   46 1   
    35   16   47 1   
    36   16   48 1   
    37   17   18 1   
    38   17   30 1   
    39   19   20 1   
    40   19   23 2   
    41   20   21 2   
    42   21   22 1   
    43   21   24 1   
    44   22   23 1   
    45   23   49 1   
    46   24   25 1   
    47   24   50 1   
    48   24   51 1   
    49   25   26 1   
    50   25   29 1   
    51   26   27 1   
    52   26   52 1   
    53   26   53 1   
    54   27   28 1   
    55   27   54 1   
    56   27   55 1   
    57   28   29 1   
    58   28   56 1   
    59   28   57 1   
    60   29   58 1   
    61   29   59 1   
@<TRIPOS>SUBSTRUCTURE
     1 151         1 TEMP              0 ****  ****    0 ROOT
