@<TRIPOS>MOLECULE
151
   60    62     1     0     0
SMALL
bcc


@<TRIPOS>ATOM
      1 O3          0.3490   -0.1770    0.6670 o         1 151     -0.634100
      2 C2          1.5930   -0.2050    0.5160 c         1 151      0.619600
      3 N1          2.4100   -0.2790    1.6230 n         1 151     -0.461800
      4 C26         3.8570   -0.3440    1.6390 c3        1 151      0.101000
      5 C28         4.2930   -0.4860    3.1050 c3        1 151     -0.111400
      6 C29         3.0380   -0.1860    3.9600 c3        1 151      0.224500
      7 N2          3.0450    1.1110    4.5740 n3        1 151     -0.917100
      8 S1          2.5460    1.3890    6.0870 s6        1 151      1.466900
      9 C3          1.1100    2.2850    5.8780 c3        1 151     -0.377300
     10 O1          2.2090    0.1630    6.7100 o         1 151     -0.656300
     11 O2          3.4660    2.2190    6.7530 o         1 151     -0.656300
     12 C8          1.8380   -0.3920    2.9600 c3        1 151      0.097700
     13 C7          1.1010   -1.7300    3.2140 c3        1 151     -0.174700
     14 C27         0.1980   -1.6670    4.4460 c3        1 151     -0.077700
     15 C1         -0.8680   -0.5970    4.2850 c3        1 151     -0.098600
     16 C17        -0.4790   -3.0070    4.6700 c3        1 151     -0.098600
     17 C30         2.0810   -2.8760    3.2410 c         1 151      0.627100
     18 O5          2.4910   -3.4880    2.2530 o         1 151     -0.493000
     19 C4          2.1480   -0.1460   -0.8500 cc        1 151      0.176500
     20 N3          3.4880    0.0750   -1.2240 nc        1 151     -0.655000
     21 C5          3.5020    0.0590   -2.5540 cd        1 151      0.495700
     22 O4          2.2160   -0.1700   -3.0960 os        1 151     -0.365800
     23 C6          1.3750   -0.2930   -2.0040 cd        1 151      0.242300
     24 C9          4.6050    0.2430   -3.5490 c3        1 151      0.147500
     25 N4          5.2250   -1.0190   -3.9120 n3        1 151     -0.719600
     26 C11         6.0540   -0.9290   -5.1180 c3        1 151      0.154300
     27 C13         7.4790   -1.4110   -4.8010 c3        1 151     -0.096400
     28 C14         7.4630   -1.8490   -3.3430 c3        1 151     -0.096400
     29 C12         6.0240   -1.6350   -2.8480 c3        1 151      0.154300
     30 O51         2.6390   -3.3270    4.4060 oh        1 151     -0.592100
     31 H261        4.2850    0.5990    1.1990 h1        1 151      0.066700
     32 H262        4.2180   -1.2230    1.0360 h1        1 151      0.066700
     33 H281        4.6170   -1.5380    3.3110 hc        1 151      0.074200
     34 H282        5.1470    0.1950    3.3320 hc        1 151      0.074200
     35 H29         2.9620   -0.9540    4.7860 h1        1 151      0.085700
     36 H2          3.4130    1.8270    3.9950 hn        1 151      0.453800
     37 H3C1        0.7460    2.3910    4.8270 h1        1 151      0.121033
     38 H3C2        1.2190    3.3270    6.2740 h1        1 151      0.121033
     39 H3C3        0.2640    1.8190    6.4460 h1        1 151      0.121033
     40 H8          1.0640    0.4240    3.0660 h1        1 151      0.082700
     41 H7          0.4290   -1.9120    2.3180 hc        1 151      0.121700
     42 H27         0.8170   -1.4110    5.3540 hc        1 151      0.065700
     43 H1C1       -1.2670   -0.5860    3.2410 hc        1 151      0.043533
     44 H1C2       -0.4560    0.4150    4.5190 hc        1 151      0.043533
     45 H1C3       -1.7140   -0.7910    4.9880 hc        1 151      0.043533
     46 H171       -1.0680   -2.9810    5.6190 hc        1 151      0.043533
     47 H172       -1.1750   -3.2370    3.8270 hc        1 151      0.043533
     48 H173        0.2690   -3.8340    4.7440 hc        1 151      0.043533
     49 H6          0.3230   -0.4720   -2.2100 h4        1 151      0.085100
     50 H9C1        4.1450    0.6890   -4.4790 h1        1 151      0.064700
     51 H9C2        5.3330    0.9910   -3.1150 h1        1 151      0.064700
     52 H111        5.5760   -1.6010   -5.8840 h1        1 151      0.052950
     53 H112        6.0820    0.1110   -5.5430 h1        1 151      0.052950
     54 H131        8.2160   -0.5890   -4.9660 hc        1 151      0.049950
     55 H132        7.7580   -2.2590   -5.4730 hc        1 151      0.049950
     56 H141        8.1800   -1.2450   -2.7350 hc        1 151      0.049950
     57 H142        7.7520   -2.9230   -3.2410 hc        1 151      0.049950
     58 H121        6.0200   -1.0220   -1.9070 h1        1 151      0.052950
     59 H122        5.5420   -2.6250   -2.6170 h1        1 151      0.052950
     60 H22         2.2370   -2.8920    5.1720 ho        1 151      0.436000
@<TRIPOS>BOND
     1    1    2 2   
     2    2    3 1   
     3    2   19 1   
     4    3    4 1   
     5    3   12 1   
     6    4    5 1   
     7    4   31 1   
     8    4   32 1   
     9    5    6 1   
    10    5   33 1   
    11    5   34 1   
    12    6    7 1   
    13    6   12 1   
    14    6   35 1   
    15    7    8 1   
    16    7   36 1   
    17    8    9 1   
    18    8   10 2   
    19    8   11 2   
    20    9   37 1   
    21    9   38 1   
    22    9   39 1   
    23   12   13 1   
    24   12   40 1   
    25   13   14 1   
    26   13   17 1   
    27   13   41 1   
    28   14   15 1   
    29   14   16 1   
    30   14   42 1   
    31   15   43 1   
    32   15   44 1   
    33   15   45 1   
    34   16   46 1   
    35   16   47 1   
    36   16   48 1   
    37   17   18 2   
    38   17   30 1   
    39   19   20 1   
    40   19   23 2   
    41   20   21 2   
    42   21   22 1   
    43   21   24 1   
    44   22   23 1   
    45   23   49 1   
    46   24   25 1   
    47   24   50 1   
    48   24   51 1   
    49   25   26 1   
    50   25   29 1   
    51   26   27 1   
    52   26   52 1   
    53   26   53 1   
    54   27   28 1   
    55   27   54 1   
    56   27   55 1   
    57   28   29 1   
    58   28   56 1   
    59   28   57 1   
    60   29   58 1   
    61   29   59 1   
    62   30   60 1   
@<TRIPOS>SUBSTRUCTURE
     1 151         1 TEMP              0 ****  ****    0 ROOT
