@<TRIPOS>MOLECULE
151
   59    57     1     0     0
SMALL
bcc


@<TRIPOS>ATOM
      1 O3         -3.0370   -0.0260    1.1500 o         1 151     -0.361000
      2 C2         -1.8420   -0.0110    0.9190 c1        1 151      0.391000
      3 N1         -0.8820    0.0180    2.0280 n2        1 151     -0.307000
      4 C26        -1.2210    0.0340    3.5800 c3        1 151     -0.027000
      5 C28        -0.2920   -0.7150    4.1730 c3        1 151     -0.186000
      6 C29         0.9260   -0.6250    3.2630 c3        1 151      0.013000
      7 N2          1.4250   -1.8790    3.0110 n3        1 151     -0.898000
      8 S1          1.6640   -2.9510    4.2710 s4        1 151      2.042800
      9 C3          2.7680   -4.2560    3.7710 c2        1 151     -0.945000
     10 O1          0.4130   -3.4800    4.7500 o         1 151     -0.566900
     11 O2          2.1500   -2.2770    5.4440 o         1 151     -0.566900
     12 C8          0.4130    0.0370    1.9360 c3        1 151      0.036000
     13 C7          0.9240    1.4930    1.8310 c3        1 151     -0.200000
     14 C27         2.4300    1.5070    1.9220 c3        1 151     -0.091000
     15 C1          3.0150    1.6550    0.5440 c3        1 151     -0.206000
     16 C17         2.8720    2.6690    2.7840 c3        1 151     -0.206000
     17 C30         0.3510    2.3060    2.9490 c2        1 151      0.330000
     18 O5          0.6800    2.0580    4.1340 o         1 151     -0.567500
     19 C4         -1.3390   -0.1430   -0.5340 c2        1 151     -0.129000
     20 N3         -1.7020    0.6470   -1.5700 n2        1 151     -0.087000
     21 C5         -1.2160    0.0900   -2.7180 c1        1 151     -0.013000
     22 O4         -0.5480   -1.0560   -2.3820 os        1 151     -0.124000
     23 C6         -0.6200   -1.2040   -1.0420 c1        1 151     -0.092000
     24 C9         -1.4410    0.6300   -4.1700 c2        1 151      0.007000
     25 N4         -2.4150   -0.2060   -4.8520 n3        1 151     -0.244000
     26 C11        -1.8270   -0.8550   -5.8210 c3        1 151     -0.082500
     27 C13        -1.9740    0.0700   -7.0880 c3        1 151     -0.174000
     28 C14        -2.9850    1.1490   -6.6930 c3        1 151     -0.174000
     29 C12        -3.5210    0.7200   -5.5450 c3        1 151     -0.082500
     30 O51        -0.3630    3.3100    2.6920 o         1 151     -0.567500
     31 H261       -2.1040   -0.3470    3.7340 h1        1 151      0.094000
     32 H262       -1.1840    0.9500    3.9240 h1        1 151      0.094000
     33 H281       -0.0800   -0.3560    5.0620 hc        1 151      0.116000
     34 H282       -0.5970   -1.6450    4.2430 hc        1 151      0.116000
     35 H29         1.6120   -0.0660    3.6750 h1        1 151      0.173000
     36 H2          1.6580   -2.1160    2.1600 hn        1 151      0.241000
     37 H3C1        2.3810   -4.7390    3.0130 ha        1 151      0.160000
     38 H3C2        3.6290   -3.8730    3.5090 ha        1 151      0.160000
     39 H3C3        2.9010   -4.8770    4.5200 ha        1 151      0.160000
     40 H8          0.7060   -0.4830    1.1620 h1        1 151      0.071000
     41 H7          0.6470    1.8730    0.9810 hc        1 151      0.101000
     42 H27         2.7400    0.6710    2.3190 hc        1 151      0.096000
     43 H1C1        2.5390    1.0690   -0.0780 hc        1 151      0.065333
     44 H1C2        2.9250    2.5900    0.2470 hc        1 151      0.065333
     45 H1C3        3.9600    1.4090    0.5640 hc        1 151      0.065333
     46 H171        2.4250    3.4860    2.4840 hc        1 151      0.065333
     47 H172        2.6350    2.4910    3.7190 hc        1 151      0.065333
     48 H173        3.8430    2.7820    2.7070 hc        1 151      0.065333
     49 H6         -0.2250   -1.9290   -0.5250 DU        1 151      0.204000
     50 H9C1       -0.5990    0.6100   -4.6570 h4        1 151      0.100000
     51 H9C2       -1.7710    1.5470   -4.1280 h4        1 151      0.100000
     52 H111       -0.8800   -0.9950   -5.6110 h1        1 151      0.092250
     53 H112       -2.2730   -1.7170   -5.9740 h1        1 151      0.092250
     54 H131       -1.1090    0.4800   -7.3110 hc        1 151      0.083250
     55 H132       -2.3110   -0.4470   -7.8470 hc        1 151      0.083250
     56 H141       -2.5310    2.0070   -6.5560 hc        1 151      0.083250
     57 H142       -3.6770    1.2360   -7.3800 hc        1 151      0.083250
     58 H121       -4.3330    0.1970   -5.7270 h1        1 151      0.092250
     59 H122       -3.7330    1.4820   -4.9670 h1        1 151      0.092250
@<TRIPOS>BOND
     1    1    2 1   
     2    2   19 1   
     3    3    4 1   
     4    3   12 1   
     5    4    5 1   
     6    4   31 1   
     7    4   32 1   
     8    5    6 1   
     9    5   33 1   
    10    5   34 1   
    11    6    7 1   
    12    6   12 1   
    13    6   35 1   
    14    7    8 1   
    15    7   36 1   
    16    8   10 1   
    17    8   11 1   
    18    9   37 1   
    19    9   38 1   
    20    9   39 1   
    21   12   13 1   
    22   12   40 1   
    23   13   14 1   
    24   13   17 1   
    25   13   41 1   
    26   14   15 1   
    27   14   16 1   
    28   14   42 1   
    29   15   43 1   
    30   15   44 1   
    31   15   45 1   
    32   16   46 1   
    33   16   47 1   
    34   16   48 1   
    35   17   18 1   
    36   17   30 1   
    37   19   20 1   
    38   19   23 1   
    39   20   21 1   
    40   21   22 1   
    41   22   23 1   
    42   24   25 1   
    43   24   50 1   
    44   24   51 1   
    45   25   26 1   
    46   25   29 1   
    47   26   27 1   
    48   26   52 1   
    49   26   53 1   
    50   27   28 1   
    51   27   54 1   
    52   27   55 1   
    53   28   29 1   
    54   28   56 1   
    55   28   57 1   
    56   29   58 1   
    57   29   59 1   
@<TRIPOS>SUBSTRUCTURE
     1 151         1 TEMP              0 ****  ****    0 ROOT
