@<TRIPOS>MOLECULE
151
   60    62     1     0     0
SMALL
bcc


@<TRIPOS>ATOM
      1 O3          0.3570   -0.1880    0.2650 o         1 151     -0.630100
      2 C2          1.5960   -0.0040    0.2500 c         1 151      0.615600
      3 N1          2.2960    0.0680    1.4410 n         1 151     -0.454800
      4 C26         3.6150    0.6490    1.6050 c3        1 151      0.100000
      5 C28         3.7210    1.1510    3.0500 c3        1 151     -0.119400
      6 C29         2.5830    0.4440    3.8230 c3        1 151      0.229500
      7 N2          1.9720    1.2310    4.8550 n7        1 151     -0.921100
      8 S1          2.5440    1.3790    6.3640 s6        1 151      1.469900
      9 C3          2.2790   -0.1670    7.0310 c3        1 151     -0.370300
     10 O1          3.9310    1.6070    6.3700 o         1 151     -0.649300
     11 O2          1.7360    2.3080    7.0490 o         1 151     -0.649300
     12 C8          1.5770   -0.0290    2.7090 c3        1 151      0.109700
     13 C7          0.9920   -1.4370    2.9620 c3        1 151     -0.167700
     14 C27        -0.1160   -1.4250    4.0160 c3        1 151     -0.061700
     15 C1         -1.2490   -0.4970    3.6150 c3        1 151     -0.103600
     16 C17        -0.6630   -2.8270    4.2150 c3        1 151     -0.103600
     17 C30         2.0820   -2.4380    3.2480 c         1 151      0.626100
     18 O5          2.7190   -3.0750    2.4110 o         1 151     -0.473000
     19 C4          2.2940    0.0840   -1.0460 cc        1 151      0.173500
     20 N3          3.6860    0.0530   -1.2670 nc        1 151     -0.648000
     21 C5          3.8450    0.1040   -2.5860 cd        1 151      0.494700
     22 O4          2.6080    0.1680   -3.2690 os        1 151     -0.365800
     23 C6          1.6420    0.1500   -2.2790 cd        1 151      0.241300
     24 C9          5.0680    0.1100   -3.4500 c3        1 151      0.146500
     25 N4          5.4540   -1.2310   -3.8530 n3        1 151     -0.719600
     26 C11         6.4250   -1.2450   -4.9520 c3        1 151      0.153300
     27 C13         7.6740   -2.0320   -4.5260 c3        1 151     -0.096900
     28 C14         7.3900   -2.5470   -3.1210 c3        1 151     -0.096900
     29 C12         5.9730   -2.0690   -2.7690 c3        1 151      0.153300
     30 O51         2.4800   -2.7140    4.5320 oh        1 151     -0.597100
     31 H261        3.7690    1.5020    0.8900 h1        1 151      0.068200
     32 H262        4.3930   -0.1380    1.3990 h1        1 151      0.068200
     33 H281        3.6130    2.2640    3.0820 hc        1 151      0.072200
     34 H282        4.7130    0.8900    3.4930 hc        1 151      0.072200
     35 H29         3.0280   -0.4720    4.3180 h1        1 151      0.062700
     36 H2          1.1970    1.7740    4.5510 hn        1 151      0.454800
     37 H3C1        2.9290   -0.9610    6.5870 h1        1 151      0.116367
     38 H3C2        2.5170   -0.1540    8.1260 h1        1 151      0.116367
     39 H3C3        1.2230   -0.5210    6.9520 h1        1 151      0.116367
     40 H8          0.6920    0.6770    2.6530 h1        1 151      0.075700
     41 H7          0.5090   -1.7740    1.9900 hc        1 151      0.126700
     42 H27         0.3080   -1.0570    4.9940 hc        1 151      0.030700
     43 H1C1       -1.4500   -0.5690    2.5180 hc        1 151      0.047033
     44 H1C2       -1.0000    0.5630    3.8640 hc        1 151      0.047033
     45 H1C3       -2.1810   -0.7690    4.1680 hc        1 151      0.047033
     46 H171       -1.1700   -3.1800    3.2840 hc        1 151      0.047033
     47 H172        0.1510   -3.5490    4.4670 hc        1 151      0.047033
     48 H173       -1.4100   -2.8310    5.0460 hc        1 151      0.047033
     49 H6          0.6050    0.1840   -2.6030 h4        1 151      0.084100
     50 H9C1        4.8180    0.7000   -4.3800 h1        1 151      0.064200
     51 H9C2        5.8800    0.6580   -2.8850 h1        1 151      0.064200
     52 H111        5.9190   -1.7540   -5.8180 h1        1 151      0.053700
     53 H112        6.7120   -0.2100   -5.2840 h1        1 151      0.053700
     54 H131        8.5750   -1.3730   -4.5380 hc        1 151      0.049700
     55 H132        7.8590   -2.8760   -5.2340 hc        1 151      0.049700
     56 H141        8.1330   -2.1450   -2.3890 hc        1 151      0.049700
     57 H142        7.4440   -3.6630   -3.0820 hc        1 151      0.049700
     58 H121        5.9740   -1.5340   -1.7810 h1        1 151      0.053700
     59 H122        5.2770   -2.9490   -2.6830 h1        1 151      0.053700
     60 H22         1.8890   -2.2890    5.1680 ho        1 151      0.421000
@<TRIPOS>BOND
     1    1    2 2   
     2    2    3 1   
     3    2   19 1   
     4    3    4 1   
     5    3   12 1   
     6    4    5 1   
     7    4   31 1   
     8    4   32 1   
     9    5    6 1   
    10    5   33 1   
    11    5   34 1   
    12    6    7 1   
    13    6   12 1   
    14    6   35 1   
    15    7    8 1   
    16    7   36 1   
    17    8    9 1   
    18    8   10 2   
    19    8   11 2   
    20    9   37 1   
    21    9   38 1   
    22    9   39 1   
    23   12   13 1   
    24   12   40 1   
    25   13   14 1   
    26   13   17 1   
    27   13   41 1   
    28   14   15 1   
    29   14   16 1   
    30   14   42 1   
    31   15   43 1   
    32   15   44 1   
    33   15   45 1   
    34   16   46 1   
    35   16   47 1   
    36   16   48 1   
    37   17   18 2   
    38   17   30 1   
    39   19   20 1   
    40   19   23 2   
    41   20   21 2   
    42   21   22 1   
    43   21   24 1   
    44   22   23 1   
    45   23   49 1   
    46   24   25 1   
    47   24   50 1   
    48   24   51 1   
    49   25   26 1   
    50   25   29 1   
    51   26   27 1   
    52   26   52 1   
    53   26   53 1   
    54   27   28 1   
    55   27   54 1   
    56   27   55 1   
    57   28   29 1   
    58   28   56 1   
    59   28   57 1   
    60   29   58 1   
    61   29   59 1   
    62   30   60 1   
@<TRIPOS>SUBSTRUCTURE
     1 151         1 TEMP              0 ****  ****    0 ROOT
