@<TRIPOS>MOLECULE
152
   26    25     1     0     0
SMALL
bcc


@<TRIPOS>ATOM
      1 C1         -0.0850    0.0770    0.1150 c         1 152      0.921600
      2 O1A         1.1620   -0.1180    0.2330 o         1 152     -0.809800
      3 O1B        -0.8520    0.5040    1.0070 o         1 152     -0.809800
      4 C2         -0.7020   -0.2420   -1.2730 c3        1 152     -0.263400
      5 C3          0.2720    0.1830   -2.3550 c3        1 152      0.177100
      6 O3          1.4330   -0.6220   -2.3980 oh        1 152     -0.693800
      7 C4         -0.4370    0.0670   -3.7220 c3        1 152      0.099800
      8 N5          0.4460    0.2630   -4.9340 n4        1 152     -0.589800
      9 C5A         1.1440   -1.0140   -5.2670 c3        1 152      0.088433
     10 C5B         1.4620    1.3240   -4.6750 c3        1 152      0.088433
     11 C5C        -0.4040    0.6670   -6.0900 c3        1 152      0.088433
     12 H21        -1.6720    0.3000   -1.3800 hc        1 152      0.050700
     13 H22        -0.8880   -1.3420   -1.3220 hc        1 152      0.050700
     14 H3          0.5820    1.2540   -2.1830 h1        1 152      0.050700
     15 HO3         1.7220   -0.7650   -1.4680 ho        1 152      0.502000
     16 H41        -1.2430    0.8520   -3.7530 hx        1 152      0.089200
     17 H42        -0.9030   -0.9530   -3.8110 hx        1 152      0.089200
     18 H5A1        1.7210   -1.3650   -4.3640 hx        1 152      0.096700
     19 H5A2        1.8430   -0.8390   -6.1250 hx        1 152      0.096700
     20 H5A3        0.3830   -1.7880   -5.5460 hx        1 152      0.096700
     21 H5B1        2.1690    0.9660   -3.8730 hx        1 152      0.096700
     22 H5B2        0.9430    2.2550   -4.3260 hx        1 152      0.096700
     23 H5B3        2.0290    1.5310   -5.6200 hx        1 152      0.096700
     24 H5C1        0.2250    0.7250   -7.0160 hx        1 152      0.096700
     25 H5C2       -1.2170   -0.0920   -6.2340 hx        1 152      0.096700
     26 H5C3       -0.8610    1.6710   -5.8850 hx        1 152      0.096700
@<TRIPOS>BOND
     1    1    2 1   
     2    1    3 1   
     3    1    4 1   
     4    4    5 1   
     5    4   12 1   
     6    4   13 1   
     7    5    6 1   
     8    5    7 1   
     9    5   14 1   
    10    6   15 1   
    11    7    8 1   
    12    7   16 1   
    13    7   17 1   
    14    8    9 1   
    15    8   10 1   
    16    8   11 1   
    17    9   18 1   
    18    9   19 1   
    19    9   20 1   
    20   10   21 1   
    21   10   22 1   
    22   10   23 1   
    23   11   24 1   
    24   11   25 1   
    25   11   26 1   
@<TRIPOS>SUBSTRUCTURE
     1 152         1 TEMP              0 ****  ****    0 ROOT
