@<TRIPOS>MOLECULE
152
   26    24     1     0     0
SMALL
bcc


@<TRIPOS>ATOM
      1 C1          1.2590    1.6630    2.8650 c1        1 152      0.341000
      2 O1A         2.5180    1.6630    2.8650 o         1 152     -0.504000
      3 O1B         0.6290    1.6630    3.9570 os        1 152     -0.585000
      4 C2          0.4990    1.7490    1.5500 c3        1 152     -0.292000
      5 C3          0.3140    0.3540    0.9790 c3        1 152      0.066000
      6 O3         -0.0630   -0.5210    2.0010 oh        1 152     -0.421000
      7 C4         -0.7690    0.3830   -0.0880 c3        1 152     -0.137000
      8 N5         -0.4490   -0.5750   -1.1260 n4        1 152      0.043000
      9 C5A        -0.3670   -1.8850   -0.5580 c3        1 152     -0.187667
     10 C5B         0.8070   -0.2350   -1.7190 c3        1 152     -0.187667
     11 C5C        -1.4740   -0.5520   -2.1290 c3        1 152     -0.187667
     12 H21         1.0040    2.2950    0.9180 hc        1 152      0.090000
     13 H22        -0.3750    2.1550    1.7060 hc        1 152      0.090000
     14 H3          1.1530    0.0510    0.5840 h1        1 152      0.090000
     15 HO3         0.6480   -0.9740    2.2790 ho        1 152      0.301000
     16 H41        -0.8190    1.2780   -0.4760 hx        1 152      0.128500
     17 H42        -1.6280    0.1530    0.3130 hx        1 152      0.128500
     18 H5A1        0.4760   -1.9780   -0.0760 hx        1 152      0.136000
     19 H5A2       -0.4110   -2.5510   -1.2690 hx        1 152      0.136000
     20 H5A3       -1.1110   -2.0180    0.0600 hx        1 152      0.136000
     21 H5B1        0.8800    0.7350   -1.7910 hx        1 152      0.136000
     22 H5B2        1.5330   -0.5760   -1.1630 hx        1 152      0.136000
     23 H5B3        0.8640   -0.6330   -2.6090 hx        1 152      0.136000
     24 H5C1       -1.5220    0.3390   -2.5250 hx        1 152      0.136000
     25 H5C2       -1.2640   -1.2060   -2.8240 hx        1 152      0.136000
     26 H5C3       -2.3330   -0.7740   -1.7220 hx        1 152      0.136000
@<TRIPOS>BOND
     1    1    2 1   
     2    1    4 1   
     3    4    5 1   
     4    4   12 1   
     5    4   13 1   
     6    5    6 1   
     7    5    7 1   
     8    5   14 1   
     9    6   15 1   
    10    7    8 1   
    11    7   16 1   
    12    7   17 1   
    13    8    9 1   
    14    8   10 1   
    15    8   11 1   
    16    9   18 1   
    17    9   19 1   
    18    9   20 1   
    19   10   21 1   
    20   10   22 1   
    21   10   23 1   
    22   11   24 1   
    23   11   25 1   
    24   11   26 1   
@<TRIPOS>SUBSTRUCTURE
     1 152         1 TEMP              0 ****  ****    0 ROOT
