@<TRIPOS>MOLECULE
152
   26    25     1     0     0
SMALL
bcc


@<TRIPOS>ATOM
      1 C1         -0.2250    0.0340    0.1020 c         1 152      0.921600
      2 O1A         1.0110   -0.2090    0.2510 o         1 152     -0.809800
      3 O1B        -0.9990    0.4820    0.9770 o         1 152     -0.809800
      4 C2         -0.8160   -0.2500   -1.3050 c3        1 152     -0.263400
      5 C3          0.2010    0.1490   -2.3570 c3        1 152      0.177100
      6 O3          1.3340   -0.6970   -2.3780 oh        1 152     -0.693800
      7 C4         -0.4750    0.0710   -3.7430 c3        1 152      0.099800
      8 N5          0.4460    0.2460   -4.9290 n4        1 152     -0.589800
      9 C5A         1.1060   -1.0530   -5.2570 c3        1 152      0.088433
     10 C5B         1.4920    1.2680   -4.6340 c3        1 152      0.088433
     11 C5C        -0.3590    0.6900   -6.1030 c3        1 152      0.088433
     12 H21        -1.7630    0.3270   -1.4320 hc        1 152      0.050700
     13 H22        -1.0390   -1.3430   -1.3700 hc        1 152      0.050700
     14 H3          0.5440    1.2070   -2.1670 h1        1 152      0.050700
     15 HO3         1.5910   -0.8590   -1.4420 ho        1 152      0.502000
     16 H41        -1.2520    0.8840   -3.7880 hx        1 152      0.089200
     17 H42        -0.9740   -0.9310   -3.8550 hx        1 152      0.089200
     18 H5A1        1.8340   -0.8950   -6.0950 hx        1 152      0.096700
     19 H5A2        1.6470   -1.4320   -4.3430 hx        1 152      0.096700
     20 H5A3        0.3260   -1.7970   -5.5640 hx        1 152      0.096700
     21 H5B1        2.1630    0.8770   -3.8170 hx        1 152      0.096700
     22 H5B2        0.9960    2.2130   -4.2900 hx        1 152      0.096700
     23 H5B3        2.0900    1.4630   -5.5610 hx        1 152      0.096700
     24 H5C1       -0.7850    1.7080   -5.9010 hx        1 152      0.096700
     25 H5C2        0.2960    0.7340   -7.0120 hx        1 152      0.096700
     26 H5C3       -1.1940   -0.0380   -6.2760 hx        1 152      0.096700
@<TRIPOS>BOND
     1    1    2 1   
     2    1    3 1   
     3    1    4 1   
     4    4    5 1   
     5    4   12 1   
     6    4   13 1   
     7    5    6 1   
     8    5    7 1   
     9    5   14 1   
    10    6   15 1   
    11    7    8 1   
    12    7   16 1   
    13    7   17 1   
    14    8    9 1   
    15    8   10 1   
    16    8   11 1   
    17    9   18 1   
    18    9   19 1   
    19    9   20 1   
    20   10   21 1   
    21   10   22 1   
    22   10   23 1   
    23   11   24 1   
    24   11   25 1   
    25   11   26 1   
@<TRIPOS>SUBSTRUCTURE
     1 152         1 TEMP              0 ****  ****    0 ROOT
