@<TRIPOS>MOLECULE
152
   26    25     1     0     0
SMALL
bcc


@<TRIPOS>ATOM
      1 C1          2.7660   -0.3440   -0.0480 c         1 152      0.921600
      2 O1A         2.8240    0.8610    0.3400 o         1 152     -0.809800
      3 O1B         3.6800   -1.1940    0.0420 o         1 152     -0.809800
      4 C2          1.4250   -0.7970   -0.6870 c3        1 152     -0.263400
      5 C3          0.2770   -0.1490    0.0650 c3        1 152      0.177100
      6 O3          0.2030    1.2480   -0.1410 oh        1 152     -0.693800
      7 C4         -1.0440   -0.7730   -0.4310 c3        1 152      0.099800
      8 N5         -2.3080   -0.1080    0.0670 n4        1 152     -0.589800
      9 C5A        -2.6300    1.0760   -0.7830 c3        1 152      0.088433
     10 C5B        -2.1430    0.3350    1.4820 c3        1 152      0.088433
     11 C5C        -3.4310   -1.0840   -0.0150 c3        1 152      0.088433
     12 H21         1.3490   -1.9090   -0.6400 hc        1 152      0.050700
     13 H22         1.4260   -0.4720   -1.7550 hc        1 152      0.050700
     14 H3          0.3930   -0.3450    1.1700 h1        1 152      0.050700
     15 HO3         1.1220    1.5980   -0.0870 ho        1 152      0.502000
     16 H41        -1.0620   -1.8450   -0.0900 hx        1 152      0.089200
     17 H42        -1.0710   -0.7360   -1.5560 hx        1 152      0.089200
     18 H5A1       -1.7470    1.7770   -0.7890 hx        1 152      0.096700
     19 H5A2       -2.8400    0.7330   -1.8290 hx        1 152      0.096700
     20 H5A3       -3.5300    1.5970   -0.3650 hx        1 152      0.096700
     21 H5B1       -3.1230    0.7200    1.8660 hx        1 152      0.096700
     22 H5B2       -1.8020   -0.5350    2.1030 hx        1 152      0.096700
     23 H5B3       -1.3660    1.1510    1.5220 hx        1 152      0.096700
     24 H5C1       -3.5040   -1.4770   -1.0630 hx        1 152      0.096700
     25 H5C2       -3.2410   -1.9350    0.6910 hx        1 152      0.096700
     26 H5C3       -4.3910   -0.5760    0.2640 hx        1 152      0.096700
@<TRIPOS>BOND
     1    1    2 1   
     2    1    3 1   
     3    1    4 1   
     4    4    5 1   
     5    4   12 1   
     6    4   13 1   
     7    5    6 1   
     8    5    7 1   
     9    5   14 1   
    10    6   15 1   
    11    7    8 1   
    12    7   16 1   
    13    7   17 1   
    14    8    9 1   
    15    8   10 1   
    16    8   11 1   
    17    9   18 1   
    18    9   19 1   
    19    9   20 1   
    20   10   21 1   
    21   10   22 1   
    22   10   23 1   
    23   11   24 1   
    24   11   25 1   
    25   11   26 1   
@<TRIPOS>SUBSTRUCTURE
     1 152         1 TEMP              0 ****  ****    0 ROOT
