@<TRIPOS>MOLECULE
152
   26    25     1     0     0
SMALL
bcc


@<TRIPOS>ATOM
      1 C1         -0.1010    0.0900    0.1140 c         1 152      0.921600
      2 O1A         1.1450   -0.1080    0.2370 o         1 152     -0.809800
      3 O1B        -0.8710    0.5220    1.0010 o         1 152     -0.809800
      4 C2         -0.7130   -0.2310   -1.2760 c3        1 152     -0.263400
      5 C3          0.2670    0.1870   -2.3560 c3        1 152      0.177100
      6 O3          1.4260   -0.6220   -2.3910 oh        1 152     -0.693800
      7 C4         -0.4360    0.0690   -3.7250 c3        1 152      0.099800
      8 N5          0.4520    0.2580   -4.9330 n4        1 152     -0.589800
      9 C5A         1.1470   -1.0230   -5.2600 c3        1 152      0.088433
     10 C5B         1.4710    1.3170   -4.6740 c3        1 152      0.088433
     11 C5C        -0.3910    0.6620   -6.0940 c3        1 152      0.088433
     12 H21        -1.6810    0.3140   -1.3890 hc        1 152      0.050700
     13 H22        -0.9020   -1.3310   -1.3230 hc        1 152      0.050700
     14 H3          0.5800    1.2580   -2.1850 h1        1 152      0.050700
     15 HO3         1.7100   -0.7630   -1.4590 ho        1 152      0.502000
     16 H41        -1.2400    0.8570   -3.7620 hx        1 152      0.089200
     17 H42        -0.9050   -0.9500   -3.8130 hx        1 152      0.089200
     18 H5A1        0.3850   -1.7950   -5.5400 hx        1 152      0.096700
     19 H5A2        1.8510   -0.8530   -6.1150 hx        1 152      0.096700
     20 H5A3        1.7190   -1.3730   -4.3540 hx        1 152      0.096700
     21 H5B1        2.1730    0.9580   -3.8680 hx        1 152      0.096700
     22 H5B2        0.9540    2.2500   -4.3300 hx        1 152      0.096700
     23 H5B3        2.0430    1.5180   -5.6170 hx        1 152      0.096700
     24 H5C1       -1.2070   -0.0950   -6.2400 hx        1 152      0.096700
     25 H5C2        0.2420    0.7140   -7.0180 hx        1 152      0.096700
     26 H5C3       -0.8460    1.6680   -5.8950 hx        1 152      0.096700
@<TRIPOS>BOND
     1    1    2 1   
     2    1    3 1   
     3    1    4 1   
     4    4    5 1   
     5    4   12 1   
     6    4   13 1   
     7    5    6 1   
     8    5    7 1   
     9    5   14 1   
    10    6   15 1   
    11    7    8 1   
    12    7   16 1   
    13    7   17 1   
    14    8    9 1   
    15    8   10 1   
    16    8   11 1   
    17    9   18 1   
    18    9   19 1   
    19    9   20 1   
    20   10   21 1   
    21   10   22 1   
    22   10   23 1   
    23   11   24 1   
    24   11   25 1   
    25   11   26 1   
@<TRIPOS>SUBSTRUCTURE
     1 152         1 TEMP              0 ****  ****    0 ROOT
