@<TRIPOS>MOLECULE
153
   50    46     1     0     0
SMALL
bcc


@<TRIPOS>ATOM
      1 N1         -0.8720    0.5170   -1.5230 n         1 153     -0.271000
      2 C2          0.5340    0.6540   -1.6420 c3        1 153     -0.070000
      3 C3          0.9070    1.0110   -3.1200 c2        1 153      0.322000
      4 O4          0.5080    2.1740   -3.6430 o         1 153     -0.561500
      5 O5          1.6800    0.3020   -3.7340 o         1 153     -0.561500
      6 C6         -1.5980   -0.3100   -2.4640 c2        1 153      0.345000
      7 O7         -1.8410    0.1180   -3.6070 o         1 153     -0.398000
      8 C8         -2.2410   -1.6070   -1.9890 c2        1 153     -0.081000
      9 C9         -1.4570   -2.6700   -1.6820 c2        1 153     -0.074000
     10 C10        -2.0360   -3.9190   -1.4470 c1        1 153     -0.134000
     11 C11        -3.4310   -4.0720   -1.5300 c1        1 153     -0.051000
     12 C12        -4.2170   -3.0010   -1.8390 c1        1 153     -0.147000
     13 C13        -3.6480   -1.7670   -2.0710 c1        1 153     -0.028000
     14 CL14       -4.1860   -5.5960   -1.0460 cl        1 153     -0.041000
     15 CL15       -4.6920   -0.3580   -2.4470 cl        1 153     -0.008000
     16 C16         1.1980   -0.6400   -1.2520 c3        1 153     -0.127000
     17 C17         2.3070   -0.3610   -0.2180 c2        1 153     -0.051000
     18 C18         3.4190    0.4360   -0.5750 c2        1 153     -0.119000
     19 C19         4.4620    0.5980    0.3050 c1        1 153     -0.136000
     20 C20         4.4250   -0.0190    1.5430 c1        1 153     -0.147500
     21 C21         3.3210   -0.8110    1.9010 c1        1 153     -0.147500
     22 C22         2.2710   -0.9750    1.0150 c1        1 153     -0.138000
     23 C23        -1.6290    1.4220   -0.6000 c3        1 153     -0.011000
     24 C24        -0.7640    1.7520    0.6140 c2        1 153     -0.081000
     25 C25         0.1590    2.7740    0.5350 c2        1 153     -0.081000
     26 C26         0.8340    3.2320    1.7310 c1        1 153     -0.148000
     27 C27         0.5520    2.6420    2.9640 c1        1 153     -0.092000
     28 C28        -0.4030    1.5850    3.0480 c1        1 153     -0.182000
     29 C29        -1.0560    1.1400    1.8950 c1        1 153     -0.069000
     30 C30        -0.8810    1.0650    4.4570 c3        1 153      0.467000
     31 F31        -0.4230    1.8850    5.4190 f         1 153     -0.176333
     32 F32        -2.3140    1.0370    4.4970 f         1 153     -0.176333
     33 F33        -0.4330   -0.1140    4.6470 f         1 153     -0.176333
     34 H2          0.8510    1.3860   -1.0320 h1        1 153      0.101000
     35 H9         -0.4610   -2.5600   -1.6230 ha        1 153      0.221000
     36 H10        -1.4270   -4.7410   -1.1870 ha        1 153      0.151000
     37 H12        -5.1060   -3.1000   -1.8900 ha        1 153      0.149000
     38 H161        0.5370   -1.2440   -0.8630 hc        1 153      0.100500
     39 H162        1.5940   -1.0560   -2.0510 hc        1 153      0.100500
     40 H18         3.4440    0.8470   -1.3980 ha        1 153      0.185000
     41 H19         5.2770    1.1810    0.0400 ha        1 153      0.122000
     42 H20         5.1570    0.0950    2.1590 ha        1 153      0.113500
     43 H21         3.2940   -1.2530    2.7880 ha        1 153      0.113500
     44 H22         1.4880   -1.5380    1.2690 ha        1 153      0.124000
     45 H231       -1.8680    2.2870   -1.0930 h1        1 153      0.120000
     46 H232       -2.4390    0.9790   -0.3070 h1        1 153      0.120000
     47 H25         0.3660    3.2180   -0.3840 ha        1 153      0.206000
     48 H26         1.5340    4.0060    1.6740 ha        1 153      0.135000
     49 H27         1.0270    2.9650    3.8020 ha        1 153      0.134000
     50 H29        -1.7250    0.4040    1.9560 ha        1 153      0.154000
@<TRIPOS>BOND
     1    1    2 1   
     2    1    6 1   
     3    1   23 1   
     4    2    3 1   
     5    2   16 1   
     6    2   34 1   
     7    3    4 1   
     8    3    5 1   
     9    6    7 1   
    10    6    8 1   
    11    8    9 1   
    12    8   13 1   
    13    9   10 1   
    14    9   35 1   
    15   10   36 1   
    16   11   12 1   
    17   11   14 1   
    18   12   37 1   
    19   13   15 1   
    20   16   17 1   
    21   16   38 1   
    22   16   39 1   
    23   17   18 1   
    24   17   22 1   
    25   18   19 1   
    26   18   40 1   
    27   19   41 1   
    28   20   21 1   
    29   20   42 1   
    30   21   43 1   
    31   22   44 1   
    32   23   24 1   
    33   23   45 1   
    34   23   46 1   
    35   24   25 1   
    36   24   29 1   
    37   25   26 1   
    38   25   47 1   
    39   26   48 1   
    40   27   28 1   
    41   27   49 1   
    42   28   30 1   
    43   29   50 1   
    44   30   31 1   
    45   30   32 1   
    46   30   33 1   
@<TRIPOS>SUBSTRUCTURE
     1 153         1 TEMP              0 ****  ****    0 ROOT
