@<TRIPOS>MOLECULE
153
   51    53     1     0     0
SMALL
bcc


@<TRIPOS>ATOM
      1 N1          0.3010    1.0170   -0.3140 n4        1 153     -0.564200
      2 C2          1.6820    0.7700   -0.8700 c3        1 153     -0.055500
      3 C3          2.6550    1.9060   -0.2550 c         1 153      0.929600
      4 O4          2.0890    2.9950    0.0200 o         1 153     -0.763800
      5 O5          3.8390    1.5560   -0.1310 o         1 153     -0.763800
      6 C6         -0.8150    0.2610   -0.9670 c         1 153      0.565700
      7 O7         -0.7660   -0.9640   -0.9550 o         1 153     -0.426100
      8 C8         -1.9090    1.0890   -1.5240 ca        1 153     -0.172600
      9 C9         -1.6090    2.1720   -2.3630 ca        1 153     -0.075000
     10 C10        -2.6220    2.9420   -2.9230 ca        1 153     -0.125000
     11 C11        -3.9590    2.6360   -2.6420 ca        1 153      0.060400
     12 C12        -4.2780    1.5650   -1.8020 ca        1 153     -0.131000
     13 C13        -3.2540    0.7920   -1.2430 ca        1 153      0.078400
     14 CL14       -5.1990    3.5670   -3.3180 cl        1 153     -0.046400
     15 CL15       -3.6960   -0.4800   -0.2140 cl        1 153     -0.047400
     16 C16         1.8280    0.8800   -2.3800 c3        1 153     -0.049100
     17 C17         1.4130   -0.3140   -3.1600 ca        1 153     -0.107300
     18 C18         0.4810   -0.1930   -4.1980 ca        1 153     -0.125500
     19 C19         0.1370   -1.3020   -4.9700 ca        1 153     -0.123000
     20 C20         0.7230   -2.5410   -4.7150 ca        1 153     -0.124000
     21 C21         1.6610   -2.6660   -3.6890 ca        1 153     -0.123000
     22 C22         2.0090   -1.5590   -2.9190 ca        1 153     -0.125500
     23 C23         0.3140    0.7310    1.1670 c3        1 153      0.176100
     24 C24        -0.6500    1.5830    1.9250 ca        1 153     -0.159300
     25 C25        -1.7230    1.0020    2.6080 ca        1 153     -0.079000
     26 C26        -2.5840    1.8000    3.3610 ca        1 153     -0.140000
     27 C27        -2.3830    3.1790    3.4280 ca        1 153     -0.062000
     28 C28        -1.3100    3.7550    2.7430 ca        1 153     -0.170300
     29 C29        -0.4320    2.9650    1.9980 ca        1 153     -0.061000
     30 C30        -1.0770    5.2610    2.8160 c3        1 153      0.689200
     31 F31        -2.1450    5.9790    3.3000 f         1 153     -0.230967
     32 F32        -0.0300    5.6300    3.6220 f         1 153     -0.230967
     33 F33        -0.8050    5.8450    1.6030 f         1 153     -0.230967
     34 H2          2.0150   -0.2430   -0.5200 hx        1 153      0.099700
     35 H9         -0.5610    2.4200   -2.6050 ha        1 153      0.163000
     36 H10        -2.3700    3.7900   -3.5810 ha        1 153      0.171000
     37 H12        -5.3320    1.3270   -1.5790 ha        1 153      0.175000
     38 H161        2.9370    1.0360   -2.5510 hc        1 153      0.083700
     39 H162        1.3200    1.8060   -2.7600 hc        1 153      0.083700
     40 H18         0.0230    0.7840   -4.4140 ha        1 153      0.132000
     41 H19        -0.5960   -1.1970   -5.7840 ha        1 153      0.134000
     42 H20         0.4510   -3.4160   -5.3230 ha        1 153      0.134000
     43 H21         2.1320   -3.6400   -3.4910 ha        1 153      0.134000
     44 H22         2.7640   -1.6570   -2.1230 ha        1 153      0.132000
     45 H231        0.1030   -0.3660    1.3110 hx        1 153      0.117700
     46 H232        1.3610    0.9540    1.5450 hx        1 153      0.117700
     47 H25        -1.8870   -0.0860    2.5600 ha        1 153      0.143000
     48 H26        -3.4240    1.3430    3.9050 ha        1 153      0.149000
     49 H27        -3.0650    3.8130    4.0170 ha        1 153      0.159000
     50 H29         0.4380    3.4240    1.4810 ha        1 153      0.210000
     51 H11         0.1490    2.0400   -0.4280 hn        1 153      0.474800
@<TRIPOS>BOND
     1    1    2 1   
     2    1    6 1   
     3    1   23 1   
     4    1   51 1   
     5    2    3 1   
     6    2   16 1   
     7    2   34 1   
     8    3    4 1   
     9    3    5 1   
    10    6    7 2   
    11    6    8 1   
    12    8    9 ar  
    13    8   13 ar  
    14    9   10 ar  
    15    9   35 1   
    16   10   11 ar  
    17   10   36 1   
    18   11   12 ar  
    19   11   14 1   
    20   12   13 ar  
    21   12   37 1   
    22   13   15 1   
    23   16   17 1   
    24   16   38 1   
    25   16   39 1   
    26   17   18 ar  
    27   17   22 ar  
    28   18   19 ar  
    29   18   40 1   
    30   19   20 ar  
    31   19   41 1   
    32   20   21 ar  
    33   20   42 1   
    34   21   22 ar  
    35   21   43 1   
    36   22   44 1   
    37   23   24 1   
    38   23   45 1   
    39   23   46 1   
    40   24   25 ar  
    41   24   29 ar  
    42   25   26 ar  
    43   25   47 1   
    44   26   27 ar  
    45   26   48 1   
    46   27   28 ar  
    47   27   49 1   
    48   28   29 ar  
    49   28   30 1   
    50   29   50 1   
    51   30   31 1   
    52   30   32 1   
    53   30   33 1   
@<TRIPOS>SUBSTRUCTURE
     1 153         1 TEMP              0 ****  ****    0 ROOT
