@<TRIPOS>MOLECULE
153
   50    52     1     0     0
SMALL
bcc


@<TRIPOS>ATOM
      1 N1         -0.3260   -1.2690    0.6930 n         1 153     -0.405800
      2 C2         -0.0340   -2.6920    0.8590 c3        1 153     -0.052300
      3 C3          0.3100   -3.1490    2.3340 c         1 153      0.912600
      4 O4          0.5130   -2.2880    3.2300 o         1 153     -0.820300
      5 O5          0.3610   -4.3960    2.4970 o         1 153     -0.820300
      6 C6         -1.6110   -0.8870    0.3580 c         1 153      0.666700
      7 O7         -2.4430   -1.6840   -0.1310 o         1 153     -0.622100
      8 C8         -2.0160    0.5530    0.5080 ca        1 153     -0.106600
      9 C9         -1.9880    1.3820   -0.6170 ca        1 153     -0.083000
     10 C10        -2.4370    2.6980   -0.5410 ca        1 153     -0.136000
     11 C11        -2.9270    3.1850    0.6730 ca        1 153      0.028400
     12 C12        -2.9710    2.3710    1.8070 ca        1 153     -0.135000
     13 C13        -2.5160    1.0500    1.7210 ca        1 153      0.043400
     14 CL14       -3.4820    4.7930    0.7750 cl        1 153     -0.109400
     15 CL15       -2.5830    0.0700    3.0990 cl        1 153     -0.038400
     16 C16         1.1110   -3.1920   -0.0280 c3        1 153     -0.050100
     17 C17         0.8910   -3.1800   -1.4980 ca        1 153     -0.055300
     18 C18         2.0160   -3.1910   -2.3400 ca        1 153     -0.138500
     19 C19         1.8710   -3.2320   -3.7240 ca        1 153     -0.137500
     20 C20         0.5980   -3.2600   -4.2930 ca        1 153     -0.156000
     21 C21        -0.5250   -3.2450   -3.4670 ca        1 153     -0.137500
     22 C22        -0.3820   -3.2050   -2.0800 ca        1 153     -0.138500
     23 C23         0.5890   -0.3270    1.2950 c3        1 153      0.116300
     24 C24         1.2920    0.6140    0.3510 ca        1 153     -0.081300
     25 C25         1.6920    0.2300   -0.9320 ca        1 153     -0.094000
     26 C26         2.3920    1.1180   -1.7510 ca        1 153     -0.141000
     27 C27         2.7100    2.3950   -1.2950 ca        1 153     -0.104000
     28 C28         2.3210    2.7760   -0.0080 ca        1 153     -0.174300
     29 C29         1.6150    1.8970    0.8130 ca        1 153     -0.085000
     30 C30         2.6900    4.1620    0.4970 c3        1 153      0.687200
     31 F31         2.6290    5.1540   -0.4550 f         1 153     -0.245967
     32 F32         1.9090    4.6430    1.5200 f         1 153     -0.245967
     33 F33         3.9720    4.2680    0.9870 f         1 153     -0.245967
     34 H2         -0.9720   -3.2660    0.5950 h1        1 153      0.086700
     35 H9         -1.6090    0.9840   -1.5710 ha        1 153      0.152000
     36 H10        -2.4050    3.3450   -1.4310 ha        1 153      0.145000
     37 H12        -3.3600    2.7610    2.7600 ha        1 153      0.156000
     38 H161        2.0440   -2.6130    0.2130 hc        1 153      0.070200
     39 H162        1.2910   -4.2610    0.2890 hc        1 153      0.070200
     40 H18         3.0220   -3.1730   -1.8960 ha        1 153      0.148000
     41 H19         2.7610   -3.2440   -4.3690 ha        1 153      0.118000
     42 H20         0.4810   -3.2950   -5.3850 ha        1 153      0.114000
     43 H21        -1.5320   -3.2650   -3.9070 ha        1 153      0.118000
     44 H22        -1.2820   -3.1780   -1.4400 ha        1 153      0.148000
     45 H231        0.0450    0.2810    2.0780 h1        1 153      0.095700
     46 H232        1.3910   -0.9110    1.8470 h1        1 153      0.095700
     47 H25         1.4610   -0.7860   -1.3010 ha        1 153      0.168000
     48 H26         2.6960    0.8060   -2.7610 ha        1 153      0.134000
     49 H27         3.2590    3.1010   -1.9340 ha        1 153      0.136000
     50 H29         1.3110    2.2130    1.8250 ha        1 153      0.153000
@<TRIPOS>BOND
     1    1    2 1   
     2    1    6 1   
     3    1   23 1   
     4    2    3 1   
     5    2   16 1   
     6    2   34 1   
     7    3    4 1   
     8    3    5 1   
     9    6    7 2   
    10    6    8 1   
    11    8    9 ar  
    12    8   13 ar  
    13    9   10 ar  
    14    9   35 1   
    15   10   11 ar  
    16   10   36 1   
    17   11   12 ar  
    18   11   14 1   
    19   12   13 ar  
    20   12   37 1   
    21   13   15 1   
    22   16   17 1   
    23   16   38 1   
    24   16   39 1   
    25   17   18 ar  
    26   17   22 ar  
    27   18   19 ar  
    28   18   40 1   
    29   19   20 ar  
    30   19   41 1   
    31   20   21 ar  
    32   20   42 1   
    33   21   22 ar  
    34   21   43 1   
    35   22   44 1   
    36   23   24 1   
    37   23   45 1   
    38   23   46 1   
    39   24   25 ar  
    40   24   29 ar  
    41   25   26 ar  
    42   25   47 1   
    43   26   27 ar  
    44   26   48 1   
    45   27   28 ar  
    46   27   49 1   
    47   28   29 ar  
    48   28   30 1   
    49   29   50 1   
    50   30   31 1   
    51   30   32 1   
    52   30   33 1   
@<TRIPOS>SUBSTRUCTURE
     1 153         1 TEMP              0 ****  ****    0 ROOT
