@<TRIPOS>MOLECULE
153
   51    53     1     0     0
SMALL
bcc


@<TRIPOS>ATOM
      1 N1         -0.6770    0.5390    0.4190 nx        1 153     -0.555200
      2 C2          0.6920    0.1530   -0.0960 c3        1 153     -0.038500
      3 C3          1.7840   -0.0750    1.0510 c         1 153      0.935600
      4 O4          2.1550   -1.2590    1.1630 o         1 153     -0.762300
      5 O5          2.1550    0.9430    1.6810 o         1 153     -0.762300
      6 C6         -1.4370   -0.7170    0.7780 c         1 153      0.575700
      7 O7         -1.5990   -0.9960    1.9570 o         1 153     -0.406100
      8 C8         -1.9630   -1.4740   -0.3800 ca        1 153     -0.182600
      9 C9         -2.9790   -0.9040   -1.1580 ca        1 153     -0.080000
     10 C10        -3.5390   -1.6130   -2.2140 ca        1 153     -0.127000
     11 C11        -3.0760   -2.9040   -2.4990 ca        1 153      0.059400
     12 C12        -2.0600   -3.4820   -1.7360 ca        1 153     -0.128000
     13 C13        -1.4980   -2.7680   -0.6690 ca        1 153      0.072400
     14 Cl14       -3.7540   -3.7720   -3.7850 cl        1 153     -0.052400
     15 Cl15       -0.2610   -3.4690    0.2330 cl        1 153      0.009600
     16 C16         1.2460    1.1590   -1.0960 c3        1 153     -0.054100
     17 C17         0.4240    1.2590   -2.3320 ca        1 153     -0.105300
     18 C18        -0.5340    2.2700   -2.4740 ca        1 153     -0.139000
     19 C19        -1.2870    2.3670   -3.6440 ca        1 153     -0.126500
     20 C20        -1.0920    1.4550   -4.6800 ca        1 153     -0.129000
     21 C21        -0.1390    0.4450   -4.5450 ca        1 153     -0.126500
     22 C22         0.6170    0.3470   -3.3780 ca        1 153     -0.139000
     23 C23        -0.6830    1.5060    1.5670 c3        1 153      0.154100
     24 C24        -0.5750    2.9350    1.1470 ca        1 153     -0.144300
     25 C25        -1.7010    3.6180    0.6740 ca        1 153     -0.104000
     26 C26        -1.6170    4.9730    0.3610 ca        1 153     -0.144000
     27 C27        -0.4110    5.6550    0.5240 ca        1 153     -0.061000
     28 C28         0.7120    4.9700    0.9930 ca        1 153     -0.174300
     29 C29         0.6420    3.6090    1.3030 ca        1 153     -0.035000
     30 C30         2.0320    5.7100    1.1850 c3        1 153      0.689200
     31 F31         2.0840    6.9460    0.5860 f         1 153     -0.230633
     32 F32         2.3440    5.9630    2.4990 f         1 153     -0.230633
     33 F33         3.1280    5.0500    0.6900 f         1 153     -0.230633
     34 H2          0.5580   -0.8420   -0.6180 hx        1 153      0.085700
     35 H9         -3.3520    0.1070   -0.9290 ha        1 153      0.141000
     36 H10        -4.3410   -1.1610   -2.8200 ha        1 153      0.164000
     37 H12        -1.6960   -4.4980   -1.9650 ha        1 153      0.178000
     38 H161        2.2840    0.8030   -1.3480 hc        1 153      0.093200
     39 H162        1.3610    2.1630   -0.6040 hc        1 153      0.093200
     40 H18        -0.6740    3.0100   -1.6690 ha        1 153      0.138500
     41 H19        -2.0270    3.1740   -3.7530 ha        1 153      0.135000
     42 H20        -1.6820    1.5360   -5.6050 ha        1 153      0.136000
     43 H21         0.0240   -0.2710   -5.3640 ha        1 153      0.135000
     44 H22         1.3770   -0.4430   -3.2760 ha        1 153      0.138500
     45 H231       -1.6540    1.3620    2.1260 hx        1 153      0.127700
     46 H232        0.1710    1.2340    2.2660 hx        1 153      0.127700
     47 H25        -2.6610    3.0910    0.5640 ha        1 153      0.128000
     48 H26        -2.5040    5.5110   -0.0060 ha        1 153      0.146000
     49 H27        -0.3420    6.7290    0.2830 ha        1 153      0.159000
     50 H29         1.5390    3.0570    1.6600 ha        1 153      0.221000
     51 H11        -1.1740    0.9830   -0.3690 hn        1 153      0.427800
@<TRIPOS>BOND
     1    1    2 1   
     2    1    6 1   
     3    1   23 1   
     4    1   51 1   
     5    2    3 1   
     6    2   16 1   
     7    2   34 1   
     8    3    4 1   
     9    3    5 1   
    10    6    7 2   
    11    6    8 1   
    12    8    9 ar  
    13    8   13 ar  
    14    9   10 ar  
    15    9   35 1   
    16   10   11 ar  
    17   10   36 1   
    18   11   12 ar  
    19   11   14 1   
    20   12   13 ar  
    21   12   37 1   
    22   13   15 1   
    23   16   17 1   
    24   16   38 1   
    25   16   39 1   
    26   17   18 ar  
    27   17   22 ar  
    28   18   19 ar  
    29   18   40 1   
    30   19   20 ar  
    31   19   41 1   
    32   20   21 ar  
    33   20   42 1   
    34   21   22 ar  
    35   21   43 1   
    36   22   44 1   
    37   23   24 1   
    38   23   45 1   
    39   23   46 1   
    40   24   25 ar  
    41   24   29 ar  
    42   25   26 ar  
    43   25   47 1   
    44   26   27 ar  
    45   26   48 1   
    46   27   28 ar  
    47   27   49 1   
    48   28   29 ar  
    49   28   30 1   
    50   29   50 1   
    51   30   31 1   
    52   30   32 1   
    53   30   33 1   
@<TRIPOS>SUBSTRUCTURE
     1 153         1 TEMP              0 ****  ****    0 ROOT
