@<TRIPOS>MOLECULE
154
   58    62     1     0     0
SMALL
bcc


@<TRIPOS>ATOM
      1 N1         -0.2650   -0.2110    0.9040 n4        1 154     -0.559200
      2 C2          1.1440    0.0640    0.4630 c3        1 154     -0.041500
      3 C3          2.0590    0.3600    1.7420 c         1 154      0.924600
      4 O4          3.2160    0.7450    1.4930 o         1 154     -0.772300
      5 O5          1.5160    0.1480    2.8580 o         1 154     -0.772300
      6 C6         -0.9810    0.8770    1.6690 c         1 154      0.608700
      7 O7         -1.8420    0.4700    2.4430 o         1 154     -0.450100
      8 C8         -0.6460    2.3020    1.4730 ca        1 154     -0.156600
      9 C9          0.3290    2.8870    2.2900 ca        1 154     -0.043000
     10 C10         0.5860    4.2550    2.1990 ca        1 154     -0.121000
     11 C11        -0.1380    5.0390    1.2960 ca        1 154      0.051400
     12 C12        -1.1200    4.4660    0.4770 ca        1 154     -0.130000
     13 C13        -1.3710    3.0970    0.5700 ca        1 154      0.048400
     14 CL14        0.1670    6.7020    1.1840 cl        1 154     -0.059400
     15 CL15       -2.5680    2.4100   -0.4240 cl        1 154     -0.084400
     16 C16         1.3360    1.1170   -0.6200 c3        1 154     -0.053100
     17 C17         1.4220    0.5440   -1.9920 ca        1 154     -0.099300
     18 C18         0.4790    0.8790   -2.9700 ca        1 154     -0.135000
     19 C19         0.5930    0.3690   -4.2620 ca        1 154     -0.128500
     20 C20         1.6510   -0.4790   -4.5890 ca        1 154     -0.132000
     21 C21         2.5990   -0.8110   -3.6200 ca        1 154     -0.128500
     22 C22         2.4890   -0.3010   -2.3280 ca        1 154     -0.135000
     23 C23        -1.1420   -0.7450   -0.1920 c3        1 154      0.201100
     24 C24        -1.1200   -2.2190   -0.2590 cc        1 154     -0.218400
     25 C25        -1.6240   -3.0580    0.7290 cd        1 154     -0.124000
     26 C26        -1.5040   -4.4240    0.3660 cd        1 154     -0.126000
     27 C27        -0.9170   -4.5710   -0.8890 cc        1 154     -0.057900
     28 S28        -0.5340   -3.0840   -1.5600 ss        1 154      0.136200
     29 C29        -0.6650   -5.8130   -1.5420 cc        1 154      0.103900
     30 C30        -0.0420   -6.1380   -2.7310 cd        1 154     -0.151200
     31 C31        -0.0950   -7.5800   -2.8530 ca        1 154     -0.107800
     32 C32         0.3440   -8.5110   -3.7930 ca        1 154     -0.078000
     33 C33         0.1010   -9.8600   -3.5500 ca        1 154     -0.148000
     34 C34        -0.5670  -10.2910   -2.3920 ca        1 154     -0.105000
     35 C35        -1.0190   -9.3900   -1.4300 ca        1 154     -0.123000
     36 C36        -0.7720   -8.0440   -1.6820 ca        1 154      0.069100
     37 O37        -1.1290   -6.9700   -0.8670 os        1 154     -0.190200
     38 H2          1.5200   -0.9280    0.0660 hx        1 154      0.089700
     39 H9          0.9080    2.2540    2.9970 ha        1 154      0.217000
     40 H10         1.3620    4.7050    2.8380 ha        1 154      0.173000
     41 H12        -1.6900    5.0890   -0.2300 ha        1 154      0.170000
     42 H161        2.3190    1.6280   -0.3890 hc        1 154      0.089200
     43 H162        0.5380    1.9030   -0.5840 hc        1 154      0.089200
     44 H18        -0.3470    1.5640   -2.7250 ha        1 154      0.142000
     45 H19        -0.1480    0.6430   -5.0270 ha        1 154      0.135000
     46 H20         1.7430   -0.8770   -5.6100 ha        1 154      0.134000
     47 H21         3.4430   -1.4680   -3.8780 ha        1 154      0.135000
     48 H22         3.2480   -0.5430   -1.5670 ha        1 154      0.142000
     49 H231       -2.2020   -0.4040    0.0110 hx        1 154      0.103700
     50 H232       -0.7990   -0.2850   -1.1650 hx        1 154      0.103700
     51 H25        -2.0650   -2.7210    1.6720 ha        1 154      0.169000
     52 H26        -1.8320   -5.2590    0.9920 ha        1 154      0.179000
     53 H30         0.4100   -5.4600   -3.4500 ha        1 154      0.167000
     54 H32         0.8680   -8.1850   -4.7020 ha        1 154      0.141000
     55 H33         0.4390  -10.6100   -4.2800 ha        1 154      0.137000
     56 H34        -0.7370  -11.3680   -2.2410 ha        1 154      0.139000
     57 H35        -1.5400   -9.7180   -0.5220 ha        1 154      0.153000
     58 H11        -0.1420   -0.9630    1.6190 hn        1 154      0.479800
@<TRIPOS>BOND
     1    1    2 1   
     2    1    6 1   
     3    1   23 1   
     4    1   58 1   
     5    2    3 1   
     6    2   16 1   
     7    2   38 1   
     8    3    4 1   
     9    3    5 1   
    10    6    7 2   
    11    6    8 1   
    12    8    9 ar  
    13    8   13 ar  
    14    9   10 ar  
    15    9   39 1   
    16   10   11 ar  
    17   10   40 1   
    18   11   12 ar  
    19   11   14 1   
    20   12   13 ar  
    21   12   41 1   
    22   13   15 1   
    23   16   17 1   
    24   16   42 1   
    25   16   43 1   
    26   17   18 ar  
    27   17   22 ar  
    28   18   19 ar  
    29   18   44 1   
    30   19   20 ar  
    31   19   45 1   
    32   20   21 ar  
    33   20   46 1   
    34   21   22 ar  
    35   21   47 1   
    36   22   48 1   
    37   23   24 1   
    38   23   49 1   
    39   23   50 1   
    40   24   25 2   
    41   24   28 1   
    42   25   26 1   
    43   25   51 1   
    44   26   27 2   
    45   26   52 1   
    46   27   28 1   
    47   27   29 1   
    48   29   30 2   
    49   29   37 1   
    50   30   31 1   
    51   30   53 1   
    52   31   32 ar  
    53   31   36 ar  
    54   32   33 ar  
    55   32   54 1   
    56   33   34 ar  
    57   33   55 1   
    58   34   35 ar  
    59   34   56 1   
    60   35   36 ar  
    61   35   57 1   
    62   36   37 1   
@<TRIPOS>SUBSTRUCTURE
     1 154         1 TEMP              0 ****  ****    0 ROOT
