@<TRIPOS>MOLECULE
154
   58    62     1     0     0
SMALL
bcc


@<TRIPOS>ATOM
      1 N1         -0.2580   -0.2140    0.9060 nx        1 154     -0.559200
      2 C2          1.1460    0.0700    0.4530 c3        1 154     -0.041500
      3 C3          2.0700    0.3720    1.7240 c         1 154      0.924600
      4 O4          3.2220    0.7640    1.4660 o         1 154     -0.772300
      5 O5          1.5380    0.1570    2.8450 o         1 154     -0.772300
      6 C6         -0.9740    0.8700    1.6770 c         1 154      0.608700
      7 O7         -1.8270    0.4580    2.4580 o         1 154     -0.450100
      8 C8         -0.6500    2.2970    1.4790 ca        1 154     -0.156600
      9 C9          0.3290    2.8880    2.2870 ca        1 154     -0.043000
     10 C10         0.5760    4.2580    2.1950 ca        1 154     -0.121000
     11 C11        -0.1600    5.0370    1.2980 ca        1 154      0.051400
     12 C12        -1.1450    4.4590    0.4880 ca        1 154     -0.130000
     13 C13        -1.3870    3.0880    0.5820 ca        1 154      0.048400
     14 Cl14        0.1340    6.7020    1.1840 cl        1 154     -0.059400
     15 Cl15       -2.5880    2.3940   -0.4030 cl        1 154     -0.084400
     16 C16         1.3210    1.1250   -0.6310 c3        1 154     -0.053100
     17 C17         1.3990    0.5520   -2.0040 ca        1 154     -0.099300
     18 C18         0.4440    0.8830   -2.9730 ca        1 154     -0.135000
     19 C19         0.5500    0.3740   -4.2670 ca        1 154     -0.128500
     20 C20         1.6090   -0.4680   -4.6030 ca        1 154     -0.132000
     21 C21         2.5680   -0.7950   -3.6440 ca        1 154     -0.128500
     22 C22         2.4660   -0.2860   -2.3500 ca        1 154     -0.135000
     23 C23        -1.1410   -0.7530   -0.1820 c3        1 154      0.201100
     24 C24        -1.1110   -2.2270   -0.2490 cc        1 154     -0.218400
     25 C25        -1.6020   -3.0680    0.7430 cd        1 154     -0.124000
     26 C26        -1.4770   -4.4330    0.3800 cd        1 154     -0.126000
     27 C27        -0.9000   -4.5770   -0.8800 cc        1 154     -0.057900
     28 S28        -0.5310   -3.0880   -1.5540 ss        1 154      0.136200
     29 C29        -0.6460   -5.8180   -1.5340 cc        1 154      0.103900
     30 C30        -0.0300   -6.1410   -2.7280 cd        1 154     -0.151200
     31 C31        -0.0760   -7.5830   -2.8490 ca        1 154     -0.107800
     32 C32         0.3610   -8.5110   -3.7930 ca        1 154     -0.078000
     33 C33         0.1270   -9.8610   -3.5470 ca        1 154     -0.148000
     34 C34        -0.5290  -10.2960   -2.3840 ca        1 154     -0.105000
     35 C35        -0.9780   -9.3970   -1.4190 ca        1 154     -0.123000
     36 C36        -0.7410   -8.0500   -1.6730 ca        1 154      0.069100
     37 O37        -1.0980   -6.9780   -0.8560 os        1 154     -0.190200
     38 H2          1.5240   -0.9190    0.0530 hx        1 154      0.089700
     39 H9          0.9170    2.2590    2.9890 ha        1 154      0.217000
     40 H10         1.3550    4.7130    2.8280 ha        1 154      0.173000
     41 H12        -1.7250    5.0790   -0.2150 ha        1 154      0.170000
     42 H161        0.5200    1.9070   -0.5880 hc        1 154      0.089200
     43 H162        2.3040    1.6410   -0.4090 hc        1 154      0.089200
     44 H18        -0.3830    1.5640   -2.7200 ha        1 154      0.142000
     45 H19        -0.2010    0.6450   -5.0240 ha        1 154      0.135000
     46 H20         1.6940   -0.8650   -5.6250 ha        1 154      0.134000
     47 H21         3.4120   -1.4480   -3.9100 ha        1 154      0.135000
     48 H22         3.2340   -0.5250   -1.5960 ha        1 154      0.142000
     49 H231       -0.8090   -0.2910   -1.1590 hx        1 154      0.103700
     50 H232       -2.2010   -0.4180    0.0290 hx        1 154      0.103700
     51 H25        -2.0370   -2.7330    1.6900 ha        1 154      0.169000
     52 H26        -1.7950   -5.2700    1.0080 ha        1 154      0.179000
     53 H30         0.4130   -5.4600   -3.4510 ha        1 154      0.167000
     54 H32         0.8760   -8.1820   -4.7060 ha        1 154      0.141000
     55 H33         0.4640  -10.6100   -4.2800 ha        1 154      0.137000
     56 H34        -0.6910  -11.3740   -2.2310 ha        1 154      0.139000
     57 H35        -1.4910   -9.7270   -0.5070 ha        1 154      0.153000
     58 H11        -0.1240   -0.9650    1.6200 hn        1 154      0.479800
@<TRIPOS>BOND
     1    1    2 1   
     2    1    6 1   
     3    1   23 1   
     4    1   58 1   
     5    2    3 1   
     6    2   16 1   
     7    2   38 1   
     8    3    4 1   
     9    3    5 1   
    10    6    7 2   
    11    6    8 1   
    12    8    9 ar  
    13    8   13 ar  
    14    9   10 ar  
    15    9   39 1   
    16   10   11 ar  
    17   10   40 1   
    18   11   12 ar  
    19   11   14 1   
    20   12   13 ar  
    21   12   41 1   
    22   13   15 1   
    23   16   17 1   
    24   16   42 1   
    25   16   43 1   
    26   17   18 ar  
    27   17   22 ar  
    28   18   19 ar  
    29   18   44 1   
    30   19   20 ar  
    31   19   45 1   
    32   20   21 ar  
    33   20   46 1   
    34   21   22 ar  
    35   21   47 1   
    36   22   48 1   
    37   23   24 1   
    38   23   49 1   
    39   23   50 1   
    40   24   25 2   
    41   24   28 1   
    42   25   26 1   
    43   25   51 1   
    44   26   27 2   
    45   26   52 1   
    46   27   28 1   
    47   27   29 1   
    48   29   30 2   
    49   29   37 1   
    50   30   31 1   
    51   30   53 1   
    52   31   32 ar  
    53   31   36 ar  
    54   32   33 ar  
    55   32   54 1   
    56   33   34 ar  
    57   33   55 1   
    58   34   35 ar  
    59   34   56 1   
    60   35   36 ar  
    61   35   57 1   
    62   36   37 1   
@<TRIPOS>SUBSTRUCTURE
     1 154         1 TEMP              0 ****  ****    0 ROOT
