@<TRIPOS>MOLECULE
154
   57    50     1     0     0
SMALL
bcc


@<TRIPOS>ATOM
      1 N1          0.2300    1.5740    0.3350 n         1 154     -0.331000
      2 C2          1.6650    1.5060    0.2820 c3        1 154     -0.071000
      3 C3          2.1980    1.1820    1.6380 c2        1 154      0.350000
      4 O4          1.5370    0.4390    2.4160 o         1 154     -0.553500
      5 O5          3.3020    1.6500    2.0060 o         1 154     -0.553500
      6 C6         -0.4240    2.1580    1.4800 c2        1 154      0.386000
      7 O7         -0.3290    1.6210    2.5840 o         1 154     -0.244000
      8 C8         -1.2800    3.4340    1.3140 c2        1 154     -0.119000
      9 C9         -0.7920    4.6570    1.7610 c2        1 154     -0.072000
     10 C10        -1.6100    5.7760    1.7520 c1        1 154     -0.140000
     11 C11        -2.9180    5.6770    1.2950 c1        1 154     -0.052000
     12 C12        -3.4080    4.4570    0.8480 c1        1 154     -0.146000
     13 C13        -2.5900    3.3340    0.8570 c1        1 154     -0.037000
     14 CL14       -3.9370    7.0910    1.2620 cl        1 154     -0.041000
     15 CL15       -3.2550    1.7800    0.4730 cl        1 154     -0.011000
     16 C16         2.2240    2.8530   -0.1770 c3        1 154     -0.153000
     17 C17         3.5430    2.6250   -0.9520 c2        1 154     -0.057000
     18 C18         3.6040    2.8990   -2.3170 c2        1 154     -0.145000
     19 C19         4.8190    2.8190   -2.9900 c1        1 154     -0.146000
     20 C20         5.9710    2.4670   -2.3010 c1        1 154     -0.130833
     21 C21         5.9120    2.1940   -0.9410 c1        1 154     -0.130833
     22 C22         4.6940    2.2740   -0.2670 c1        1 154     -0.119000
     23 C23        -0.5580    1.0760   -0.7720 c3        1 154      0.019000
     24 C24        -1.3040   -0.1910   -0.3420 c2        1 154     -0.381000
     25 C25        -2.7390   -0.3090   -0.1540 c1        1 154     -0.196000
     26 C26        -3.0920   -1.8550    0.0730 c1        1 154     -0.113000
     27 C27        -1.8630   -2.6170    0.0150 c2        1 154     -0.429000
     28 S28        -0.6920   -1.6190   -0.2460 ss        1 154      0.761000
     29 C29        -1.7540   -4.0070    0.1010 c2        1 154      0.112000
     30 C30        -1.4450   -4.9590    1.0540 c1        1 154     -0.216000
     31 C31        -1.6740   -6.2120    0.4980 c1        1 154     -0.072000
     32 C32        -1.5350   -7.5100    1.0120 c1        1 154     -0.130833
     33 C33        -1.8470   -8.6050    0.2240 c1        1 154     -0.130833
     34 C34        -2.3000   -8.4180   -1.0780 c1        1 154     -0.130833
     35 C35        -2.4380   -7.1390   -1.5870 c1        1 154     -0.130833
     36 C36        -2.1210   -6.0280   -0.7880 c1        1 154      0.010000
     37 O37        -2.1710   -4.6600   -1.0350 o         1 154     -0.112000
     38 H2          1.9340    0.8100   -0.3490 h1        1 154      0.103000
     39 H9          0.1350    4.7280    2.0850 ha        1 154      0.224000
     40 H10        -1.2680    6.6320    2.0650 ha        1 154      0.148000
     41 H12        -4.3340    4.3880    0.5250 ha        1 154      0.150000
     42 H161        1.5740    3.2960   -0.7610 hc        1 154      0.089500
     43 H162        2.3980    3.4160    0.6020 hc        1 154      0.089500
     44 H18         2.7880    3.1480   -2.8040 ha        1 154      0.118000
     45 H19         4.8610    3.0130   -3.9520 ha        1 154      0.112000
     46 H20         6.8380    2.4100   -2.7810 ha        1 154      0.127667
     47 H21         6.7270    1.9540   -0.4540 ha        1 154      0.127667
     48 H22         4.6530    2.0810    0.6900 ha        1 154      0.198000
     49 H231        0.0320    0.8670   -1.5260 h1        1 154      0.094000
     50 H232       -1.2110    1.7650   -1.0470 h1        1 154      0.094000
     51 H25        -3.3810    0.4240   -0.1850 DU        1 154      0.157333
     52 H26        -3.9930   -2.2250    0.2270 DU        1 154      0.157333
     53 H30        -1.1100   -4.7810    1.9620 DU        1 154      0.157333
     54 H32        -1.2190   -7.6400    1.9190 ha        1 154      0.127667
     55 H33        -1.7500   -9.5010    0.5800 ha        1 154      0.127667
     56 H34        -2.5200   -9.1920   -1.6350 ha        1 154      0.127667
     57 H35        -2.7760   -7.0070   -2.4950 ha        1 154      0.127667
@<TRIPOS>BOND
     1    1    2 1   
     2    1    6 1   
     3    1   23 1   
     4    2    3 1   
     5    2   16 1   
     6    2   38 1   
     7    3    4 1   
     8    3    5 1   
     9    6    7 1   
    10    6    8 1   
    11    8    9 1   
    12    8   13 1   
    13    9   10 1   
    14    9   39 1   
    15   10   40 1   
    16   11   12 1   
    17   11   14 1   
    18   12   41 1   
    19   13   15 1   
    20   16   17 1   
    21   16   42 1   
    22   16   43 1   
    23   17   18 1   
    24   17   22 1   
    25   18   19 1   
    26   18   44 1   
    27   19   45 1   
    28   20   21 1   
    29   20   46 1   
    30   21   47 1   
    31   22   48 1   
    32   23   24 1   
    33   23   49 1   
    34   23   50 1   
    35   24   25 1   
    36   24   28 1   
    37   25   26 1   
    38   26   27 1   
    39   27   28 1   
    40   27   29 1   
    41   29   30 1   
    42   29   37 1   
    43   30   31 1   
    44   31   36 1   
    45   32   33 1   
    46   32   54 1   
    47   33   55 1   
    48   34   35 1   
    49   34   56 1   
    50   35   57 1   
@<TRIPOS>SUBSTRUCTURE
     1 154         1 TEMP              0 ****  ****    0 ROOT
