@<TRIPOS>MOLECULE
154
   57    61     1     0     0
SMALL
bcc


@<TRIPOS>ATOM
      1 N1          1.1420   -0.2980   -0.4130 n         1 154     -0.420800
      2 C2          1.5500   -1.1070    0.7240 c3        1 154     -0.024300
      3 C3          1.8910   -0.3260    2.0450 c         1 154      0.907600
      4 O4          1.2180    0.7080    2.3220 o         1 154     -0.820300
      5 O5          2.7680   -0.8200    2.7990 o         1 154     -0.820300
      6 C6          1.8270    0.7980   -0.9040 c         1 154      0.689700
      7 O7          1.3190    1.5190   -1.7950 o         1 154     -0.634100
      8 C8          3.2160    1.1120   -0.4400 ca        1 154     -0.093600
      9 C9          3.4080    1.8610    0.7250 ca        1 154     -0.057000
     10 C10         4.6890    2.2600    1.1050 ca        1 154     -0.121000
     11 C11         5.7830    1.9110    0.3120 ca        1 154      0.030400
     12 C12         5.6140    1.1600   -0.8530 ca        1 154     -0.144000
     13 C13         4.3250    0.7660   -1.2240 ca        1 154      0.049400
     14 CL14        7.3530    2.4020    0.7640 cl        1 154     -0.121400
     15 CL15        4.1460   -0.1370   -2.6590 cl        1 154     -0.103400
     16 C16         2.6770   -2.0960    0.3840 c3        1 154     -0.064100
     17 C17         2.1960   -3.2790   -0.3790 ca        1 154     -0.050300
     18 C18         2.5940   -3.4920   -1.7050 ca        1 154     -0.136000
     19 C19         2.1560   -4.6160   -2.4030 ca        1 154     -0.136500
     20 C20         1.3160   -5.5420   -1.7860 ca        1 154     -0.154000
     21 C21         0.9160   -5.3390   -0.4650 ca        1 154     -0.136500
     22 C22         1.3530   -4.2170    0.2350 ca        1 154     -0.136000
     23 C23        -0.1110   -0.6540   -1.0450 c3        1 154      0.164300
     24 C24        -1.3630   -0.1810   -0.3930 cc        1 154     -0.082400
     25 C25        -1.5160    0.3680    0.8630 cd        1 154     -0.147000
     26 C26        -2.8790    0.6820    1.1410 cd        1 154     -0.096000
     27 C27        -3.7180    0.3590    0.0840 cc        1 154     -0.113900
     28 S28        -2.8390   -0.2970   -1.2030 ss        1 154     -0.033800
     29 C29        -5.1280    0.5370    0.0400 cc        1 154      0.174900
     30 C30        -6.0750    0.2910   -0.9380 cd        1 154     -0.217200
     31 C31        -7.3580    0.6770   -0.3930 ca        1 154     -0.083800
     32 C32        -8.6710    0.6790   -0.8550 ca        1 154     -0.097000
     33 C33        -9.6730    1.1450   -0.0050 ca        1 154     -0.153000
     34 C34        -9.3860    1.6030    1.2880 ca        1 154     -0.129000
     35 C35        -8.0830    1.6160    1.7850 ca        1 154     -0.120000
     36 C36        -7.0900    1.1500    0.9310 ca        1 154      0.055100
     37 O37        -5.7270    1.0700    1.2100 os        1 154     -0.193200
     38 H2          0.6420   -1.7170    1.0270 h1        1 154      0.054700
     39 H9          2.5360    2.1000    1.3690 ha        1 154      0.211000
     40 H10         4.8280    2.8320    2.0350 ha        1 154      0.151000
     41 H12         6.4810    0.8810   -1.4710 ha        1 154      0.147000
     42 H161        3.4930   -1.5710   -0.1780 hc        1 154      0.078700
     43 H162        3.1160   -2.4400    1.3640 hc        1 154      0.078700
     44 H18         3.2550   -2.7620   -2.1970 ha        1 154      0.138000
     45 H19         2.4740   -4.7710   -3.4440 ha        1 154      0.118000
     46 H20         0.9700   -6.4270   -2.3370 ha        1 154      0.115000
     47 H21         0.2540   -6.0670    0.0260 ha        1 154      0.118000
     48 H22         1.0420   -4.0590    1.2790 ha        1 154      0.138000
     49 H231       -0.0990   -0.2560   -2.1050 h1        1 154      0.065200
     50 H232       -0.1510   -1.7840   -1.0970 h1        1 154      0.065200
     51 H25        -0.6880    0.5570    1.5710 ha        1 154      0.236000
     52 H26        -3.2160    1.1250    2.0820 ha        1 154      0.161000
     53 H30        -5.9020   -0.1130   -1.9310 ha        1 154      0.164000
     54 H32        -8.9100    0.3230   -1.8660 ha        1 154      0.132000
     55 H33       -10.7150    1.1540   -0.3550 ha        1 154      0.123000
     56 H34       -10.2060    1.9620    1.9270 ha        1 154      0.125000
     57 H35        -7.8470    1.9730    2.7950 ha        1 154      0.146000
@<TRIPOS>BOND
     1    1    2 1   
     2    1    6 1   
     3    1   23 1   
     4    2    3 1   
     5    2   16 1   
     6    2   38 1   
     7    3    4 1   
     8    3    5 1   
     9    6    7 2   
    10    6    8 1   
    11    8    9 ar  
    12    8   13 ar  
    13    9   10 ar  
    14    9   39 1   
    15   10   11 ar  
    16   10   40 1   
    17   11   12 ar  
    18   11   14 1   
    19   12   13 ar  
    20   12   41 1   
    21   13   15 1   
    22   16   17 1   
    23   16   42 1   
    24   16   43 1   
    25   17   18 ar  
    26   17   22 ar  
    27   18   19 ar  
    28   18   44 1   
    29   19   20 ar  
    30   19   45 1   
    31   20   21 ar  
    32   20   46 1   
    33   21   22 ar  
    34   21   47 1   
    35   22   48 1   
    36   23   24 1   
    37   23   49 1   
    38   23   50 1   
    39   24   25 2   
    40   24   28 1   
    41   25   26 1   
    42   25   51 1   
    43   26   27 2   
    44   26   52 1   
    45   27   28 1   
    46   27   29 1   
    47   29   30 2   
    48   29   37 1   
    49   30   31 1   
    50   30   53 1   
    51   31   32 ar  
    52   31   36 ar  
    53   32   33 ar  
    54   32   54 1   
    55   33   34 ar  
    56   33   55 1   
    57   34   35 ar  
    58   34   56 1   
    59   35   36 ar  
    60   35   57 1   
    61   36   37 1   
@<TRIPOS>SUBSTRUCTURE
     1 154         1 TEMP              0 ****  ****    0 ROOT
