@<TRIPOS>MOLECULE
155
   54    57     1     0     0
SMALL
bcc


@<TRIPOS>ATOM
      1 N18        -0.1060   -1.1380    0.1500 n2        1 155     -0.676100
      2 C17         0.9900   -0.5180    0.0440 ce        1 155      0.636800
      3 N19         1.6860    0.2510    1.1790 n4        1 155     -0.892600
      4 C12         1.7960   -0.4110   -1.1940 ca        1 155     -0.219900
      5 C13         1.2340    0.1330   -2.3300 ca        1 155     -0.024000
      6 C4          2.0020    0.2310   -3.5220 ca        1 155     -0.043000
      7 C5          1.4620    0.8030   -4.7050 ca        1 155     -0.111000
      8 C6          2.2240    0.8930   -5.8460 ca        1 155     -0.090000
      9 C1          3.5580    0.4160   -5.8510 ca        1 155     -0.107600
     10 C2          4.1080   -0.1410   -4.7150 ca        1 155     -0.069000
     11 C3          3.3380   -0.2490   -3.5280 ca        1 155     -0.021000
     12 C10         3.8760   -0.8320   -2.3460 ca        1 155     -0.069000
     13 C11         3.1260   -0.9140   -1.2010 ca        1 155     -0.150000
     14 C20         4.4280    0.5530   -7.0680 c         1 155      0.667700
     15 O21         5.6020    0.9460   -6.9440 o         1 155     -0.570100
     16 N22         3.8400    0.2260   -8.2740 n         1 155     -0.457100
     17 C23         4.4680    0.2250   -9.5380 ca        1 155      0.036600
     18 C28         5.6380    0.9630   -9.8060 ca        1 155     -0.116000
     19 C27         6.2050    0.9570  -11.0820 ca        1 155     -0.146900
     20 C26         5.6020    0.2100  -12.1110 ca        1 155     -0.069300
     21 C25         4.4420   -0.5220  -11.8450 ca        1 155     -0.109000
     22 C24         3.8730   -0.5230  -10.5800 ca        1 155     -0.159000
     23 C32         6.2040    0.1670  -13.4700 c3        1 155     -0.066100
     24 C33         7.1130    1.3630  -13.7470 c3        1 155      0.101800
     25 N34         7.8300    1.9170  -12.6360 n2        1 155     -0.574900
     26 C35         7.4260    1.7380  -11.4200 ce        1 155      0.465900
     27 C40         8.2080    2.3250  -10.2600 c3        1 155     -0.100000
     28 C41         8.9120    1.2130   -9.5070 c3        1 155     -0.087100
     29 C45         9.2120    3.3820  -10.6800 c3        1 155     -0.087100
     30 H18        -0.6480   -1.1910    0.9840 hn        1 155      0.463400
     31 H191        1.6590    1.2500    0.9580 hn        1 155      0.457800
     32 H192        1.2520    0.0960    2.0910 hn        1 155      0.457800
     33 H13         0.1920    0.4930   -2.3390 ha        1 155      0.157000
     34 H5          0.4250    1.1740   -4.6930 ha        1 155      0.152000
     35 H6          1.8050    1.3560   -6.7550 ha        1 155      0.161000
     36 H2          5.1550   -0.4900   -4.7190 ha        1 155      0.173000
     37 H10         4.9070   -1.2240   -2.3720 ha        1 155      0.164000
     38 H11         3.5370   -1.4070   -0.3070 ha        1 155      0.132000
     39 H22         2.9290   -0.1760   -8.2480 hn        1 155      0.319500
     40 H28         6.1120    1.5410   -8.9950 ha        1 155      0.173000
     41 H25         3.9720   -1.1070  -12.6520 ha        1 155      0.142000
     42 H24         2.9580   -1.1090  -10.4030 ha        1 155      0.131000
     43 H321        6.7960   -0.7840  -13.5630 hc        1 155      0.061700
     44 H322        5.3990    0.1330  -14.2500 hc        1 155      0.061700
     45 H331        7.8910    1.0610  -14.5060 h1        1 155      0.069700
     46 H332        6.5050    2.1970  -14.2050 h1        1 155      0.069700
     47 H40         7.4650    2.8280   -9.5770 hc        1 155      0.054700
     48 H411        8.1780    0.4470   -9.1580 hc        1 155      0.041533
     49 H412        9.4380    1.6340   -8.6160 hc        1 155      0.041533
     50 H413        9.6660    0.7140  -10.1620 hc        1 155      0.041533
     51 H451        8.7100    4.1980  -11.2520 hc        1 155      0.041533
     52 H452        9.6870    3.8240   -9.7700 hc        1 155      0.041533
     53 H453       10.0140    2.9420  -11.3190 hc        1 155      0.041533
     54 H193        2.6670   -0.0440    1.2190 hn        1 155      0.457800
@<TRIPOS>BOND
     1    1    2 2   
     2    1   30 1   
     3    2    3 1   
     4    2    4 1   
     5    3   31 1   
     6    3   32 1   
     7    3   54 1   
     8    4    5 ar  
     9    4   13 ar  
    10    5    6 ar  
    11    5   33 1   
    12    6    7 ar  
    13    6   11 ar  
    14    7    8 ar  
    15    7   34 1   
    16    8    9 ar  
    17    8   35 1   
    18    9   10 ar  
    19    9   14 1   
    20   10   11 ar  
    21   10   36 1   
    22   11   12 ar  
    23   12   13 ar  
    24   12   37 1   
    25   13   38 1   
    26   14   15 2   
    27   14   16 1   
    28   16   17 1   
    29   16   39 1   
    30   17   18 ar  
    31   17   22 ar  
    32   18   19 ar  
    33   18   40 1   
    34   19   20 ar  
    35   19   26 1   
    36   20   21 ar  
    37   20   23 1   
    38   21   22 ar  
    39   21   41 1   
    40   22   42 1   
    41   23   24 1   
    42   23   43 1   
    43   23   44 1   
    44   24   25 1   
    45   24   45 1   
    46   24   46 1   
    47   25   26 2   
    48   26   27 1   
    49   27   28 1   
    50   27   29 1   
    51   27   47 1   
    52   28   48 1   
    53   28   49 1   
    54   28   50 1   
    55   29   51 1   
    56   29   52 1   
    57   29   53 1   
@<TRIPOS>SUBSTRUCTURE
     1 155         1 TEMP              0 ****  ****    0 ROOT
