@<TRIPOS>MOLECULE
155
   53    49     1     0     0
SMALL
bcc


@<TRIPOS>ATOM
      1 N18        -6.7030   -0.9670    6.3040 n1        1 155     -0.288000
      2 C17        -6.1050    0.1220    5.8970 c1        1 155      0.123000
      3 N19        -6.1900    1.3090    6.6720 n2        1 155     -0.397000
      4 C12        -5.3240    0.1180    4.6010 c2        1 155     -0.040000
      5 C13        -3.9910   -0.2680    4.6380 c1        1 155     -0.100000
      6 C4         -3.2780   -0.4540    3.4390 c1        1 155     -0.030000
      7 C5         -1.9220   -0.8320    3.4760 c2        1 155     -0.115000
      8 C6         -1.2170   -1.0030    2.2920 c1        1 155     -0.115000
      9 C1         -1.8490   -0.8010    1.0690 c1        1 155     -0.126000
     10 C2         -3.1860   -0.4280    1.0310 c1        1 155     -0.056000
     11 C3         -3.9030   -0.2550    2.2310 c1        1 155     -0.041000
     12 C10        -5.2550    0.1360    2.1940 c2        1 155     -0.116000
     13 C11        -5.9560    0.3200    3.3780 c2        1 155     -0.094000
     14 C20        -1.1290   -0.7360   -0.2590 c2        1 155      0.354000
     15 O21        -1.7570   -0.5570   -1.2820 o         1 155     -0.343000
     16 N22         0.2780   -0.9070   -0.3110 n         1 155     -0.323000
     17 C23         0.9510   -0.8680   -1.5590 c2        1 155      0.069000
     18 C28         2.1460   -0.1800   -1.6780 c2        1 155     -0.156000
     19 C27         2.8450   -0.1910   -2.8990 c1        1 155     -0.065000
     20 C26         2.3460   -0.8800   -3.9640 c1        1 155     -0.079000
     21 C25         1.1310   -1.5790   -3.8420 c1        1 155     -0.109000
     22 C24         0.4430   -1.5670   -2.6400 c1        1 155     -0.138000
     23 C32         3.0920   -0.8680   -5.2960 c3        1 155     -0.147000
     24 C33         4.4680   -0.2000   -5.3680 c3        1 155     -0.101000
     25 N34         4.7020    0.7830   -4.3410 n2        1 155     -0.170000
     26 C35         4.1130    0.6230   -3.0550 c2        1 155      0.021000
     27 C40         4.7350    1.2870   -1.8530 c3        1 155     -0.065000
     28 C41         6.1800    0.8580   -1.7320 c3        1 155     -0.205000
     29 C45         4.6670    2.7880   -2.0160 c3        1 155     -0.205000
     30 H18        -7.1740   -0.9650    7.0860 DU        1 155      0.141000
     31 H191       -6.6340    1.3020    7.4710 hn        1 155      0.194500
     32 H192       -5.7970    2.0780    6.3730 hn        1 155      0.194500
     33 H13        -3.5460   -0.4010    5.4960 ha        1 155      0.148000
     34 H5         -1.4790   -0.9740    4.3320 ha        1 155      0.140000
     35 H6         -0.2770   -1.2640    2.3170 ha        1 155      0.139000
     36 H2         -3.6300   -0.2860    0.1730 ha        1 155      0.157000
     37 H10        -5.6980    0.2780    1.3380 ha        1 155      0.142000
     38 H11        -6.8970    0.5800    3.3520 ha        1 155      0.153000
     39 H22         0.7510   -1.0300    0.4590 hn        1 155      0.233000
     40 H28         2.5080    0.3050   -0.9130 ha        1 155      0.135000
     41 H25         0.7730   -2.0710   -4.6040 ha        1 155      0.138000
     42 H24        -0.4100   -2.0330   -2.5630 ha        1 155      0.175000
     43 H321        2.5170   -0.4250   -5.9510 hc        1 155      0.097000
     44 H322        3.2030   -1.7980   -5.5780 hc        1 155      0.097000
     45 H331        4.5630    0.0760   -6.3020 h1        1 155      0.103500
     46 H332        5.2080   -0.8370   -5.2940 h1        1 155      0.103500
     47 H40         4.2500    1.0250   -1.0490 hc        1 155      0.090000
     48 H411        6.5420    1.1670   -0.8750 hc        1 155      0.079333
     49 H412        6.2360   -0.1200   -1.7770 hc        1 155      0.079333
     50 H413        6.7000    1.2490   -2.4650 hc        1 155      0.079333
     51 H451        5.2420    3.0620   -2.7590 hc        1 155      0.079333
     52 H452        4.9720    3.2200   -1.1910 hc        1 155      0.079333
     53 H453        3.7420    3.0550   -2.2020 hc        1 155      0.079333
@<TRIPOS>BOND
     1    1    2 1   
     2    2    4 1   
     3    3   31 1   
     4    3   32 1   
     5    4    5 1   
     6    4   13 1   
     7    5   33 1   
     8    6    7 1   
     9    6   11 1   
    10    7    8 1   
    11    7   34 1   
    12    8   35 1   
    13    9   10 1   
    14    9   14 1   
    15   10   36 1   
    16   11   12 1   
    17   12   13 1   
    18   12   37 1   
    19   13   38 1   
    20   14   15 1   
    21   14   16 1   
    22   16   17 1   
    23   16   39 1   
    24   17   18 1   
    25   17   22 1   
    26   18   19 1   
    27   18   40 1   
    28   19   26 1   
    29   20   21 1   
    30   20   23 1   
    31   21   41 1   
    32   22   42 1   
    33   23   24 1   
    34   23   43 1   
    35   23   44 1   
    36   24   25 1   
    37   24   45 1   
    38   24   46 1   
    39   25   26 1   
    40   26   27 1   
    41   27   28 1   
    42   27   29 1   
    43   27   47 1   
    44   28   48 1   
    45   28   49 1   
    46   28   50 1   
    47   29   51 1   
    48   29   52 1   
    49   29   53 1   
@<TRIPOS>SUBSTRUCTURE
     1 155         1 TEMP              0 ****  ****    0 ROOT
