@<TRIPOS>MOLECULE
155
   55    58     1     0     0
SMALL
bcc


@<TRIPOS>ATOM
      1 N18         4.1940    1.6970   -0.3630 n2        1 155     -0.658100
      2 C17         3.5710    0.6310   -0.6380 ce        1 155      0.613800
      3 N19         2.9200   -0.3070    0.3780 n4        1 155     -0.884600
      4 C12         3.3740    0.1290   -2.0240 ca        1 155     -0.178900
      5 C13         2.7540    0.9350   -2.9560 ca        1 155     -0.037000
      6 C4          2.6140    0.4850   -4.2990 ca        1 155     -0.018000
      7 C5          1.9720    1.2860   -5.2840 ca        1 155     -0.078000
      8 C6          1.8500    0.8410   -6.5780 ca        1 155     -0.110000
      9 C1          2.3640   -0.4320   -6.9430 ca        1 155     -0.160600
     10 C2          2.9820   -1.2370   -6.0030 ca        1 155     -0.015000
     11 C3          3.1250   -0.7870   -4.6620 ca        1 155     -0.031000
     12 C10         3.7720   -1.5890   -3.6790 ca        1 155     -0.068000
     13 C11         3.8970   -1.1410   -2.3860 ca        1 155     -0.125000
     14 C20         2.1960   -0.9710   -8.3020 c         1 155      0.567700
     15 O21         1.9060   -2.1170   -8.6130 o         1 155     -0.400100
     16 N22         2.4090   -0.0120   -9.4570 n4        1 155     -0.533200
     17 C23         3.7590   -0.1370  -10.0220 ca        1 155     -0.087400
     18 C28         4.6750    0.9190   -9.8730 ca        1 155     -0.080000
     19 C27         5.9420    0.8210  -10.4490 ca        1 155     -0.140900
     20 C26         6.2900   -0.3420  -11.1710 ca        1 155      0.007700
     21 C25         5.3660   -1.3870  -11.3030 ca        1 155     -0.113000
     22 C24         4.1000   -1.2990  -10.7380 ca        1 155     -0.087000
     23 C32         7.6420   -0.4850  -11.7710 c3        1 155     -0.087100
     24 C33         8.3680    0.8470  -11.9510 c3        1 155      0.088800
     25 N34         8.0440    1.9090  -11.0480 n2        1 155     -0.525900
     26 C35         6.9500    1.9150  -10.3620 ce        1 155      0.440900
     27 C40         6.6420    3.0620   -9.4170 c3        1 155     -0.095000
     28 C41         6.8030    2.5980   -7.9820 c3        1 155     -0.090600
     29 C45         7.4990    4.2890   -9.6620 c3        1 155     -0.090600
     30 H18         4.3370    2.0550    0.5570 hn        1 155      0.478400
     31 H191        3.1870   -0.0880    1.3430 hn        1 155      0.464800
     32 H192        3.1950   -1.2720    0.1690 hn        1 155      0.464800
     33 H13         2.3720    1.9350   -2.6890 ha        1 155      0.171000
     34 H5          1.5690    2.2700   -4.9920 ha        1 155      0.172000
     35 H6          1.3160    1.4650   -7.3120 ha        1 155      0.148000
     36 H2          3.3660   -2.2360   -6.2770 ha        1 155      0.177000
     37 H10         4.1790   -2.5710   -3.9740 ha        1 155      0.174000
     38 H11         4.4380   -1.7530   -1.6470 ha        1 155      0.150000
     39 H22         2.2610    0.9550   -9.1470 hn        1 155      0.465800
     40 H28         4.3970    1.8240   -9.3080 ha        1 155      0.154000
     41 H25         5.6440   -2.2920  -11.8710 ha        1 155      0.177000
     42 H24         3.3860   -2.1320  -10.8540 ha        1 155      0.168000
     43 H321        8.2480   -1.1570  -11.1010 hc        1 155      0.085700
     44 H322        7.5690   -0.9990  -12.7680 hc        1 155      0.085700
     45 H331        9.4800    0.6710  -11.8490 h1        1 155      0.096200
     46 H332        8.1910    1.2380  -12.9970 h1        1 155      0.096200
     47 H40         5.5720    3.3670   -9.5990 hc        1 155      0.038700
     48 H411        6.1630    1.7070   -7.7760 hc        1 155      0.046367
     49 H412        6.5130    3.4200   -7.2840 hc        1 155      0.046367
     50 H413        7.8680    2.3240   -7.7800 hc        1 155      0.046367
     51 H451        8.5750    4.0780   -9.4510 hc        1 155      0.046367
     52 H452        7.1620    5.1160   -8.9900 hc        1 155      0.046367
     53 H453        7.4060    4.6300  -10.7210 hc        1 155      0.046367
     54 H193        1.9000   -0.2340    0.2920 hn        1 155      0.464800
     55 H222        1.7330   -0.2360  -10.2040 hn        1 155      0.465800
@<TRIPOS>BOND
     1    1    2 2   
     2    1   30 1   
     3    2    3 1   
     4    2    4 1   
     5    3   31 1   
     6    3   32 1   
     7    3   54 1   
     8    4    5 ar  
     9    4   13 ar  
    10    5    6 ar  
    11    5   33 1   
    12    6    7 ar  
    13    6   11 ar  
    14    7    8 ar  
    15    7   34 1   
    16    8    9 ar  
    17    8   35 1   
    18    9   10 ar  
    19    9   14 1   
    20   10   11 ar  
    21   10   36 1   
    22   11   12 ar  
    23   12   13 ar  
    24   12   37 1   
    25   13   38 1   
    26   14   15 2   
    27   14   16 1   
    28   16   17 1   
    29   16   39 1   
    30   16   55 1   
    31   17   18 ar  
    32   17   22 ar  
    33   18   19 ar  
    34   18   40 1   
    35   19   20 ar  
    36   19   26 1   
    37   20   21 ar  
    38   20   23 1   
    39   21   22 ar  
    40   21   41 1   
    41   22   42 1   
    42   23   24 1   
    43   23   43 1   
    44   23   44 1   
    45   24   25 1   
    46   24   45 1   
    47   24   46 1   
    48   25   26 2   
    49   26   27 1   
    50   27   28 1   
    51   27   29 1   
    52   27   47 1   
    53   28   48 1   
    54   28   49 1   
    55   28   50 1   
    56   29   51 1   
    57   29   52 1   
    58   29   53 1   
@<TRIPOS>SUBSTRUCTURE
     1 155         1 TEMP              0 ****  ****    0 ROOT
