@<TRIPOS>MOLECULE
155
   53    56     1     0     0
SMALL
bcc


@<TRIPOS>ATOM
      1 N18        -0.1650    1.2740    8.5030 n2        1 155     -0.824100
      2 C17         0.0210    0.1020    7.9760 ce        1 155      0.649800
      3 N19         0.1400   -1.1320    8.6520 nh        1 155     -0.959800
      4 C12         0.2080    0.0110    6.4920 ca        1 155     -0.129900
      5 C13        -0.6740    0.6420    5.6430 ca        1 155     -0.079000
      6 C4         -0.5010    0.5540    4.2350 ca        1 155     -0.031000
      7 C5         -1.3930    1.1970    3.3340 ca        1 155     -0.113000
      8 C6         -1.2150    1.0940    1.9770 ca        1 155     -0.116000
      9 C1         -0.1310    0.3400    1.4570 ca        1 155     -0.145600
     10 C2          0.7620   -0.2750    2.3070 ca        1 155     -0.056000
     11 C3          0.5920   -0.1850    3.7150 ca        1 155     -0.041000
     12 C10         1.4970   -0.8110    4.6150 ca        1 155     -0.115000
     13 C11         1.3120   -0.7160    5.9720 ca        1 155     -0.111000
     14 C20         0.0930    0.2240   -0.0170 c         1 155      0.680700
     15 O21         1.2380    0.2940   -0.4990 o         1 155     -0.584100
     16 N22        -1.0450    0.0190   -0.7860 n         1 155     -0.469100
     17 C23        -1.1140   -0.1510   -2.1790 ca        1 155      0.060600
     18 C28        -0.0400    0.1450   -3.0440 ca        1 155     -0.127000
     19 C27        -0.1680   -0.0230   -4.4240 ca        1 155     -0.147900
     20 C26        -1.3820   -0.4890   -4.9640 ca        1 155     -0.085300
     21 C25        -2.4470   -0.7830   -4.1090 ca        1 155     -0.108000
     22 C24        -2.3270   -0.6210   -2.7370 ca        1 155     -0.170000
     23 C32        -1.5290   -0.6980   -6.4280 c3        1 155     -0.061100
     24 C33        -0.5340    0.1300   -7.2390 c3        1 155      0.104800
     25 N34         0.7550    0.3640   -6.6560 n2        1 155     -0.587900
     26 C35         0.9300    0.2970   -5.3750 ce        1 155      0.472900
     27 C40         2.3050    0.5400   -4.7790 c3        1 155     -0.103000
     28 C41         2.8760   -0.7700   -4.2710 c3        1 155     -0.086100
     29 C45         3.2780    1.1900   -5.7430 c3        1 155     -0.086100
     30 H18        -0.2850    1.3060    9.4930 hn        1 155      0.385400
     31 H191       -0.2640   -1.1880    9.5580 hn        1 155      0.400300
     32 H192        0.0110   -1.9420    8.0930 hn        1 155      0.400300
     33 H13        -1.5170    1.2310    6.0380 ha        1 155      0.153000
     34 H5         -2.2260    1.7870    3.7480 ha        1 155      0.141000
     35 H6         -1.8990    1.6150    1.2900 ha        1 155      0.139000
     36 H2          1.6220   -0.8340    1.9020 ha        1 155      0.156000
     37 H10         2.3530   -1.3670    4.2020 ha        1 155      0.141000
     38 H11         2.0240   -1.1870    6.6670 ha        1 155      0.149000
     39 H22        -1.9040   -0.1050   -0.2970 hn        1 155      0.319500
     40 H28         0.9120    0.5070   -2.6190 ha        1 155      0.178000
     41 H25        -3.3960   -1.1490   -4.5310 ha        1 155      0.134000
     42 H24        -3.1870   -0.8610   -2.0920 ha        1 155      0.130000
     43 H321       -2.5710   -0.4390   -6.7540 hc        1 155      0.055700
     44 H322       -1.3760   -1.7900   -6.6460 hc        1 155      0.055700
     45 H331       -0.9890    1.1370   -7.4710 h1        1 155      0.063200
     46 H332       -0.3480   -0.3880   -8.2230 h1        1 155      0.063200
     47 H40         2.1720    1.2500   -3.9130 hc        1 155      0.061700
     48 H411        3.8570   -0.5850   -3.7710 hc        1 155      0.040200
     49 H412        2.1830   -1.2420   -3.5330 hc        1 155      0.040200
     50 H413        3.0370   -1.4810   -5.1170 hc        1 155      0.040200
     51 H451        3.5010    0.5160   -6.6050 hc        1 155      0.040200
     52 H452        2.8620    2.1470   -6.1390 hc        1 155      0.040200
     53 H453        4.2350    1.4100   -5.2100 hc        1 155      0.040200
@<TRIPOS>BOND
     1    1    2 2   
     2    1   30 1   
     3    2    3 1   
     4    2    4 1   
     5    3   31 1   
     6    3   32 1   
     7    4    5 ar  
     8    4   13 ar  
     9    5    6 ar  
    10    5   33 1   
    11    6    7 ar  
    12    6   11 ar  
    13    7    8 ar  
    14    7   34 1   
    15    8    9 ar  
    16    8   35 1   
    17    9   10 ar  
    18    9   14 1   
    19   10   11 ar  
    20   10   36 1   
    21   11   12 ar  
    22   12   13 ar  
    23   12   37 1   
    24   13   38 1   
    25   14   15 2   
    26   14   16 1   
    27   16   17 1   
    28   16   39 1   
    29   17   18 ar  
    30   17   22 ar  
    31   18   19 ar  
    32   18   40 1   
    33   19   20 ar  
    34   19   26 1   
    35   20   21 ar  
    36   20   23 1   
    37   21   22 ar  
    38   21   41 1   
    39   22   42 1   
    40   23   24 1   
    41   23   43 1   
    42   23   44 1   
    43   24   25 1   
    44   24   45 1   
    45   24   46 1   
    46   25   26 2   
    47   26   27 1   
    48   27   28 1   
    49   27   29 1   
    50   27   47 1   
    51   28   48 1   
    52   28   49 1   
    53   28   50 1   
    54   29   51 1   
    55   29   52 1   
    56   29   53 1   
@<TRIPOS>SUBSTRUCTURE
     1 155         1 TEMP              0 ****  ****    0 ROOT
