@<TRIPOS>MOLECULE
155
   54    57     1     0     0
SMALL
bcc


@<TRIPOS>ATOM
      1 N18        -0.1090   -1.1090    0.1540 n2        1 155     -0.676100
      2 C17         0.9910   -0.4960    0.0470 ce        1 155      0.636800
      3 N19         1.6930    0.2680    1.1810 nz        1 155     -0.892600
      4 C12         1.7960   -0.3930   -1.1920 ca        1 155     -0.219900
      5 C13         1.2360    0.1540   -2.3270 ca        1 155     -0.024000
      6 C4          2.0030    0.2470   -3.5200 ca        1 155     -0.043000
      7 C5          1.4650    0.8230   -4.7020 ca        1 155     -0.111000
      8 C6          2.2260    0.9100   -5.8440 ca        1 155     -0.090000
      9 C1          3.5580    0.4240   -5.8510 ca        1 155     -0.107600
     10 C2          4.1060   -0.1360   -4.7150 ca        1 155     -0.069000
     11 C3          3.3360   -0.2410   -3.5280 ca        1 155     -0.021000
     12 C10         3.8720   -0.8280   -2.3460 ca        1 155     -0.069000
     13 C11         3.1230   -0.9050   -1.2000 ca        1 155     -0.150000
     14 C20         4.4270    0.5570   -7.0680 c         1 155      0.667700
     15 O21         5.6040    0.9430   -6.9450 o         1 155     -0.570100
     16 N22         3.8370    0.2340   -8.2740 ns        1 155     -0.457100
     17 C23         4.4630    0.2310   -9.5390 ca        1 155      0.036600
     18 C28         5.6370    0.9640   -9.8060 ca        1 155     -0.116000
     19 C27         6.2040    0.9550  -11.0830 ca        1 155     -0.146900
     20 C26         5.5960    0.2120  -12.1130 ca        1 155     -0.069300
     21 C25         4.4330   -0.5150  -11.8470 ca        1 155     -0.109000
     22 C24         3.8640   -0.5140  -10.5810 ca        1 155     -0.159000
     23 C32         6.1970    0.1680  -13.4710 c3        1 155     -0.066100
     24 C33         7.1110    1.3610  -13.7480 c3        1 155      0.101800
     25 N34         7.8320    1.9100  -12.6370 n2        1 155     -0.574900
     26 C35         7.4280    1.7310  -11.4210 ce        1 155      0.465900
     27 C40         8.2140    2.3130  -10.2610 c3        1 155     -0.100000
     28 C41         8.9120    1.1960   -9.5090 c3        1 155     -0.087100
     29 C45         9.2230    3.3640  -10.6800 c3        1 155     -0.087100
     30 H18        -0.6500   -1.1580    0.9890 hn        1 155      0.463400
     31 H191        2.6720   -0.0340    1.2200 hn        1 155      0.457800
     32 H192        1.2590    0.1180    2.0930 hn        1 155      0.457800
     33 H13         0.1960    0.5210   -2.3350 ha        1 155      0.157000
     34 H5          0.4300    1.2010   -4.6890 ha        1 155      0.152000
     35 H6          1.8090    1.3750   -6.7530 ha        1 155      0.161000
     36 H2          5.1510   -0.4920   -4.7210 ha        1 155      0.173000
     37 H10         4.9010   -1.2260   -2.3740 ha        1 155      0.164000
     38 H11         3.5320   -1.4000   -0.3080 ha        1 155      0.132000
     39 H22         2.9240   -0.1630   -8.2480 hn        1 155      0.319500
     40 H28         6.1140    1.5390   -8.9950 ha        1 155      0.173000
     41 H25         3.9590   -1.0970  -12.6530 ha        1 155      0.142000
     42 H24         2.9470   -1.0960  -10.4030 ha        1 155      0.131000
     43 H321        5.3910    0.1380  -14.2510 hc        1 155      0.061700
     44 H322        6.7850   -0.7860  -13.5660 hc        1 155      0.061700
     45 H331        6.5060    2.1980  -14.2040 h1        1 155      0.069700
     46 H332        7.8860    1.0560  -14.5090 h1        1 155      0.069700
     47 H40         7.4740    2.8190   -9.5770 hc        1 155      0.054700
     48 H411        9.4410    1.6130   -8.6190 hc        1 155      0.041533
     49 H412        9.6630    0.6930  -10.1650 hc        1 155      0.041533
     50 H413        8.1740    0.4340   -9.1610 hc        1 155      0.041533
     51 H451        9.7010    3.8030   -9.7700 hc        1 155      0.041533
     52 H452        8.7260    4.1840  -11.2520 hc        1 155      0.041533
     53 H453       10.0230    2.9210  -11.3200 hc        1 155      0.041533
     54 H193        1.6730    1.2680    0.9590 hn        1 155      0.457800
@<TRIPOS>BOND
     1    1    2 2   
     2    1   30 1   
     3    2    3 1   
     4    2    4 1   
     5    3   31 1   
     6    3   32 1   
     7    3   54 1   
     8    4    5 ar  
     9    4   13 ar  
    10    5    6 ar  
    11    5   33 1   
    12    6    7 ar  
    13    6   11 ar  
    14    7    8 ar  
    15    7   34 1   
    16    8    9 ar  
    17    8   35 1   
    18    9   10 ar  
    19    9   14 1   
    20   10   11 ar  
    21   10   36 1   
    22   11   12 ar  
    23   12   13 ar  
    24   12   37 1   
    25   13   38 1   
    26   14   15 2   
    27   14   16 1   
    28   16   17 1   
    29   16   39 1   
    30   17   18 ar  
    31   17   22 ar  
    32   18   19 ar  
    33   18   40 1   
    34   19   20 ar  
    35   19   26 1   
    36   20   21 ar  
    37   20   23 1   
    38   21   22 ar  
    39   21   41 1   
    40   22   42 1   
    41   23   24 1   
    42   23   43 1   
    43   23   44 1   
    44   24   25 1   
    45   24   45 1   
    46   24   46 1   
    47   25   26 2   
    48   26   27 1   
    49   27   28 1   
    50   27   29 1   
    51   27   47 1   
    52   28   48 1   
    53   28   49 1   
    54   28   50 1   
    55   29   51 1   
    56   29   52 1   
    57   29   53 1   
@<TRIPOS>SUBSTRUCTURE
     1 155         1 TEMP              0 ****  ****    0 ROOT
