@<TRIPOS>MOLECULE
156
   52    54     1     0     0
SMALL
bcc


@<TRIPOS>ATOM
      1 C1          0.7360   -0.8150    7.5940 c         1 156      0.905200
      2 C2          0.1930   -0.4820    6.2090 ca        1 156     -0.089600
      3 C3         -1.0370    0.1720    6.0670 ca        1 156     -0.124000
      4 C4         -1.5340    0.4780    4.8060 ca        1 156     -0.118500
      5 C5         -0.8080    0.1380    3.6480 ca        1 156     -0.140800
      6 C8         -1.3570    0.4810    2.3570 ce        1 156      0.035800
      7 C9         -0.7560    0.2920    1.1640 cf        1 156     -0.323200
      8 C6          0.4240   -0.5210    3.7970 ca        1 156     -0.118500
      9 C7          0.9150   -0.8260    5.0620 ca        1 156     -0.124000
     10 C10        -1.3930    0.6750   -0.0940 c         1 156      0.582900
     11 C11        -0.5550    0.5660   -1.3150 ca        1 156     -0.151600
     12 C12        -1.1510    0.2090   -2.5260 ca        1 156     -0.086000
     13 C13        -0.4020    0.0880   -3.7050 ca        1 156     -0.076300
     14 C14        -1.1290   -0.2870   -4.9700 c3        1 156     -0.002700
     15 C15        -0.2500   -0.0670   -6.2020 c3        1 156     -0.069400
     16 C16         1.1570   -0.5680   -5.9990 c3        1 156     -0.068400
     17 C17         1.8760    0.1620   -4.8630 c3        1 156     -0.006700
     18 C18         0.9840    0.3120   -3.6600 ca        1 156     -0.048300
     19 C19         1.5710    0.7040   -2.4460 ca        1 156     -0.144000
     20 C20         0.8190    0.8290   -1.2840 ca        1 156     -0.095000
     21 C21        -2.3790    0.5760   -5.1380 c3        1 156     -0.085600
     22 C22        -1.5530   -1.7500   -4.8900 c3        1 156     -0.085600
     23 C23         3.1160   -0.6570   -4.5050 c3        1 156     -0.084600
     24 C24         2.3220    1.5430   -5.3340 c3        1 156     -0.084600
     25 O1          0.0400   -0.4840    8.5930 o         1 156     -0.822800
     26 O2          1.8520   -1.4010    7.6610 o         1 156     -0.822800
     27 O3         -2.5730    1.0600   -0.1750 o         1 156     -0.571100
     28 H3         -1.5950    0.4330    6.9820 ha        1 156      0.156500
     29 H4         -2.5010    0.9920    4.7060 ha        1 156      0.111000
     30 H8         -2.3630    0.9470    2.3750 ha        1 156      0.130000
     31 H9          0.2380   -0.1710    1.0830 ha        1 156      0.136000
     32 H6          1.0060   -0.8020    2.9070 ha        1 156      0.111000
     33 H7          1.8800   -1.3430    5.1910 ha        1 156      0.156500
     34 H12        -2.2390    0.0260   -2.5390 ha        1 156      0.148000
     35 H151       -0.2270    1.0290   -6.4440 hc        1 156      0.040200
     36 H152       -0.7120   -0.5940   -7.0780 hc        1 156      0.040200
     37 H161        1.7430   -0.4330   -6.9470 hc        1 156      0.041200
     38 H162        1.1350   -1.6670   -5.7720 hc        1 156      0.041200
     39 H19         2.6500    0.9160   -2.4090 ha        1 156      0.130000
     40 H20         1.3020    1.1400   -0.3450 ha        1 156      0.145000
     41 H211       -3.1610    0.2950   -4.3940 hc        1 156      0.036867
     42 H212       -2.1280    1.6550   -5.0020 hc        1 156      0.036867
     43 H213       -2.8030    0.4310   -6.1620 hc        1 156      0.036867
     44 H221       -2.1900   -1.9160   -3.9880 hc        1 156      0.036867
     45 H222       -2.1390   -2.0280   -5.7980 hc        1 156      0.036867
     46 H223       -0.6610   -2.4160   -4.8200 hc        1 156      0.036867
     47 H231        3.8040   -0.0740   -3.8480 hc        1 156      0.035867
     48 H232        2.8230   -1.5930   -3.9740 hc        1 156      0.035867
     49 H233        3.6700   -0.9290   -5.4360 hc        1 156      0.035867
     50 H241        2.8450    2.0810   -4.5060 hc        1 156      0.035867
     51 H242        3.0240    1.4450   -6.1970 hc        1 156      0.035867
     52 H243        1.4440    2.1520   -5.6530 hc        1 156      0.035867
@<TRIPOS>BOND
     1    1    2 1   
     2    1   25 1   
     3    1   26 1   
     4    2    3 ar  
     5    2    9 ar  
     6    3    4 ar  
     7    3   28 1   
     8    4    5 ar  
     9    4   29 1   
    10    5    6 1   
    11    5    8 ar  
    12    6    7 2   
    13    6   30 1   
    14    7   10 1   
    15    7   31 1   
    16    8    9 ar  
    17    8   32 1   
    18    9   33 1   
    19   10   11 1   
    20   10   27 2   
    21   11   12 ar  
    22   11   20 ar  
    23   12   13 ar  
    24   12   34 1   
    25   13   14 1   
    26   13   18 ar  
    27   14   15 1   
    28   14   21 1   
    29   14   22 1   
    30   15   16 1   
    31   15   35 1   
    32   15   36 1   
    33   16   17 1   
    34   16   37 1   
    35   16   38 1   
    36   17   18 1   
    37   17   23 1   
    38   17   24 1   
    39   18   19 ar  
    40   19   20 ar  
    41   19   39 1   
    42   20   40 1   
    43   21   41 1   
    44   21   42 1   
    45   21   43 1   
    46   22   44 1   
    47   22   45 1   
    48   22   46 1   
    49   23   47 1   
    50   23   48 1   
    51   23   49 1   
    52   24   50 1   
    53   24   51 1   
    54   24   52 1   
@<TRIPOS>SUBSTRUCTURE
     1 156         1 TEMP              0 ****  ****    0 ROOT
