@<TRIPOS>MOLECULE
156
   52    54     1     0     0
SMALL
bcc


@<TRIPOS>ATOM
      1 C1          3.9660    3.1890   -0.9810 c         1 156      0.905200
      2 C2          4.7930    1.9660   -0.6050 ca        1 156     -0.103600
      3 C3          5.7880    2.0630    0.3770 ca        1 156     -0.117500
      4 C4          6.5540    0.9560    0.7180 ca        1 156     -0.134500
      5 C5          6.3520   -0.2780    0.0720 ca        1 156     -0.134800
      6 C8          7.1800   -1.4050    0.4580 ce        1 156     -0.024200
      7 C9          7.5240   -2.4800   -0.2590 cf        1 156     -0.285200
      8 C6          5.3460   -0.3760   -0.8990 ca        1 156     -0.134500
      9 C7          4.5760    0.7360   -1.2310 ca        1 156     -0.117500
     10 C10         7.1510   -2.8240   -1.6420 c         1 156      0.598900
     11 C11         7.9480   -2.2060   -2.7290 ca        1 156     -0.165600
     12 C12         8.4540   -0.9110   -2.6190 ca        1 156     -0.075000
     13 C13         9.2080   -0.3320   -3.6520 ca        1 156     -0.067300
     14 C14         9.7160    1.0720   -3.4520 c3        1 156     -0.005700
     15 C15        10.7840    1.4240   -4.4870 c3        1 156     -0.069400
     16 C16        10.3940    0.9990   -5.8790 c3        1 156     -0.069400
     17 C17        10.2120   -0.5150   -5.9960 c3        1 156     -0.006700
     18 C18         9.4410   -1.0660   -4.8250 ca        1 156     -0.043300
     19 C19         8.9400   -2.3750   -4.9220 ca        1 156     -0.152000
     20 C20         8.1960   -2.9400   -3.8960 ca        1 156     -0.091000
     21 C21        10.3510    1.2170   -2.0690 c3        1 156     -0.088100
     22 C22         8.5470    2.0480   -3.5550 c3        1 156     -0.088100
     23 C23         9.4630   -0.7870   -7.3000 c3        1 156     -0.083600
     24 C24        11.5750   -1.1980   -6.0640 c3        1 156     -0.083600
     25 O1          4.2320    4.2790   -0.3990 o         1 156     -0.825300
     26 O2          3.0670    3.0470   -1.8550 o         1 156     -0.825300
     27 O3          6.2830   -3.6730   -1.8910 o         1 156     -0.546100
     28 H3          5.9410    3.0390    0.8660 ha        1 156      0.156500
     29 H4          7.3280    1.0410    1.4940 ha        1 156      0.114500
     30 H8          7.5800   -1.3310    1.4900 ha        1 156      0.112000
     31 H9          8.1580   -3.2610    0.1980 ha        1 156      0.132000
     32 H6          5.1610   -1.3420   -1.3950 ha        1 156      0.114500
     33 H7          3.7810    0.6710   -1.9920 ha        1 156      0.156500
     34 H12         8.2280   -0.3270   -1.7090 ha        1 156      0.162000
     35 H151       10.9540    2.5330   -4.4700 hc        1 156      0.038700
     36 H152       11.7520    0.9330   -4.2000 hc        1 156      0.038700
     37 H161       11.1820    1.3270   -6.6080 hc        1 156      0.042700
     38 H162        9.4360    1.5060   -6.1700 hc        1 156      0.042700
     39 H19         9.1330   -2.9640   -5.8310 ha        1 156      0.125000
     40 H20         7.7850   -3.9570   -3.9930 ha        1 156      0.141000
     41 H211        9.5720    1.2130   -1.2710 hc        1 156      0.041867
     42 H212       11.0670    0.3830   -1.8790 hc        1 156      0.041867
     43 H213       10.9040    2.1860   -2.0100 hc        1 156      0.041867
     44 H221        8.9010    3.0890   -3.3640 hc        1 156      0.041867
     45 H222        7.7630    1.7950   -2.7990 hc        1 156      0.041867
     46 H223        8.0850    2.0050   -4.5690 hc        1 156      0.041867
     47 H231        9.5060   -1.8690   -7.5690 hc        1 156      0.034367
     48 H232        8.3930   -0.4840   -7.2020 hc        1 156      0.034367
     49 H233        9.9270   -0.2020   -8.1310 hc        1 156      0.034367
     50 H241       12.1370   -0.8400   -6.9590 hc        1 156      0.034367
     51 H242       12.1730   -0.9720   -5.1500 hc        1 156      0.034367
     52 H243       11.4470   -2.3050   -6.1400 hc        1 156      0.034367
@<TRIPOS>BOND
     1    1    2 1   
     2    1   25 1   
     3    1   26 1   
     4    2    3 ar  
     5    2    9 ar  
     6    3    4 ar  
     7    3   28 1   
     8    4    5 ar  
     9    4   29 1   
    10    5    6 1   
    11    5    8 ar  
    12    6    7 2   
    13    6   30 1   
    14    7   10 1   
    15    7   31 1   
    16    8    9 ar  
    17    8   32 1   
    18    9   33 1   
    19   10   11 1   
    20   10   27 2   
    21   11   12 ar  
    22   11   20 ar  
    23   12   13 ar  
    24   12   34 1   
    25   13   14 1   
    26   13   18 ar  
    27   14   15 1   
    28   14   21 1   
    29   14   22 1   
    30   15   16 1   
    31   15   35 1   
    32   15   36 1   
    33   16   17 1   
    34   16   37 1   
    35   16   38 1   
    36   17   18 1   
    37   17   23 1   
    38   17   24 1   
    39   18   19 ar  
    40   19   20 ar  
    41   19   39 1   
    42   20   40 1   
    43   21   41 1   
    44   21   42 1   
    45   21   43 1   
    46   22   44 1   
    47   22   45 1   
    48   22   46 1   
    49   23   47 1   
    50   23   48 1   
    51   23   49 1   
    52   24   50 1   
    53   24   51 1   
    54   24   52 1   
@<TRIPOS>SUBSTRUCTURE
     1 156         1 TEMP              0 ****  ****    0 ROOT
