@<TRIPOS>MOLECULE
156
   52    54     1     0     0
SMALL
bcc


@<TRIPOS>ATOM
      1 C1          2.3500   -2.1940   -2.2470 c         1 156      0.905200
      2 C2          3.3080   -1.2150   -1.5810 ca        1 156     -0.101600
      3 C3          2.9780    0.1430   -1.4900 ca        1 156     -0.117000
      4 C4          3.8480    1.0430   -0.8880 ca        1 156     -0.132500
      5 C5          5.0830    0.6070   -0.3730 ca        1 156     -0.134800
      6 C8          5.9590    1.5820    0.2460 ce        1 156     -0.022200
      7 C9          7.2920    1.5570    0.3610 cf        1 156     -0.287200
      8 C6          5.4070   -0.7550   -0.4560 ca        1 156     -0.132500
      9 C7          4.5260   -1.6540   -1.0530 ca        1 156     -0.117000
     10 C10         8.2360    0.5280   -0.1070 c         1 156      0.599900
     11 C11         8.6000    0.5430   -1.5440 ca        1 156     -0.167600
     12 C12         9.8260    0.0030   -1.9420 ca        1 156     -0.082000
     13 C13        10.2230   -0.0030   -3.2870 ca        1 156     -0.084300
     14 C14        11.5490   -0.6270   -3.6300 c3        1 156     -0.001700
     15 C15        11.6830   -0.8530   -5.1370 c3        1 156     -0.069400
     16 C16        11.2120    0.3330   -5.9390 c3        1 156     -0.068400
     17 C17         9.7300    0.6340   -5.7130 c3        1 156     -0.007700
     18 C18         9.3750    0.5670   -4.2510 ca        1 156     -0.038300
     19 C19         8.1330    1.0810   -3.8480 ca        1 156     -0.144000
     20 C20         7.7440    1.0750   -2.5140 ca        1 156     -0.073000
     21 C21        11.6870   -1.9880   -2.9490 c3        1 156     -0.085600
     22 C22        12.6740    0.2800   -3.1390 c3        1 156     -0.085600
     23 C23         9.4570    2.0350   -6.2610 c3        1 156     -0.085100
     24 C24         8.8720   -0.3660   -6.4830 c3        1 156     -0.085100
     25 O1          1.2760   -1.7320   -2.7260 o         1 156     -0.825800
     26 O2          2.6820   -3.4120   -2.2850 o         1 156     -0.825800
     27 O3          8.7820   -0.2580    0.6820 o         1 156     -0.551100
     28 H3          2.0120    0.4710   -1.9070 ha        1 156      0.155500
     29 H4          3.5760    2.1060   -0.8160 ha        1 156      0.113500
     30 H8          5.4260    2.4610    0.6620 ha        1 156      0.112000
     31 H9          7.8110    2.3800    0.8860 ha        1 156      0.131000
     32 H6          6.3600   -1.1130   -0.0380 ha        1 156      0.113500
     33 H7          4.7690   -2.7270   -1.1230 ha        1 156      0.155500
     34 H12        10.4810   -0.4330   -1.1700 ha        1 156      0.146000
     35 H151       11.0890   -1.7600   -5.4250 hc        1 156      0.041200
     36 H152       12.7580   -1.0650   -5.3790 hc        1 156      0.041200
     37 H161       11.8160    1.2380   -5.6640 hc        1 156      0.037700
     38 H162       11.3810    0.1380   -7.0310 hc        1 156      0.037700
     39 H19         7.4410    1.4870   -4.6020 ha        1 156      0.136000
     40 H20         6.7540    1.4630   -2.2190 ha        1 156      0.159000
     41 H211       11.8340   -1.8720   -1.8490 hc        1 156      0.035867
     42 H212       10.7720   -2.6030   -3.1240 hc        1 156      0.035867
     43 H213       12.5710   -2.5310   -3.3650 hc        1 156      0.035867
     44 H221       13.6640   -0.1960   -3.3390 hc        1 156      0.035867
     45 H222       12.5750    0.4530   -2.0410 hc        1 156      0.035867
     46 H223       12.6390    1.2670   -3.6580 hc        1 156      0.035867
     47 H231        9.8940    2.1310   -7.2850 hc        1 156      0.037033
     48 H232        8.3610    2.2290   -6.3300 hc        1 156      0.037033
     49 H233        9.9170    2.8070   -5.6000 hc        1 156      0.037033
     50 H241        9.0890   -0.2940   -7.5750 hc        1 156      0.037033
     51 H242        7.7890   -0.1520   -6.3160 hc        1 156      0.037033
     52 H243        9.0820   -1.4080   -6.1420 hc        1 156      0.037033
@<TRIPOS>BOND
     1    1    2 1   
     2    1   25 1   
     3    1   26 1   
     4    2    3 ar  
     5    2    9 ar  
     6    3    4 ar  
     7    3   28 1   
     8    4    5 ar  
     9    4   29 1   
    10    5    6 1   
    11    5    8 ar  
    12    6    7 2   
    13    6   30 1   
    14    7   10 1   
    15    7   31 1   
    16    8    9 ar  
    17    8   32 1   
    18    9   33 1   
    19   10   11 1   
    20   10   27 2   
    21   11   12 ar  
    22   11   20 ar  
    23   12   13 ar  
    24   12   34 1   
    25   13   14 1   
    26   13   18 ar  
    27   14   15 1   
    28   14   21 1   
    29   14   22 1   
    30   15   16 1   
    31   15   35 1   
    32   15   36 1   
    33   16   17 1   
    34   16   37 1   
    35   16   38 1   
    36   17   18 1   
    37   17   23 1   
    38   17   24 1   
    39   18   19 ar  
    40   19   20 ar  
    41   19   39 1   
    42   20   40 1   
    43   21   41 1   
    44   21   42 1   
    45   21   43 1   
    46   22   44 1   
    47   22   45 1   
    48   22   46 1   
    49   23   47 1   
    50   23   48 1   
    51   23   49 1   
    52   24   50 1   
    53   24   51 1   
    54   24   52 1   
@<TRIPOS>SUBSTRUCTURE
     1 156         1 TEMP              0 ****  ****    0 ROOT
