@<TRIPOS>MOLECULE
156
   52    48     1     0     0
SMALL
bcc


@<TRIPOS>ATOM
      1 C1          1.0250   -7.2410    1.6870 c1        1 156      0.354000
      2 C2          0.7530   -6.3410    0.4860 c1        1 156     -0.098500
      3 C3          1.3840   -6.6040   -0.7390 c2        1 156     -0.072000
      4 C4          1.2250   -5.7250   -1.8110 c1        1 156     -0.205500
      5 C5          0.4400   -4.5830   -1.6660 c1        1 156     -0.098500
      6 C8          0.1840   -3.6410   -2.9100 c2        1 156     -0.072000
      7 C9          0.2300   -2.3080   -2.7630 c1        1 156     -0.205500
      8 C6         -0.1910   -4.3180   -0.4430 c1        1 156     -0.121000
      9 C7         -0.0300   -5.2040    0.6330 c1        1 156     -0.121000
     10 C10         0.5300   -1.6980   -1.3850 c1        1 156      0.321000
     11 C11         0.2600   -0.2020   -1.1350 c2        1 156     -0.141000
     12 C12         0.3830    0.3370    0.1800 c2        1 156     -0.072000
     13 C13         0.1030    1.6870    0.4120 c1        1 156     -0.067000
     14 C14        -0.0380    2.2650    1.9010 c2        1 156     -0.010000
     15 C15        -0.6990    3.5130    2.0430 c3        1 156     -0.150000
     16 C16        -0.4760    4.5110    0.9830 c3        1 156     -0.146000
     17 C17        -0.7060    4.0810   -0.3600 c3        1 156     -0.015000
     18 C18        -0.3180    2.5490   -0.6990 c2        1 156     -0.029000
     19 C19        -0.4350    2.0220   -1.9750 c1        1 156     -0.147000
     20 C20        -0.1460    0.6330   -2.2090 c1        1 156     -0.081000
     21 C21         1.3850    2.4120    2.4930 c3        1 156     -0.205500
     22 C22        -0.8030    1.2250    2.7430 c3        1 156     -0.205500
     23 C23         0.0990    4.9580   -1.2560 c3        1 156     -0.202500
     24 C24        -2.2080    4.2430   -0.6490 c3        1 156     -0.202500
     25 O1          0.2540   -8.1930    1.9380 o         1 156     -0.562000
     26 O2          2.0950   -7.1210    2.3220 o         1 156     -0.562000
     27 O3          0.8480   -2.4190   -0.4590 o         1 156     -0.316000
     28 H3          1.8750   -7.4560   -0.8690 ha        1 156      0.132500
     29 H4          1.6700   -5.9120   -2.6720 ha        1 156      0.117000
     30 H8         -0.0130   -4.0410   -3.8130 ha        1 156      0.132500
     31 H9          0.0690   -1.7160   -3.5450 ha        1 156      0.117000
     32 H6         -0.7510   -3.5040   -0.3380 ha        1 156      0.136500
     33 H7         -0.4650   -5.0230    1.4810 ha        1 156      0.136500
     34 H12         0.7310   -0.2150    0.8980 ha        1 156      0.150000
     35 H151       -0.4020    3.9200    2.9200 hc        1 156      0.084500
     36 H152       -1.6680    3.3400    2.0980 hc        1 156      0.084500
     37 H161        0.4600    4.8020    1.0460 hc        1 156      0.076500
     38 H162       -1.0890    5.2710    1.1580 hc        1 156      0.076500
     39 H19        -0.6100    2.6120   -2.7260 ha        1 156      0.128000
     40 H20        -0.3430    0.4710   -3.1200 ha        1 156      0.138000
     41 H211        1.8230    1.5490    2.5010 hc        1 156      0.077167
     42 H212        1.3250    2.7510    3.3970 hc        1 156      0.077167
     43 H213        1.9010    3.0310    1.9480 hc        1 156      0.077167
     44 H221       -1.6260    0.9850    2.2920 hc        1 156      0.077167
     45 H222       -1.0110    1.6050    3.6180 hc        1 156      0.077167
     46 H223       -0.2600    0.4440    2.8550 hc        1 156      0.077167
     47 H231       -0.0580    4.6940   -2.2070 hc        1 156      0.075667
     48 H232       -0.1670    5.8850   -1.1270 hc        1 156      0.075667
     49 H233        1.0380    4.8600   -1.0450 hc        1 156      0.075667
     50 H241       -2.5080    5.0960   -0.3270 hc        1 156      0.075667
     51 H242       -2.3590    4.1870   -1.5890 hc        1 156      0.075667
     52 H243       -2.7070    3.5260   -0.1940 hc        1 156      0.075667
@<TRIPOS>BOND
     1    1   25 1   
     2    1   26 1   
     3    2    3 1   
     4    2    9 1   
     5    3    4 1   
     6    3   28 1   
     7    4   29 1   
     8    5    6 1   
     9    5    8 1   
    10    6    7 1   
    11    6   30 1   
    12    7   31 1   
    13    8   32 1   
    14    9   33 1   
    15   10   11 1   
    16   10   27 1   
    17   11   12 1   
    18   11   20 1   
    19   12   13 1   
    20   12   34 1   
    21   13   18 1   
    22   14   15 1   
    23   14   21 1   
    24   14   22 1   
    25   15   16 1   
    26   15   35 1   
    27   15   36 1   
    28   16   17 1   
    29   16   37 1   
    30   16   38 1   
    31   17   18 1   
    32   17   23 1   
    33   17   24 1   
    34   18   19 1   
    35   19   39 1   
    36   20   40 1   
    37   21   41 1   
    38   21   42 1   
    39   21   43 1   
    40   22   44 1   
    41   22   45 1   
    42   22   46 1   
    43   23   47 1   
    44   23   48 1   
    45   23   49 1   
    46   24   50 1   
    47   24   51 1   
    48   24   52 1   
@<TRIPOS>SUBSTRUCTURE
     1 156         1 TEMP              0 ****  ****    0 ROOT
