@<TRIPOS>MOLECULE
157
   38    37     1     0     0
SMALL
bcc


@<TRIPOS>ATOM
      1 C1         -0.0380   -0.2180    0.4280 c3        1 157     -0.067400
      2 C2          1.5110   -0.1850    0.4040 c3        1 157     -0.089400
      3 C3          2.0450   -0.1980    1.8380 c3        1 157     -0.074400
      4 C4          3.5620   -0.3990    1.8150 c3        1 157     -0.086200
      5 C5          4.1040   -0.3070    3.2170 c2        1 157      0.147800
      6 N6          4.7390    0.8780    3.6520 nh        1 157     -0.823600
      7 N7          3.9890   -1.3160    4.0240 n1        1 157     -0.310000
      8 O8          0.3630   -1.3440   -2.7820 o         1 157     -0.536100
      9 O9         -3.0050   -1.6590   -2.5330 oh        1 157     -0.604800
     10 C10        -2.0710    0.1310   -0.9640 c3        1 157     -0.062700
     11 C11        -3.6580    1.6990   -1.5880 c3        1 157     -0.075400
     12 C12        -2.3300    1.4150   -0.7640 c3        1 157     -0.075400
     13 C13        -2.7550   -0.2580   -2.4590 c3        1 157      0.135100
     14 C14        -3.8720    0.4000   -2.5300 c3        1 157     -0.113400
     15 C16        -0.5720   -0.1030   -1.0000 c3        1 157     -0.179700
     16 C15        -0.2830   -1.3760   -1.7460 c         1 157      0.568900
     17 H11        -0.3720    0.5320    0.9640 hc        1 157      0.048200
     18 H12        -0.3410   -1.0630    0.8240 hc        1 157      0.048200
     19 H21         1.8460   -0.9690   -0.0750 hc        1 157      0.051200
     20 H22         1.8130    0.6270   -0.0480 hc        1 157      0.051200
     21 H31         1.8350    0.6530    2.2730 hc        1 157      0.051700
     22 H32         1.6250   -0.9340    2.3380 hc        1 157      0.051700
     23 H41         3.9730    0.2930    1.2620 hc        1 157      0.054200
     24 H42         3.7680   -1.2760    1.4440 hc        1 157      0.054200
     25 HN61        4.5910    1.1900    4.4930 hn        1 157      0.393300
     26 HN62        5.2920    1.3360    3.0850 hn        1 157      0.393300
     27 HN7         3.5810   -2.0780    3.7440 DU        1 157      0.146000
     28 HO9        -3.2610   -1.8720   -3.3590 ho        1 157      0.404000
     29 H10        -2.4810   -0.4100   -0.2550 hc        1 157      0.076700
     30 H111       -3.5500    2.5010   -2.1370 hc        1 157      0.045700
     31 H112       -4.4200    1.8050   -0.9780 hc        1 157      0.045700
     32 H121       -1.5950    1.9680   -1.1020 hc        1 157      0.047200
     33 H122       -2.4760    1.5880    0.1860 hc        1 157      0.047200
     34 H13        -2.1590    0.0150   -3.1810 h1        1 157      0.040700
     35 H141       -4.0470    0.6750   -3.4540 hc        1 157      0.050700
     36 H142       -4.6150   -0.1510   -2.1900 hc        1 157      0.050700
     37 H16        -0.1380    0.6420   -1.4500 hc        1 157      0.075700
     38 H15        -0.6020   -2.2320   -1.3950 h4        1 157      0.021200
@<TRIPOS>BOND
     1    1    2 1   
     2    1   15 1   
     3    1   17 1   
     4    1   18 1   
     5    2    3 1   
     6    2   19 1   
     7    2   20 1   
     8    3    4 1   
     9    3   21 1   
    10    3   22 1   
    11    4    5 1   
    12    4   23 1   
    13    4   24 1   
    14    5    6 1   
    15    5    7 2   
    16    6   25 1   
    17    6   26 1   
    18    8   16 2   
    19    9   13 1   
    20    9   28 1   
    21   10   12 1   
    22   10   13 1   
    23   10   15 1   
    24   10   29 1   
    25   11   12 1   
    26   11   14 1   
    27   11   30 1   
    28   11   31 1   
    29   12   32 1   
    30   12   33 1   
    31   13   14 1   
    32   13   34 1   
    33   14   35 1   
    34   14   36 1   
    35   15   16 1   
    36   15   37 1   
    37   16   38 1   
@<TRIPOS>SUBSTRUCTURE
     1 157         1 TEMP              0 ****  ****    0 ROOT
