@<TRIPOS>MOLECULE
157
   39    39     1     0     0
SMALL
bcc


@<TRIPOS>ATOM
      1 C1         -0.0180    0.0300    0.0610 c3        1 157     -0.065400
      2 C2          1.4660    0.3200    0.1410 c3        1 157     -0.094400
      3 C3          1.9930    0.0940    1.5450 c3        1 157     -0.083400
      4 C4          3.5060    0.2140    1.5480 c3        1 157     -0.170700
      5 C5          4.0830   -0.1040    2.9060 c2        1 157      0.526200
      6 N6          5.5860   -0.2380    2.8730 nz        1 157     -0.829600
      7 N7          3.5430   -0.2710    4.0500 n2        1 157     -0.717100
      8 O8          1.1340   -1.6570   -2.1430 o         1 157     -0.553100
      9 O9         -2.9410   -1.4260   -3.0390 oh        1 157     -0.609800
     10 C10        -2.0060    0.1030   -1.4640 c3        1 157     -0.066700
     11 C11        -3.6740    1.8610   -1.8850 c3        1 157     -0.075400
     12 C12        -2.4850    1.4820   -1.0130 c3        1 157     -0.075400
     13 C13        -2.5380   -0.0710   -2.9010 c3        1 157      0.139100
     14 C14        -3.7010    0.9110   -3.0720 c3        1 157     -0.114400
     15 C16        -0.4920   -0.0470   -1.3870 c3        1 157     -0.178700
     16 C15        -0.0550   -1.3570   -2.0070 c         1 157      0.567900
     17 H11        -0.5870    0.8360    0.5950 hc        1 157      0.052200
     18 H12        -0.2510   -0.9400    0.5760 hc        1 157      0.052200
     19 H21         2.0160   -0.3470   -0.5790 hc        1 157      0.067200
     20 H22         1.6600    1.3800   -0.1690 hc        1 157      0.067200
     21 H31         1.5410    0.8470    2.2430 hc        1 157      0.057700
     22 H32         1.6910   -0.9290    1.8960 hc        1 157      0.057700
     23 H41         3.7980    1.2620    1.2620 hc        1 157      0.091700
     24 H42         3.9260   -0.4860    0.7740 hc        1 157      0.091700
     25 HN61        5.8280   -1.0300    2.2680 hn        1 157      0.471467
     26 HN62        5.9810    0.6220    2.4810 hn        1 157      0.471467
     27 HN7         2.5490   -0.1980    4.1300 hn        1 157      0.492400
     28 H10        -2.4800   -0.6890   -0.8190 hc        1 157      0.078700
     29 H111       -3.5870    2.9230   -2.2270 hc        1 157      0.052200
     30 H112       -4.6260    1.7780   -1.3010 hc        1 157      0.052200
     31 H121       -1.6660    2.2380   -1.1290 hc        1 157      0.043200
     32 H122       -2.7740    1.4640    0.0670 hc        1 157      0.043200
     33 H13        -1.7280    0.1420   -3.6530 h1        1 157      0.037700
     34 H141       -4.6720    0.3530   -3.1070 hc        1 157      0.057700
     35 H142       -3.5970    1.4700   -4.0340 hc        1 157      0.057700
     36 H16        -0.0120    0.7880   -1.9730 hc        1 157      0.078700
     37 H15        -0.8750   -2.0330   -2.3420 h4        1 157      0.046200
     38 H63         5.9800   -0.3970    3.8100 hn        1 157      0.471467
     39 HO9        -3.4390   -1.4920   -3.8620 ho        1 157      0.414000
@<TRIPOS>BOND
     1    1    2 1   
     2    1   15 1   
     3    1   17 1   
     4    1   18 1   
     5    2    3 1   
     6    2   19 1   
     7    2   20 1   
     8    3    4 1   
     9    3   21 1   
    10    3   22 1   
    11    4    5 1   
    12    4   23 1   
    13    4   24 1   
    14    5    6 1   
    15    5    7 2   
    16    6   25 1   
    17    6   26 1   
    18    6   38 1   
    19    7   27 1   
    20    8   16 2   
    21    9   13 1   
    22    9   39 1   
    23   10   12 1   
    24   10   13 1   
    25   10   15 1   
    26   10   28 1   
    27   11   12 1   
    28   11   14 1   
    29   11   29 1   
    30   11   30 1   
    31   12   31 1   
    32   12   32 1   
    33   13   14 1   
    34   13   33 1   
    35   14   34 1   
    36   14   35 1   
    37   15   16 1   
    38   15   36 1   
    39   16   37 1   
@<TRIPOS>SUBSTRUCTURE
     1 157         1 TEMP              0 ****  ****    0 ROOT
