@<TRIPOS>MOLECULE
157
   38    38     1     0     0
SMALL
bcc


@<TRIPOS>ATOM
      1 C1          0.3150    0.3580    0.1640 c3        1 157     -0.068400
      2 C2         -0.2350   -0.3510    1.3830 c3        1 157     -0.087400
      3 C3          0.3150    0.2540    2.6590 c3        1 157     -0.082400
      4 C4         -0.2280   -0.4750    3.8670 c3        1 157     -0.170700
      5 C5          0.2550    0.0950    5.1980 c2        1 157      0.589200
      6 N6         -0.2400   -0.6150    6.3180 nh        1 157     -0.896800
      7 N7          1.0870    1.0790    5.3610 n2        1 157     -0.846100
      8 O8         -2.7030   -0.2010   -0.6840 o         1 157     -0.536100
      9 O9         -0.9430    1.1630   -4.0570 oh        1 157     -0.605800
     10 C10         0.4660    0.3020   -2.3360 c3        1 157     -0.062700
     11 C11         2.1100   -0.6260   -3.9100 c3        1 157     -0.075400
     12 C12         1.8260   -0.3870   -2.4330 c3        1 157     -0.075400
     13 C13        -0.2620   -0.0180   -3.6560 c3        1 157      0.135100
     14 C14         0.8050   -0.4470   -4.6690 c3        1 157     -0.113400
     15 C16        -0.3330   -0.1480   -1.1200 c3        1 157     -0.179700
     16 C15        -1.7480    0.3730   -1.2100 c         1 157      0.567900
     17 H11         0.1500    1.4640    0.2560 hc        1 157      0.047700
     18 H12         1.4230    0.1910    0.1020 hc        1 157      0.047700
     19 H21         0.0310   -1.4400    1.3370 hc        1 157      0.053700
     20 H22        -1.3570   -0.2860    1.3820 hc        1 157      0.053700
     21 H31         0.0350    1.3400    2.7040 hc        1 157      0.045700
     22 H32         1.4360    0.1930    2.6430 hc        1 157      0.045700
     23 H41         0.0730   -1.5560    3.8120 hc        1 157      0.063700
     24 H42        -1.3510   -0.4360    3.8420 hc        1 157      0.063700
     25 HN61       -0.0570   -0.1950    7.2040 hn        1 157      0.392800
     26 HN62       -1.1880   -0.8990    6.2110 hn        1 157      0.392800
     27 HN7         1.4640    1.4520    4.5180 hn        1 157      0.391400
     28 H10         0.6120    1.4170   -2.2790 hc        1 157      0.075700
     29 H111        2.8750    0.1030   -4.2800 hc        1 157      0.046200
     30 H112        2.5260   -1.6520   -4.0680 hc        1 157      0.046200
     31 H121        2.6210    0.2490   -1.9710 hc        1 157      0.047200
     32 H122        1.8120   -1.3600   -1.8800 hc        1 157      0.047200
     33 H13        -1.0160   -0.8390   -3.5060 h1        1 157      0.040700
     34 H141        0.9150    0.3340   -5.4640 hc        1 157      0.050700
     35 H142        0.5010   -1.4000   -5.1690 hc        1 157      0.050700
     36 H16        -0.3650   -1.2740   -1.0910 hc        1 157      0.076700
     37 H15        -1.8730    1.3120   -1.7960 h4        1 157      0.022200
     38 HO9        -1.3150    0.9900   -4.9290 ho        1 157      0.405000
@<TRIPOS>BOND
     1    1    2 1   
     2    1   15 1   
     3    1   17 1   
     4    1   18 1   
     5    2    3 1   
     6    2   19 1   
     7    2   20 1   
     8    3    4 1   
     9    3   21 1   
    10    3   22 1   
    11    4    5 1   
    12    4   23 1   
    13    4   24 1   
    14    5    6 1   
    15    5    7 2   
    16    6   25 1   
    17    6   26 1   
    18    7   27 1   
    19    8   16 2   
    20    9   13 1   
    21    9   38 1   
    22   10   12 1   
    23   10   13 1   
    24   10   15 1   
    25   10   28 1   
    26   11   12 1   
    27   11   14 1   
    28   11   29 1   
    29   11   30 1   
    30   12   31 1   
    31   12   32 1   
    32   13   14 1   
    33   13   33 1   
    34   14   34 1   
    35   14   35 1   
    36   15   16 1   
    37   15   36 1   
    38   16   37 1   
@<TRIPOS>SUBSTRUCTURE
     1 157         1 TEMP              0 ****  ****    0 ROOT
