@<TRIPOS>MOLECULE
157
   39    39     1     0     0
SMALL
bcc


@<TRIPOS>ATOM
      1 C1         -0.0180    0.0240    0.0590 c3        1 157     -0.065400
      2 C2          1.4660    0.3170    0.1420 c3        1 157     -0.094400
      3 C3          1.9920    0.0840    1.5450 c3        1 157     -0.083400
      4 C4          3.5040    0.2110    1.5510 c3        1 157     -0.170700
      5 C5          4.0810   -0.1120    2.9080 c2        1 157      0.526200
      6 N6          5.5850   -0.2380    2.8770 n4        1 157     -0.829600
      7 N7          3.5400   -0.2890    4.0500 n2        1 157     -0.717100
      8 O8          1.1390   -1.6440   -2.1560 o         1 157     -0.553100
      9 O9         -2.9360   -1.4150   -3.0540 oh        1 157     -0.609800
     10 C10        -2.0050    0.1040   -1.4670 c3        1 157     -0.066700
     11 C11        -3.6760    1.8610   -1.8760 c3        1 157     -0.075400
     12 C12        -2.4870    1.4790   -1.0060 c3        1 157     -0.075400
     13 C13        -2.5350   -0.0600   -2.9050 c3        1 157      0.139100
     14 C14        -3.7000    0.9200   -3.0700 c3        1 157     -0.114400
     15 C16        -0.4900   -0.0440   -1.3900 c3        1 157     -0.178700
     16 C15        -0.0500   -1.3470   -2.0200 c         1 157      0.567900
     17 H11        -0.2480   -0.9500    0.5660 hc        1 157      0.052200
     18 H12        -0.5890    0.8250    0.5990 hc        1 157      0.052200
     19 H21         1.6580    1.3790   -0.1620 hc        1 157      0.067200
     20 H22         2.0180   -0.3440   -0.5810 hc        1 157      0.067200
     21 H31         1.6930   -0.9410    1.8900 hc        1 157      0.057700
     22 H32         1.5360    0.8320    2.2470 hc        1 157      0.057700
     23 H41         3.7930    1.2610    1.2710 hc        1 157      0.091700
     24 H42         3.9290   -0.4840    0.7740 hc        1 157      0.091700
     25 HN61        5.8320   -1.0250    2.2670 hn        1 157      0.471467
     26 HN62        5.9750    0.6270    2.4910 hn        1 157      0.471467
     27 HN7         2.5450   -0.2220    4.1290 hn        1 157      0.492400
     28 H10        -2.4770   -0.6940   -0.8290 hc        1 157      0.078700
     29 H111       -4.6280    1.7710   -1.2930 hc        1 157      0.052200
     30 H112       -3.5920    2.9260   -2.2090 hc        1 157      0.052200
     31 H121       -1.6690    2.2370   -1.1160 hc        1 157      0.043200
     32 H122       -2.7770    1.4520    0.0740 hc        1 157      0.043200
     33 H13        -1.7250    0.1600   -3.6560 h1        1 157      0.037700
     34 H141       -4.6700    0.3610   -3.1100 hc        1 157      0.057700
     35 H142       -3.5960    1.4870   -4.0280 hc        1 157      0.057700
     36 H16        -0.0120    0.7970   -1.9700 hc        1 157      0.078700
     37 H15        -0.8680   -2.0230   -2.3610 h4        1 157      0.046200
     38 H63         5.9770   -0.4010    3.8140 hn        1 157      0.471467
     39 HO9        -3.4330   -1.4760   -3.8780 ho        1 157      0.414000
@<TRIPOS>BOND
     1    1    2 1   
     2    1   15 1   
     3    1   17 1   
     4    1   18 1   
     5    2    3 1   
     6    2   19 1   
     7    2   20 1   
     8    3    4 1   
     9    3   21 1   
    10    3   22 1   
    11    4    5 1   
    12    4   23 1   
    13    4   24 1   
    14    5    6 1   
    15    5    7 2   
    16    6   25 1   
    17    6   26 1   
    18    6   38 1   
    19    7   27 1   
    20    8   16 2   
    21    9   13 1   
    22    9   39 1   
    23   10   12 1   
    24   10   13 1   
    25   10   15 1   
    26   10   28 1   
    27   11   12 1   
    28   11   14 1   
    29   11   29 1   
    30   11   30 1   
    31   12   31 1   
    32   12   32 1   
    33   13   14 1   
    34   13   33 1   
    35   14   34 1   
    36   14   35 1   
    37   15   16 1   
    38   15   36 1   
    39   16   37 1   
@<TRIPOS>SUBSTRUCTURE
     1 157         1 TEMP              0 ****  ****    0 ROOT
