@<TRIPOS>MOLECULE
157
   39    39     1     0     0
SMALL
bcc


@<TRIPOS>ATOM
      1 C1         -0.0190    0.0250    0.0580 c3        1 157     -0.065400
      2 C2          1.4640    0.3230    0.1480 c3        1 157     -0.094400
      3 C3          1.9860    0.0850    1.5520 c3        1 157     -0.083400
      4 C4          3.4980    0.2130    1.5620 c3        1 157     -0.170700
      5 C5          4.0710   -0.1160    2.9200 c2        1 157      0.526200
      6 N6          5.5750   -0.2420    2.8910 n4        1 157     -0.829600
      7 N7          3.5270   -0.2960    4.0600 n2        1 157     -0.717100
      8 O8          1.1520   -1.6330   -2.1570 o         1 157     -0.553100
      9 O9         -2.9210   -1.4140   -3.0690 oh        1 157     -0.609800
     10 C10        -2.0010    0.1030   -1.4740 c3        1 157     -0.066700
     11 C11        -3.6760    1.8560   -1.8840 c3        1 157     -0.075400
     12 C12        -2.4890    1.4750   -1.0120 c3        1 157     -0.075400
     13 C13        -2.5250   -0.0590   -2.9150 c3        1 157      0.139100
     14 C14        -3.6930    0.9180   -3.0810 c3        1 157     -0.114400
     15 C16        -0.4860   -0.0400   -1.3920 c3        1 157     -0.178700
     16 C15        -0.0390   -1.3400   -2.0240 c         1 157      0.567900
     17 H11        -0.5940    0.8230    0.5980 hc        1 157      0.052200
     18 H12        -0.2480   -0.9510    0.5620 hc        1 157      0.052200
     19 H21         1.6530    1.3870   -0.1510 hc        1 157      0.067200
     20 H22         2.0200   -0.3340   -0.5770 hc        1 157      0.067200
     21 H31         1.5260    0.8290    2.2550 hc        1 157      0.057700
     22 H32         1.6870   -0.9420    1.8910 hc        1 157      0.057700
     23 H41         3.9250   -0.4770    0.7830 hc        1 157      0.091700
     24 H42         3.7860    1.2660    1.2880 hc        1 157      0.091700
     25 HN61        5.9650   -0.4080    3.8290 hn        1 157      0.471467
     26 HN62        5.9670    0.6240    2.5090 hn        1 157      0.471467
     27 HN7         2.5330   -0.2290    4.1370 hn        1 157      0.492400
     28 H10        -2.4730   -0.6980   -0.8400 hc        1 157      0.078700
     29 H111       -4.6300    1.7610   -1.3050 hc        1 157      0.052200
     30 H112       -3.5950    2.9220   -2.2150 hc        1 157      0.052200
     31 H121       -2.7820    1.4440    0.0670 hc        1 157      0.043200
     32 H122       -1.6730    2.2360   -1.1170 hc        1 157      0.043200
     33 H13        -1.7130    0.1660   -3.6620 h1        1 157      0.037700
     34 H141       -3.5870    1.4880   -4.0370 hc        1 157      0.057700
     35 H142       -4.6600    0.3560   -3.1270 hc        1 157      0.057700
     36 H16        -0.0080    0.8040   -1.9680 hc        1 157      0.078700
     37 H15        -0.8540   -2.0180   -2.3700 h4        1 157      0.046200
     38 H63         5.8230   -1.0270    2.2800 hn        1 157      0.471467
     39 HO9        -3.4150   -1.4750   -3.8950 ho        1 157      0.414000
@<TRIPOS>BOND
     1    1    2 1   
     2    1   15 1   
     3    1   17 1   
     4    1   18 1   
     5    2    3 1   
     6    2   19 1   
     7    2   20 1   
     8    3    4 1   
     9    3   21 1   
    10    3   22 1   
    11    4    5 1   
    12    4   23 1   
    13    4   24 1   
    14    5    6 1   
    15    5    7 2   
    16    6   25 1   
    17    6   26 1   
    18    6   38 1   
    19    7   27 1   
    20    8   16 2   
    21    9   13 1   
    22    9   39 1   
    23   10   12 1   
    24   10   13 1   
    25   10   15 1   
    26   10   28 1   
    27   11   12 1   
    28   11   14 1   
    29   11   29 1   
    30   11   30 1   
    31   12   31 1   
    32   12   32 1   
    33   13   14 1   
    34   13   33 1   
    35   14   34 1   
    36   14   35 1   
    37   15   16 1   
    38   15   36 1   
    39   16   37 1   
@<TRIPOS>SUBSTRUCTURE
     1 157         1 TEMP              0 ****  ****    0 ROOT
