@<TRIPOS>MOLECULE
158
   23    22     1     0     0
SMALL
bcc


@<TRIPOS>ATOM
      1 O13        -0.6080   -0.0770   -0.3920 o         1 158     -0.642100
      2 C5          0.5990    0.1080   -0.1170 c         1 158      0.651100
      3 C6          1.0040    0.4790    1.2960 c3        1 158     -0.072300
      4 S7          1.9580   -0.7400    2.1430 sh        1 158     -0.387900
      5 N4          1.6130   -0.0560   -1.0370 n         1 158     -0.521900
      6 C3          1.3220   -0.0490   -2.4590 c3        1 158      0.021700
      7 C2          0.9510   -1.4550   -2.9490 c         1 158      0.568100
      8 O8          1.7750   -2.3650   -3.0720 o         1 158     -0.548100
      9 C1         -0.4970   -1.6360   -3.2720 c3        1 158     -0.211100
     10 C9          2.4940    0.4760   -3.2960 c3        1 158     -0.214400
     11 C10         2.9970    1.8470   -2.8090 c         1 158      0.909600
     12 O11         3.5030    1.9190   -1.6450 o         1 158     -0.841800
     13 O12         2.8980    2.8270   -3.5930 o         1 158     -0.841800
     14 H61         0.0750    0.5940    1.9100 h1        1 158      0.098200
     15 H62         1.5440    1.4590    1.2750 h1        1 158      0.098200
     16 H7          3.0180   -0.8030    1.3500 hs        1 158      0.225800
     17 H4          2.5100    0.3560   -0.8160 hn        1 158      0.357500
     18 H3          0.4250    0.6200   -2.6430 h1        1 158      0.062700
     19 H11        -0.7820   -0.9590   -4.1130 hc        1 158      0.063033
     20 H12A       -0.7180   -2.6910   -3.5620 hc        1 158      0.063033
     21 H13        -1.1020   -1.3600   -2.3690 hc        1 158      0.063033
     22 H91         3.3440   -0.2510   -3.2520 hc        1 158      0.049700
     23 H92         2.1510    0.5620   -4.3560 hc        1 158      0.049700
@<TRIPOS>BOND
     1    1    2 2   
     2    2    3 1   
     3    2    5 1   
     4    3    4 1   
     5    3   14 1   
     6    3   15 1   
     7    4   16 1   
     8    5    6 1   
     9    5   17 1   
    10    6    7 1   
    11    6   10 1   
    12    6   18 1   
    13    7    8 2   
    14    7    9 1   
    15    9   19 1   
    16    9   20 1   
    17    9   21 1   
    18   10   11 1   
    19   10   22 1   
    20   10   23 1   
    21   11   12 1   
    22   11   13 1   
@<TRIPOS>SUBSTRUCTURE
     1 158         1 TEMP              0 ****  ****    0 ROOT
