@<TRIPOS>MOLECULE
158
   23    21     1     0     0
SMALL
bcc


@<TRIPOS>ATOM
      1 O13        -1.2450    0.0870    1.6780 o         1 158     -0.403000
      2 C5         -0.0350   -0.0270    1.6800 c1        1 158      0.295000
      3 C6          0.7080   -0.1770    2.9890 c2        1 158     -0.283000
      4 S7         -0.4440   -0.1030    4.3350 sh        1 158     -0.034000
      5 N4          0.6780   -0.0400    0.4540 n3        1 158     -0.331000
      6 C3         -0.0230    0.0730   -0.7760 c3        1 158     -0.005000
      7 C2         -0.0060   -1.2610   -1.4900 c2        1 158      0.229000
      8 O8          1.0340   -1.8790   -1.5970 o         1 158     -0.309000
      9 C1         -1.2860   -1.8290   -2.0610 c3        1 158     -0.279000
     10 C9          0.6450    1.1170   -1.6430 c3        1 158     -0.243000
     11 C10        -0.0770    2.4370   -1.4890 c2        1 158      0.329000
     12 O11         0.3840    3.3200   -0.7180 o         1 158     -0.576500
     13 O12        -1.1270    2.6610   -2.1460 o         1 158     -0.576500
     14 H61         1.1720   -1.0380    3.0040 h4        1 158      0.137500
     15 H62         1.3600    0.5460    3.0790 h4        1 158      0.137500
     16 H7          0.1220   -0.3060    5.3480 hs        1 158      0.054000
     17 H4          1.5870   -0.1180    0.4560 hn        1 158      0.271000
     18 H3         -0.9470    0.3370   -0.6020 h1        1 158      0.102000
     19 H11        -1.0960   -2.6820   -2.5050 hc        1 158      0.102333
     20 H12A       -1.6620   -1.1990   -2.7110 hc        1 158      0.102333
     21 H13        -1.9310   -1.9750   -1.3370 hc        1 158      0.102333
     22 H91         1.5780    1.2210   -1.3670 hc        1 158      0.089000
     23 H92         0.6110    0.8340   -2.5790 hc        1 158      0.089000
@<TRIPOS>BOND
     1    1    2 1   
     2    2    5 1   
     3    3    4 1   
     4    3   14 1   
     5    3   15 1   
     6    4   16 1   
     7    5    6 1   
     8    5   17 1   
     9    6    7 1   
    10    6   10 1   
    11    6   18 1   
    12    7    8 1   
    13    7    9 1   
    14    9   19 1   
    15    9   20 1   
    16    9   21 1   
    17   10   11 1   
    18   10   22 1   
    19   10   23 1   
    20   11   12 1   
    21   11   13 1   
@<TRIPOS>SUBSTRUCTURE
     1 158         1 TEMP              0 ****  ****    0 ROOT
