@<TRIPOS>MOLECULE
158
   23    22     1     0     0
SMALL
bcc


@<TRIPOS>ATOM
      1 O13         0.7280    1.6790   -1.1440 o         1 158     -0.642100
      2 C5          0.0740    0.6130   -1.2070 c         1 158      0.651100
      3 C6         -0.7600    0.3090   -2.4360 c3        1 158     -0.072300
      4 S7         -0.2040   -1.0630   -3.3950 sh        1 158     -0.387900
      5 N4          0.1060   -0.3470   -0.2180 n         1 158     -0.521900
      6 C3          0.5620   -0.0110    1.1180 c3        1 158      0.021700
      7 C2          2.0850   -0.1600    1.2310 c         1 158      0.568100
      8 O8          2.6540   -1.2550    1.2590 o         1 158     -0.548100
      9 C1          2.8310    1.1330    1.3090 c3        1 158     -0.211100
     10 C9         -0.1030   -0.8690    2.2000 c3        1 158     -0.214400
     11 C10        -1.6390   -0.8540    2.0990 c         1 158      0.909600
     12 O11        -2.1750   -1.3510    1.0590 o         1 158     -0.841800
     13 O12        -2.2920   -0.3670    3.0600 o         1 158     -0.841800
     14 H61        -1.8270    0.1690   -2.1270 h1        1 158      0.098200
     15 H62        -0.7000    1.1870   -3.1280 h1        1 158      0.098200
     16 H7         -0.3110   -2.0350   -2.5000 hs        1 158      0.225800
     17 H4         -0.6310   -1.0390   -0.2210 hn        1 158      0.357500
     18 H3          0.3140    1.0770    1.3230 h1        1 158      0.062700
     19 H11         3.9330    0.9640    1.3270 hc        1 158      0.063033
     20 H12A        2.5610    1.7550    0.4170 hc        1 158      0.063033
     21 H13         2.5310    1.6840    2.2330 hc        1 158      0.063033
     22 H91         0.2490   -1.9270    2.1110 hc        1 158      0.049700
     23 H92         0.2070   -0.4710    3.1970 hc        1 158      0.049700
@<TRIPOS>BOND
     1    1    2 2   
     2    2    3 1   
     3    2    5 1   
     4    3    4 1   
     5    3   14 1   
     6    3   15 1   
     7    4   16 1   
     8    5    6 1   
     9    5   17 1   
    10    6    7 1   
    11    6   10 1   
    12    6   18 1   
    13    7    8 2   
    14    7    9 1   
    15    9   19 1   
    16    9   20 1   
    17    9   21 1   
    18   10   11 1   
    19   10   22 1   
    20   10   23 1   
    21   11   12 1   
    22   11   13 1   
@<TRIPOS>SUBSTRUCTURE
     1 158         1 TEMP              0 ****  ****    0 ROOT
