@<TRIPOS>MOLECULE
159
   28    27     1     0     0
SMALL
bcc


@<TRIPOS>ATOM
      1 O5          0.1660    1.4450   -0.8800 o         1 159     -0.775300
      2 C12         1.0580    0.7040   -0.3880 c         1 159      0.933200
      3 O4          1.2210    0.3590    0.7980 o         1 159     -0.775300
      4 C8          2.0550    0.1670   -1.4480 ca        1 159     -0.191600
      5 C9          3.4480    0.0120   -1.2340 ca        1 159      0.299100
      6 C10         4.2980   -0.3550   -2.3180 ca        1 159     -0.273000
      7 C11         3.7740   -0.5310   -3.5730 ca        1 159      0.057000
      8 O3          3.9340    0.2500   -0.0010 oh        1 159     -0.390100
      9 C7          1.5540   -0.0900   -2.7010 ca        1 159      0.029000
     10 C6          2.3800   -0.4000   -3.8280 ca        1 159     -0.698500
     11 S2          1.7550   -0.4880   -5.2220 s4        1 159      1.691300
     12 O1          2.5860   -0.4330   -6.3070 o         1 159     -0.471900
     13 O2          0.4790   -0.9470   -5.3780 o         1 159     -0.471900
     14 N1          1.0640    1.6950   -5.1680 n3        1 159     -1.004800
     15 C5          1.8360    2.6030   -6.0060 c3        1 159      0.138800
     16 C4          1.3690    4.0490   -5.9740 c3        1 159     -0.036300
     17 S1          2.4330    4.9290   -7.0780 sh        1 159     -0.346900
     18 H10         5.3770   -0.4830   -2.1410 ha        1 159      0.153000
     19 H11         4.4410   -0.7770   -4.4190 ha        1 159      0.147000
     20 HO3         4.8940    0.0860    0.0040 ho        1 159      0.428000
     21 H7          0.4550   -0.0050   -2.8350 ha        1 159      0.182000
     22 H1          1.1070    1.9840   -4.1990 hn        1 159      0.412300
     23 H51         2.9120    2.5570   -5.6670 h1        1 159      0.090200
     24 H52         1.7920    2.2180   -7.0670 h1        1 159      0.090200
     25 H41         1.4360    4.4660   -4.9390 h1        1 159      0.077200
     26 H42         0.3060    4.1330   -6.3080 h1        1 159      0.077200
     27 HS1         2.0390    6.1620   -6.8020 hs        1 159      0.218800
     28 H12         0.0940    1.6960   -5.4480 hn        1 159      0.412300
@<TRIPOS>BOND
     1    1    2 1   
     2    2    3 1   
     3    2    4 1   
     4    4    5 ar  
     5    4    9 ar  
     6    5    6 ar  
     7    5    8 1   
     8    6    7 ar  
     9    6   18 1   
    10    7   10 ar  
    11    7   19 1   
    12    8   20 1   
    13    9   10 ar  
    14    9   21 1   
    15   10   11 1   
    16   11   12 1   
    17   11   13 1   
    18   14   15 1   
    19   14   22 1   
    20   14   28 1   
    21   15   16 1   
    22   15   23 1   
    23   15   24 1   
    24   16   17 1   
    25   16   25 1   
    26   16   26 1   
    27   17   27 1   
@<TRIPOS>SUBSTRUCTURE
     1 159         1 TEMP              0 ****  ****    0 ROOT
