@<TRIPOS>MOLECULE
159
   27    24     1     0     0
SMALL
bcc


@<TRIPOS>ATOM
      1 O5         -0.2500    0.3520    4.5400 o         1 159     -0.557000
      2 C12         0.1250   -0.7440    4.0350 c2        1 159      0.380000
      3 O4         -0.1340   -1.8380    4.6270 o         1 159     -0.557000
      4 C8          0.9040   -0.7530    2.7040 c2        1 159     -0.150000
      5 C9          2.2950   -0.6890    2.7130 c1        1 159      0.161000
      6 C10         2.9980   -0.6020    1.5100 c1        1 159     -0.132500
      7 C11         2.3070   -0.5800    0.2990 c1        1 159     -0.132500
      8 O3          2.9860   -0.6190    3.9340 oh        1 159     -0.203000
      9 C7          0.2130   -0.7310    1.4920 c2        1 159      0.016000
     10 C6          0.9160   -0.6450    0.2880 c1        1 159     -0.912000
     11 S2          0.0290   -0.7690   -1.2870 s4        1 159      2.080800
     12 O1          0.9270   -1.0770   -2.3700 o         1 159     -0.564400
     13 O2         -0.8360   -1.9140   -1.3090 o         1 159     -0.564400
     14 N1         -0.8130    0.6290   -1.5830 n2        1 159     -0.883000
     15 C5         -1.4470    0.8320   -2.8660 c3        1 159     -0.006000
     16 C4         -2.6980    1.6930   -2.6860 c3        1 159     -0.272000
     17 S1         -3.7110    1.5860   -4.1530 sh        1 159     -0.133000
     18 H10         3.9780   -0.5560    1.5160 ha        1 159      0.129500
     19 H11         2.8000   -0.5190   -0.5450 ha        1 159      0.129500
     20 HO3         3.6830   -1.1710    3.9130 ho        1 159      0.196000
     21 H7         -0.7570   -0.8370    1.4820 ha        1 159      0.155000
     22 H1         -0.7970    1.3060   -0.9730 hn        1 159      0.231000
     23 H51        -0.8230    1.2830   -3.4690 h1        1 159      0.097500
     24 H52        -1.7000   -0.0370   -3.2480 h1        1 159      0.097500
     25 H41        -2.4350    2.6250   -2.5400 h1        1 159      0.124500
     26 H42        -3.2070    1.3730   -1.9140 h1        1 159      0.124500
     27 HS1        -4.5550    2.4060   -4.1090 hs        1 159      0.145000
@<TRIPOS>BOND
     1    1    2 1   
     2    2    3 1   
     3    2    4 1   
     4    4    5 1   
     5    4    9 1   
     6    5    8 1   
     7    6    7 1   
     8    6   18 1   
     9    7   19 1   
    10    8   20 1   
    11    9   10 1   
    12    9   21 1   
    13   10   11 1   
    14   11   12 1   
    15   11   13 1   
    16   14   15 1   
    17   14   22 1   
    18   15   16 1   
    19   15   23 1   
    20   15   24 1   
    21   16   17 1   
    22   16   25 1   
    23   16   26 1   
    24   17   27 1   
@<TRIPOS>SUBSTRUCTURE
     1 159         1 TEMP              0 ****  ****    0 ROOT
