@<TRIPOS>MOLECULE
159
   28    27     1     0     0
SMALL
bcc


@<TRIPOS>ATOM
      1 O5          0.1180    1.3650   -0.9090 o         1 159     -0.775300
      2 C12         1.0250    0.6480   -0.4080 c         1 159      0.933200
      3 O4          1.1810    0.3010    0.7780 o         1 159     -0.775300
      4 C8          2.0530    0.1490   -1.4570 ca        1 159     -0.191600
      5 C9          3.4470    0.0360   -1.2230 ca        1 159      0.299100
      6 C10         4.3240   -0.2980   -2.2960 ca        1 159     -0.273000
      7 C11         3.8250   -0.4820   -3.5590 ca        1 159      0.057000
      8 O3          3.9080    0.2800    0.0190 oh        1 159     -0.390100
      9 C7          1.5790   -0.1150   -2.7180 ca        1 159      0.029000
     10 C6          2.4310   -0.3920   -3.8340 ca        1 159     -0.698500
     11 S2          1.8300   -0.4900   -5.2390 s4        1 159      1.691300
     12 O1          2.6740   -0.4030   -6.3110 o         1 159     -0.471900
     13 O2          0.5710   -0.9870   -5.4160 o         1 159     -0.471900
     14 N1          1.0710    1.6700   -5.1820 n8        1 159     -1.004800
     15 C5          1.8270    2.6060   -6.0020 c3        1 159      0.138800
     16 C4          1.3150    4.0380   -5.9680 c3        1 159     -0.036300
     17 S1          2.3670    4.9580   -7.0510 sh        1 159     -0.346900
     18 H10         5.4040   -0.3940   -2.1040 ha        1 159      0.153000
     19 H11         4.5120   -0.7010   -4.3970 ha        1 159      0.147000
     20 HO3         4.8720    0.1460    0.0370 ho        1 159      0.428000
     21 H7          0.4810   -0.0630   -2.8690 ha        1 159      0.182000
     22 H1          1.0910    1.9540   -4.2100 hn        1 159      0.412300
     23 H51         2.8990    2.5920   -5.6480 h1        1 159      0.090200
     24 H52         1.8110    2.2280   -7.0670 h1        1 159      0.090200
     25 H41         1.3540    4.4500   -4.9300 h1        1 159      0.077200
     26 H42         0.2550    4.0910   -6.3170 h1        1 159      0.077200
     27 HS1         1.9330    6.1760   -6.7720 hs        1 159      0.218800
     28 H12         0.1060    1.6430   -5.4760 hn        1 159      0.412300
@<TRIPOS>BOND
     1    1    2 1   
     2    2    3 1   
     3    2    4 1   
     4    4    5 ar  
     5    4    9 ar  
     6    5    6 ar  
     7    5    8 1   
     8    6    7 ar  
     9    6   18 1   
    10    7   10 ar  
    11    7   19 1   
    12    8   20 1   
    13    9   10 ar  
    14    9   21 1   
    15   10   11 1   
    16   11   12 1   
    17   11   13 1   
    18   14   15 1   
    19   14   22 1   
    20   14   28 1   
    21   15   16 1   
    22   15   23 1   
    23   15   24 1   
    24   16   17 1   
    25   16   25 1   
    26   16   26 1   
    27   17   27 1   
@<TRIPOS>SUBSTRUCTURE
     1 159         1 TEMP              0 ****  ****    0 ROOT
