@<TRIPOS>MOLECULE
159
   27    27     1     0     0
SMALL
bcc


@<TRIPOS>ATOM
      1 O5         -0.3100   -2.4770    2.7420 o         1 159     -0.823800
      2 C12        -0.5260   -1.3640    3.2890 c         1 159      0.922200
      3 O4         -0.9110   -1.2290    4.4920 o         1 159     -0.823800
      4 C8         -0.3330   -0.1090    2.4570 ca        1 159     -0.253600
      5 C9         -0.6800    1.1750    2.9290 ca        1 159      0.255100
      6 C10        -0.5270    2.3060    2.0880 ca        1 159     -0.235000
      7 C11        -0.0380    2.1440    0.8080 ca        1 159      0.010000
      8 O3         -1.1740    1.4270    4.1660 oh        1 159     -0.534100
      9 C7          0.1840   -0.2260    1.1740 ca        1 159      0.043000
     10 C6          0.3320    0.8790    0.3170 ca        1 159     -0.495500
     11 S2          0.9130    0.7160   -1.2180 sy        1 159      1.540200
     12 O1          0.8740    1.9530   -1.9140 o         1 159     -0.683300
     13 O2          2.1860    0.1100   -1.2370 o         1 159     -0.683300
     14 N1         -0.1880   -0.3040   -1.8690 n3        1 159     -0.912100
     15 C5         -0.4900   -0.3690   -3.2610 c3        1 159      0.236800
     16 C4         -0.0030   -1.6400   -3.9550 c3        1 159     -0.023300
     17 S1         -0.4830   -1.6930   -5.6540 sh        1 159     -0.385900
     18 H10        -0.8040    3.2970    2.4730 ha        1 159      0.137000
     19 H11         0.0700    3.0220    0.1470 ha        1 159      0.140000
     20 HO3        -1.2340    0.5840    4.6760 ho        1 159      0.496000
     21 H7          0.4790   -1.2400    0.8400 ha        1 159      0.162000
     22 H1         -0.6890   -0.9540   -1.3130 hn        1 159      0.445800
     23 H51        -1.6100   -0.3020   -3.4060 h1        1 159      0.052200
     24 H52        -0.0300    0.5270   -3.7750 h1        1 159      0.052200
     25 H41         1.1160   -1.6790   -3.9680 h1        1 159      0.083700
     26 H42        -0.3720   -2.5470   -3.4180 h1        1 159      0.083700
     27 HS1        -1.7960   -1.6580   -5.5140 hs        1 159      0.194800
@<TRIPOS>BOND
     1    1    2 1   
     2    2    3 1   
     3    2    4 1   
     4    4    5 ar  
     5    4    9 ar  
     6    5    6 ar  
     7    5    8 1   
     8    6    7 ar  
     9    6   18 1   
    10    7   10 ar  
    11    7   19 1   
    12    8   20 1   
    13    9   10 ar  
    14    9   21 1   
    15   10   11 1   
    16   11   12 2   
    17   11   13 2   
    18   11   14 1   
    19   14   15 1   
    20   14   22 1   
    21   15   16 1   
    22   15   23 1   
    23   15   24 1   
    24   16   17 1   
    25   16   25 1   
    26   16   26 1   
    27   17   27 1   
@<TRIPOS>SUBSTRUCTURE
     1 159         1 TEMP              0 ****  ****    0 ROOT
