@<TRIPOS>MOLECULE
159
   28    27     1     0     0
SMALL
bcc


@<TRIPOS>ATOM
      1 O5          0.1250    1.3890   -0.9060 o         1 159     -0.775300
      2 C12         1.0320    0.6750   -0.4030 c         1 159      0.933200
      3 O4          1.1910    0.3370    0.7860 o         1 159     -0.775300
      4 C8          2.0570    0.1660   -1.4500 ca        1 159     -0.191600
      5 C9          3.4510    0.0530   -1.2190 ca        1 159      0.299100
      6 C10         4.3250   -0.2900   -2.2920 ca        1 159     -0.273000
      7 C11         3.8220   -0.4820   -3.5530 ca        1 159      0.057000
      8 O3          3.9160    0.3060    0.0190 oh        1 159     -0.390100
      9 C7          1.5790   -0.1070   -2.7080 ca        1 159      0.029000
     10 C6          2.4280   -0.3930   -3.8240 ca        1 159     -0.698500
     11 S2          1.8230   -0.5000   -5.2260 s4        1 159      1.691300
     12 O1          2.6640   -0.4220   -6.3010 o         1 159     -0.471900
     13 O2          0.5630   -0.9970   -5.3970 o         1 159     -0.471900
     14 N1          1.0660    1.6610   -5.1830 n3        1 159     -1.004800
     15 C5          1.8240    2.5910   -6.0090 c3        1 159      0.138800
     16 C4          1.3150    4.0240   -5.9840 c3        1 159     -0.036300
     17 S1          2.3690    4.9350   -7.0710 sh        1 159     -0.346900
     18 H10         5.4050   -0.3860   -2.1020 ha        1 159      0.153000
     19 H11         4.5060   -0.7090   -4.3900 ha        1 159      0.147000
     20 HO3         4.8800    0.1710    0.0360 ho        1 159      0.428000
     21 H7          0.4800   -0.0550   -2.8560 ha        1 159      0.182000
     22 H1          0.1020    1.6340   -5.4780 hn        1 159      0.411800
     23 H51         1.8090    2.2060   -7.0710 h1        1 159      0.090200
     24 H52         2.8960    2.5780   -5.6530 h1        1 159      0.090200
     25 H41         0.2550    4.0760   -6.3340 h1        1 159      0.077200
     26 H42         1.3530    4.4420   -4.9480 h1        1 159      0.077200
     27 HS1         1.9380    6.1560   -6.7990 hs        1 159      0.218800
     28 H12         1.0860    1.9500   -4.2140 hn        1 159      0.411800
@<TRIPOS>BOND
     1    1    2 1   
     2    2    3 1   
     3    2    4 1   
     4    4    5 ar  
     5    4    9 ar  
     6    5    6 ar  
     7    5    8 1   
     8    6    7 ar  
     9    6   18 1   
    10    7   10 ar  
    11    7   19 1   
    12    8   20 1   
    13    9   10 ar  
    14    9   21 1   
    15   10   11 1   
    16   11   12 1   
    17   11   13 1   
    18   14   15 1   
    19   14   22 1   
    20   14   28 1   
    21   15   16 1   
    22   15   23 1   
    23   15   24 1   
    24   16   17 1   
    25   16   25 1   
    26   16   26 1   
    27   17   27 1   
@<TRIPOS>SUBSTRUCTURE
     1 159         1 TEMP              0 ****  ****    0 ROOT
