@<TRIPOS>MOLECULE
15A
   33    33     1     0     0
SMALL
bcc


@<TRIPOS>ATOM
      1 O6          0.1730   -1.4930    0.4070 oh        1 15A     -0.642800
      2 C6          1.5670   -1.2290    0.3840 c3        1 15A      0.090400
      3 C5          1.9190   -0.0930    1.3760 c3        1 15A      0.167500
      4 C4          3.4560    0.0750    1.4010 c3        1 15A      0.153100
      5 O4          3.7280    1.2380    0.6410 oh        1 15A     -0.593800
      6 C3          3.9850    0.2290    2.8370 c3        1 15A      0.068100
      7 O3          5.3990    0.1730    2.7330 oh        1 15A     -0.603800
      8 C2          3.5040   -0.9500    3.7000 c3        1 15A      0.089800
      9 O2          4.0140   -2.1780    3.2070 oh        1 15A     -0.592800
     10 N5          1.3220   -0.2930    2.6820 nh        1 15A     -0.826200
     11 C1          1.9660   -1.0880    3.6430 c2        1 15A      0.648200
     12 N1          1.4160   -1.8740    4.5340 n2        1 15A     -0.655900
     13 C7          0.0190   -2.1780    4.5290 c3        1 15A      0.110800
     14 C8         -0.3730   -3.1440    3.3800 c3        1 15A      0.053800
     15 N2         -1.7700   -3.6420    3.5170 n4        1 15A     -0.831600
     16 H6         -0.2540   -0.8380   -0.1590 ho        1 15A      0.421000
     17 H6C1        2.0500   -2.1960    0.6900 h1        1 15A      0.076200
     18 H6C2        1.9140   -0.9410   -0.6420 h1        1 15A      0.076200
     19 H5          1.4740    0.8730    0.9800 h1        1 15A      0.102700
     20 H4          3.9590   -0.8180    0.9310 h1        1 15A      0.068700
     21 HA          0.3320   -0.4140    2.6080 hn        1 15A      0.399800
     22 HB          4.6880    1.3650    0.6620 ho        1 15A      0.433000
     23 H3          3.6500    1.2070    3.2770 h1        1 15A      0.084700
     24 HC          5.7650    0.6010    3.5170 ho        1 15A      0.426000
     25 H2          3.8300   -0.8040    4.7680 h1        1 15A      0.083700
     26 HD          4.9670   -2.0480    3.0790 ho        1 15A      0.437000
     27 H7C1       -0.1700   -2.6880    5.5190 h1        1 15A      0.061200
     28 H7C2       -0.6480   -1.2690    4.4820 h1        1 15A      0.061200
     29 H8C1       -0.2820   -2.6310    2.3750 hx        1 15A      0.127700
     30 H8C2        0.3130   -4.0420    3.3880 hx        1 15A      0.127700
     31 H2N1       -1.9930   -4.2730    2.7410 hn        1 15A      0.458800
     32 H2N2       -2.4280   -2.8560    3.5090 hn        1 15A      0.458800
     33 H23        -1.8770   -4.1480    4.4020 hn        1 15A      0.458800
@<TRIPOS>BOND
     1    1    2 1   
     2    1   16 1   
     3    2    3 1   
     4    2   17 1   
     5    2   18 1   
     6    3    4 1   
     7    3   10 1   
     8    3   19 1   
     9    4    5 1   
    10    4    6 1   
    11    4   20 1   
    12    5   22 1   
    13    6    7 1   
    14    6    8 1   
    15    6   23 1   
    16    7   24 1   
    17    8    9 1   
    18    8   11 1   
    19    8   25 1   
    20    9   26 1   
    21   10   11 1   
    22   10   21 1   
    23   11   12 2   
    24   12   13 1   
    25   13   14 1   
    26   13   27 1   
    27   13   28 1   
    28   14   15 1   
    29   14   29 1   
    30   14   30 1   
    31   15   31 1   
    32   15   32 1   
    33   15   33 1   
@<TRIPOS>SUBSTRUCTURE
     1 15A         1 TEMP              0 ****  ****    0 ROOT
