@<TRIPOS>MOLECULE
15A
   33    33     1     0     0
SMALL
bcc


@<TRIPOS>ATOM
      1 O6          0.1000   -1.3930    0.4530 oh        1 15A     -0.642800
      2 C6          1.4960   -1.1470    0.3920 c3        1 15A      0.090400
      3 C5          1.8980   -0.0550    1.4140 c3        1 15A      0.167500
      4 C4          3.4370    0.0920    1.3930 c3        1 15A      0.153100
      5 O4          3.7000    1.2780    0.6700 oh        1 15A     -0.593800
      6 C3          4.0160    0.1830    2.8160 c3        1 15A      0.068100
      7 O3          5.4250    0.1120    2.6610 oh        1 15A     -0.603800
      8 C2          3.5470   -1.0220    3.6490 c3        1 15A      0.089800
      9 O2          4.0230   -2.2370    3.0920 oh        1 15A     -0.592800
     10 N5          1.3420   -0.2980    2.7310 nh        1 15A     -0.826200
     11 C1          2.0070   -1.1380    3.6380 c2        1 15A      0.648200
     12 N1          1.4750   -1.9500    4.5170 n2        1 15A     -0.655900
     13 C7          0.0740   -2.2360    4.5480 c3        1 15A      0.110800
     14 C8         -0.3690   -3.1510    3.3770 c3        1 15A      0.053800
     15 N2         -1.7680   -3.6350    3.5420 n4        1 15A     -0.831600
     16 H6         -0.3370   -0.7110   -0.0720 ho        1 15A      0.421000
     17 H6C1        1.9740   -2.1320    0.6440 h1        1 15A      0.076200
     18 H6C2        1.8120   -0.8240   -0.6330 h1        1 15A      0.076200
     19 H5          1.4540    0.9310    1.0710 h1        1 15A      0.102700
     20 H4          3.9110   -0.7890    0.8730 h1        1 15A      0.068700
     21 HA          0.3480   -0.4030    2.6860 hn        1 15A      0.399800
     22 HB          4.6620    1.3920    0.6630 ho        1 15A      0.433000
     23 H3          3.7100    1.1470    3.3040 h1        1 15A      0.084700
     24 HC          5.8230    0.5050    3.4480 ho        1 15A      0.426000
     25 H2          3.9110   -0.9220    4.7100 h1        1 15A      0.083700
     26 HD          4.9720   -2.1150    2.9370 ho        1 15A      0.437000
     27 H7C1       -0.0890   -2.7810    5.5240 h1        1 15A      0.061200
     28 H7C2       -0.5810   -1.3170    4.5580 h1        1 15A      0.061200
     29 H8C1       -0.3050   -2.6010    2.3900 hx        1 15A      0.127700
     30 H8C2        0.3030   -4.0580    3.3280 hx        1 15A      0.127700
     31 H2N1       -2.4150   -2.8410    3.5870 hn        1 15A      0.458800
     32 H2N2       -2.0260   -4.2320    2.7500 hn        1 15A      0.458800
     33 H23        -1.8530   -4.1740    4.4110 hn        1 15A      0.458800
@<TRIPOS>BOND
     1    1    2 1   
     2    1   16 1   
     3    2    3 1   
     4    2   17 1   
     5    2   18 1   
     6    3    4 1   
     7    3   10 1   
     8    3   19 1   
     9    4    5 1   
    10    4    6 1   
    11    4   20 1   
    12    5   22 1   
    13    6    7 1   
    14    6    8 1   
    15    6   23 1   
    16    7   24 1   
    17    8    9 1   
    18    8   11 1   
    19    8   25 1   
    20    9   26 1   
    21   10   11 1   
    22   10   21 1   
    23   11   12 2   
    24   12   13 1   
    25   13   14 1   
    26   13   27 1   
    27   13   28 1   
    28   14   15 1   
    29   14   29 1   
    30   14   30 1   
    31   15   31 1   
    32   15   32 1   
    33   15   33 1   
@<TRIPOS>SUBSTRUCTURE
     1 15A         1 TEMP              0 ****  ****    0 ROOT
