@<TRIPOS>MOLECULE
15A
   32    32     1     0     0
SMALL
bcc


@<TRIPOS>ATOM
      1 O6         -0.0150    3.3900    0.3030 oh        1 15A     -0.610800
      2 C6         -0.9600    2.4530    0.7950 c3        1 15A      0.123400
      3 C5         -0.8960    1.2220   -0.1330 c3        1 15A      0.223500
      4 C4         -2.0630    0.2770    0.2290 c3        1 15A      0.106100
      5 O4         -3.2640    0.9890   -0.0170 oh        1 15A     -0.602800
      6 C3         -1.9740   -0.9770   -0.6500 c3        1 15A      0.109100
      7 O3         -3.0780   -1.8230   -0.3980 oh        1 15A     -0.597800
      8 C2         -0.6450   -1.7040   -0.4200 c3        1 15A      0.084800
      9 O2         -0.7250   -2.2950    0.8680 oh        1 15A     -0.608800
     10 N5          0.3860    0.5590   -0.0440 nh        1 15A     -0.856200
     11 C1          0.5740   -0.7570   -0.4780 c2        1 15A      0.595200
     12 N1          1.6970   -1.3240   -0.8300 n2        1 15A     -0.689900
     13 C7          2.9330   -0.6120   -0.9480 c3        1 15A      0.114800
     14 C8          3.6400   -0.3120    0.3950 c3        1 15A      0.144800
     15 N2          4.8800    0.4020    0.2080 n3        1 15A     -0.916800
     16 H6         -0.0990    4.1800    0.8500 ho        1 15A      0.408000
     17 H6C1       -0.7160    2.1780    1.8550 h1        1 15A      0.047200
     18 H6C2       -1.9990    2.8770    0.7440 h1        1 15A      0.047200
     19 H5         -1.0690    1.5950   -1.1900 h1        1 15A      0.058700
     20 H4         -2.0220   -0.0140    1.3160 h1        1 15A      0.066700
     21 HA          1.1550    1.1910   -0.1470 hn        1 15A      0.436800
     22 HB         -3.9630    0.3260   -0.1160 ho        1 15A      0.424000
     23 H3         -2.0740   -0.6970   -1.7370 h1        1 15A      0.094700
     24 HC         -2.9410   -2.2330    0.4680 ho        1 15A      0.424000
     25 H2         -0.5330   -2.5120   -1.1990 h1        1 15A      0.080700
     26 HD          0.0860   -2.8030    0.9970 ho        1 15A      0.430000
     27 H7C1        3.6000   -1.2850   -1.5620 h1        1 15A      0.049700
     28 H7C2        2.8190    0.3560   -1.5200 h1        1 15A      0.049700
     29 H8C1        2.9750    0.3360    1.0340 h1        1 15A      0.032200
     30 H8C2        3.7810   -1.2890    0.9450 h1        1 15A      0.032200
     31 H2N1        5.3570    0.5010    1.0830 hn        1 15A      0.350300
     32 H2N2        5.4770   -0.0720   -0.4400 hn        1 15A      0.350300
@<TRIPOS>BOND
     1    1    2 1   
     2    1   16 1   
     3    2    3 1   
     4    2   17 1   
     5    2   18 1   
     6    3    4 1   
     7    3   10 1   
     8    3   19 1   
     9    4    5 1   
    10    4    6 1   
    11    4   20 1   
    12    5   22 1   
    13    6    7 1   
    14    6    8 1   
    15    6   23 1   
    16    7   24 1   
    17    8    9 1   
    18    8   11 1   
    19    8   25 1   
    20    9   26 1   
    21   10   11 1   
    22   10   21 1   
    23   11   12 2   
    24   12   13 1   
    25   13   14 1   
    26   13   27 1   
    27   13   28 1   
    28   14   15 1   
    29   14   29 1   
    30   14   30 1   
    31   15   31 1   
    32   15   32 1   
@<TRIPOS>SUBSTRUCTURE
     1 15A         1 TEMP              0 ****  ****    0 ROOT
