@<TRIPOS>MOLECULE
15A
   33    33     1     0     0
SMALL
bcc


@<TRIPOS>ATOM
      1 O6          0.1660   -1.4570    0.4090 oh        1 15A     -0.642800
      2 C6          1.5610   -1.2040    0.3850 c3        1 15A      0.090400
      3 C5          1.9250   -0.0820    1.3890 c3        1 15A      0.167500
      4 C4          3.4630    0.0750    1.4110 c3        1 15A      0.153100
      5 O4          3.7420    1.2430    0.6630 oh        1 15A     -0.593800
      6 C3          3.9960    0.2100    2.8480 c3        1 15A      0.068100
      7 O3          5.4100    0.1450    2.7390 oh        1 15A     -0.603800
      8 C2          3.5090   -0.9750    3.7000 c3        1 15A      0.089800
      9 O2          4.0100   -2.2010    3.1920 oh        1 15A     -0.592800
     10 N5          1.3290   -0.2920    2.6940 nu        1 15A     -0.826200
     11 C1          1.9710   -1.1020    3.6440 c2        1 15A      0.648200
     12 N1          1.4170   -1.8940    4.5280 n2        1 15A     -0.655900
     13 C7          0.0170   -2.1880    4.5230 c3        1 15A      0.110800
     14 C8         -0.3830   -3.1380    3.3650 c3        1 15A      0.053800
     15 N2         -1.7840   -3.6270    3.5000 nz        1 15A     -0.831600
     16 H6         -0.2590   -0.7930   -0.1480 ho        1 15A      0.421000
     17 H6C1        2.0370   -2.1780    0.6790 h1        1 15A      0.076200
     18 H6C2        1.9070   -0.9070   -0.6390 h1        1 15A      0.076200
     19 H5          1.4860    0.8920    1.0040 h1        1 15A      0.102700
     20 H4          3.9580   -0.8170    0.9310 h1        1 15A      0.068700
     21 HA          0.3380   -0.4050    2.6210 hn        1 15A      0.399800
     22 HB          4.7020    1.3620    0.6830 ho        1 15A      0.433000
     23 H3          3.6690    1.1850    3.2990 h1        1 15A      0.084700
     24 HC          5.7810    0.5620    3.5270 ho        1 15A      0.426000
     25 H2          3.8390   -0.8420    4.7680 h1        1 15A      0.083700
     26 HD          4.9630   -2.0760    3.0640 ho        1 15A      0.437000
     27 H7C1       -0.6430   -1.2740    4.4880 h1        1 15A      0.061200
     28 H7C2       -0.1730   -2.7080    5.5080 h1        1 15A      0.061200
     29 H8C1        0.2950   -4.0410    3.3620 hx        1 15A      0.127700
     30 H8C2       -0.2920   -2.6150    2.3660 hx        1 15A      0.127700
     31 H2N1       -1.8920   -4.1430    4.3800 hn        1 15A      0.458800
     32 H2N2       -2.0130   -4.2480    2.7170 hn        1 15A      0.458800
     33 H23        -2.4360   -2.8370    3.5020 hn        1 15A      0.458800
@<TRIPOS>BOND
     1    1    2 1   
     2    1   16 1   
     3    2    3 1   
     4    2   17 1   
     5    2   18 1   
     6    3    4 1   
     7    3   10 1   
     8    3   19 1   
     9    4    5 1   
    10    4    6 1   
    11    4   20 1   
    12    5   22 1   
    13    6    7 1   
    14    6    8 1   
    15    6   23 1   
    16    7   24 1   
    17    8    9 1   
    18    8   11 1   
    19    8   25 1   
    20    9   26 1   
    21   10   11 1   
    22   10   21 1   
    23   11   12 2   
    24   12   13 1   
    25   13   14 1   
    26   13   27 1   
    27   13   28 1   
    28   14   15 1   
    29   14   29 1   
    30   14   30 1   
    31   15   31 1   
    32   15   32 1   
    33   15   33 1   
@<TRIPOS>SUBSTRUCTURE
     1 15A         1 TEMP              0 ****  ****    0 ROOT
