@<TRIPOS>MOLECULE
15A
   32    31     1     0     0
SMALL
bcc


@<TRIPOS>ATOM
      1 O6         -3.4630    1.6620   -0.4810 oh        1 15A     -0.325000
      2 C6         -2.0400    1.6930   -0.5180 c3        1 15A     -0.053000
      3 C5         -1.5070    1.7320    0.8910 c3        1 15A     -0.086000
      4 C4         -0.3140    2.5010    0.9080 c3        1 15A      0.038000
      5 O4          0.0590    2.7460    2.2870 oh        1 15A     -0.317000
      6 C3          0.8810    1.7810    0.1790 c3        1 15A     -0.025000
      7 O3          0.6020    1.7050   -1.1750 oh        1 15A     -0.324000
      8 C2          1.1360    0.3920    0.7030 c3        1 15A     -0.004000
      9 O2          2.1980   -0.2840   -0.0630 oh        1 15A     -0.326000
     10 N5         -1.3180    0.3010    1.3820 n3        1 15A     -0.268000
     11 C1         -0.1810   -0.3990    0.7110 c2        1 15A      0.062000
     12 N1         -0.2950   -1.5840    0.1700 n1        1 15A     -0.235000
     13 C7          0.8170   -2.1810   -0.4530 c2        1 15A     -0.070000
     14 C8          0.4650   -3.6580   -0.8540 c3        1 15A     -0.075000
     15 N2          1.6180   -4.2720   -1.4790 n3        1 15A     -0.351000
     16 H6         -3.7720    1.9280   -1.2310 ho        1 15A      0.206000
     17 H6C1       -1.7040    0.8860   -0.9750 h1        1 15A      0.105500
     18 H6C2       -1.7530    2.4680   -0.9900 h1        1 15A      0.105500
     19 H5         -2.1910    2.1900    1.4820 h1        1 15A      0.128000
     20 H4         -0.4950    3.4190    0.4320 h1        1 15A      0.142000
     21 HA         -2.0040   -0.1550    1.6740 hn        1 15A      0.201000
     22 HB         -0.1270    3.5070    2.4860 ho        1 15A      0.209000
     23 H3          1.7350    2.3440    0.3110 h1        1 15A      0.093000
     24 HC          1.1570    2.2020   -1.6120 ho        1 15A      0.221000
     25 H2          1.5690    0.4160    1.6810 h1        1 15A      0.107000
     26 HD          2.9990   -0.0430    0.2600 ho        1 15A      0.212000
     27 H7C1        1.0460   -1.6770   -1.2460 ha        1 15A      0.096500
     28 H7C2        1.6130   -2.1820    0.1940 ha        1 15A      0.096500
     29 H8C1       -0.3100   -3.6540   -1.5040 h1        1 15A      0.074000
     30 H8C2        0.2100   -4.1780   -0.0320 h1        1 15A      0.074000
     31 H2N1        1.3680   -4.6660   -2.2540 hn        1 15A      0.144000
     32 H2N2        1.9990   -4.9410   -0.8820 hn        1 15A      0.144000
@<TRIPOS>BOND
     1    1    2 1   
     2    1   16 1   
     3    2    3 1   
     4    2   17 1   
     5    2   18 1   
     6    3    4 1   
     7    3   10 1   
     8    3   19 1   
     9    4    5 1   
    10    4    6 1   
    11    4   20 1   
    12    5   22 1   
    13    6    7 1   
    14    6    8 1   
    15    6   23 1   
    16    7   24 1   
    17    8    9 1   
    18    8   11 1   
    19    8   25 1   
    20    9   26 1   
    21   10   11 1   
    22   10   21 1   
    23   11   12 1   
    24   13   14 1   
    25   13   27 1   
    26   13   28 1   
    27   14   15 1   
    28   14   29 1   
    29   14   30 1   
    30   15   31 1   
    31   15   32 1   
@<TRIPOS>SUBSTRUCTURE
     1 15A         1 TEMP              0 ****  ****    0 ROOT
