@<TRIPOS>MOLECULE
15B
   74    76     1     0     0
SMALL
bcc


@<TRIPOS>ATOM
      1 C1          0.4290    0.1720    0.0830 c3        1 15B      0.309900
      2 O1         -0.6000    0.5940   -0.8050 os        1 15B     -0.331900
      3 C7         -1.6950   -0.2590   -0.8880 ca        1 15B      0.089100
      4 C8         -1.5690   -1.5200   -1.4760 ca        1 15B     -0.091000
      5 C9         -2.7320   -2.2850   -1.6620 ca        1 15B     -0.169200
      6 N14        -2.6210   -3.6330   -2.2820 no        1 15B      0.314200
      7 O15        -3.6150   -4.2930   -2.4200 o         1 15B     -0.201500
      8 O16        -1.5370   -4.0260   -2.6210 o         1 15B     -0.201500
      9 C10        -3.9910   -1.8000   -1.2800 ca        1 15B     -0.034000
     10 C11        -4.0800   -0.5410   -0.6770 ca        1 15B     -0.137600
     11 C12        -2.9400    0.2380   -0.4740 ca        1 15B     -0.061000
     12 C13        -5.4350   -0.0400   -0.2830 c         1 15B      0.658700
     13 N18        -5.5380    0.5440    0.9640 n         1 15B     -0.544900
     14 C19        -6.8020    0.9640    1.5040 c3        1 15B      0.096000
     15 C20        -7.5670   -0.0820    2.3130 c3        1 15B     -0.108400
     16 C21        -6.7190   -0.8930    3.2870 c3        1 15B      0.163800
     17 N22        -5.7960   -0.1120    4.1010 n3        1 15B     -0.738600
     18 C23        -6.4770    0.8270    4.9820 c3        1 15B      0.163300
     19 C24        -5.5130    1.6080    5.8960 c3        1 15B      0.163800
     20 N25        -4.5960    0.7480    6.6280 n3        1 15B     -0.730600
     21 C28        -3.6400    1.4890    7.4400 c3        1 15B      0.170800
     22 C35        -4.2520    2.3950    8.5040 c3        1 15B     -0.079400
     23 C36        -5.1130    1.6080    9.4890 c3        1 15B      0.159800
     24 N37        -5.6290    2.4220   10.5650 n3        1 15B     -0.918800
     25 C26        -3.9200   -0.2040    5.7560 c3        1 15B      0.163800
     26 C27        -4.8870   -0.9790    4.8430 c3        1 15B      0.163300
     27 O17        -6.3990   -0.1170   -1.0690 o         1 15B     -0.588100
     28 C2          1.6660    1.0240   -0.2570 c3        1 15B      0.085100
     29 O2          2.2440    0.6010   -1.4760 oh        1 15B     -0.600800
     30 C3          2.7230    0.8110    0.8370 c3        1 15B      0.112100
     31 O3          3.8220    1.6850    0.6490 oh        1 15B     -0.604800
     32 C4          2.1190    1.1550    2.2100 c3        1 15B      0.123100
     33 O4          1.8280    2.5360    2.3170 oh        1 15B     -0.591800
     34 C5          0.8190    0.3670    2.4260 c3        1 15B      0.111100
     35 C6          0.0770    0.8700    3.6700 c3        1 15B      0.142400
     36 O6         -1.0540    0.0720    3.9420 oh        1 15B     -0.600800
     37 O5         -0.1120    0.5110    1.3490 os        1 15B     -0.437600
     38 H1          0.6320   -0.9310    0.0080 h2        1 15B      0.062700
     39 H2          1.3750    2.1110   -0.3050 h1        1 15B      0.090700
     40 HO2         1.6080    0.8120   -2.1730 ho        1 15B      0.427000
     41 H3          3.0790   -0.2560    0.8210 h1        1 15B      0.061700
     42 HO3         4.1260    1.5570   -0.2600 ho        1 15B      0.433000
     43 H4          2.8590    0.8700    3.0120 h1        1 15B      0.061700
     44 HO4         2.6250    3.0120    2.0420 ho        1 15B      0.428000
     45 H5          1.0740   -0.7250    2.5300 h1        1 15B      0.057700
     46 H61        -0.2140    1.9440    3.5240 h1        1 15B      0.070200
     47 H62         0.7410    0.7650    4.5680 h1        1 15B      0.070200
     48 HO6        -1.6500    0.1600    3.1870 ho        1 15B      0.412000
     49 H8         -0.5830   -1.9010   -1.7940 ha        1 15B      0.179000
     50 H10        -4.9070   -2.3930   -1.4580 ha        1 15B      0.191000
     51 H12        -2.9960    1.2390   -0.0150 ha        1 15B      0.174000
     52 H18        -4.8080    0.3890    1.6210 hn        1 15B      0.321500
     53 H191       -6.5940    1.8560    2.1630 h1        1 15B      0.064200
     54 H192       -7.4610    1.2980    0.6490 h1        1 15B      0.064200
     55 H201       -8.3810    0.4530    2.8700 hc        1 15B      0.054700
     56 H202       -8.0580   -0.8100    1.6140 hc        1 15B      0.054700
     57 H211       -6.0990   -1.6270    2.6950 h1        1 15B      0.034200
     58 H212       -7.4250   -1.5010    3.9290 h1        1 15B      0.034200
     59 H231       -7.0180    1.5750    4.3380 h1        1 15B      0.037700
     60 H232       -7.2450    0.3070    5.6270 h1        1 15B      0.037700
     61 H241       -6.1410    2.1610    6.6500 h1        1 15B      0.042200
     62 H242       -4.9630    2.3720    5.2730 h1        1 15B      0.042200
     63 H261       -3.3960   -0.9560    6.4100 h1        1 15B      0.042200
     64 H262       -3.1350    0.2950    5.1130 h1        1 15B      0.042200
     65 H271       -4.2650   -1.5480    4.0950 h1        1 15B      0.037700
     66 H272       -5.4500   -1.7330    5.4670 h1        1 15B      0.037700
     67 H281       -2.9640    2.1280    6.7950 h1        1 15B      0.032700
     68 H282       -2.9890    0.7250    7.9560 h1        1 15B      0.032700
     69 H351       -3.4010    2.8880    9.0460 hc        1 15B      0.047200
     70 H352       -4.8590    3.2080    8.0290 hc        1 15B      0.047200
     71 H361       -6.0000    1.1810    8.9390 h1        1 15B      0.033200
     72 H362       -4.5030    0.7320    9.8630 h1        1 15B      0.033200
     73 H371       -6.1370    1.8550   11.2140 hn        1 15B      0.346300
     74 H372       -4.8890    2.8910   11.0490 hn        1 15B      0.346300
@<TRIPOS>BOND
     1    1    2 1   
     2    1   28 1   
     3    1   37 1   
     4    1   38 1   
     5    2    3 1   
     6    3    4 ar  
     7    3   11 ar  
     8    4    5 ar  
     9    4   49 1   
    10    5    6 1   
    11    5    9 ar  
    12    6    7 1   
    13    6    8 1   
    14    9   10 ar  
    15    9   50 1   
    16   10   11 ar  
    17   10   12 1   
    18   11   51 1   
    19   12   13 1   
    20   12   27 2   
    21   13   14 1   
    22   13   52 1   
    23   14   15 1   
    24   14   53 1   
    25   14   54 1   
    26   15   16 1   
    27   15   55 1   
    28   15   56 1   
    29   16   17 1   
    30   16   57 1   
    31   16   58 1   
    32   17   18 1   
    33   17   26 1   
    34   18   19 1   
    35   18   59 1   
    36   18   60 1   
    37   19   20 1   
    38   19   61 1   
    39   19   62 1   
    40   20   21 1   
    41   20   25 1   
    42   21   22 1   
    43   21   67 1   
    44   21   68 1   
    45   22   23 1   
    46   22   69 1   
    47   22   70 1   
    48   23   24 1   
    49   23   71 1   
    50   23   72 1   
    51   24   73 1   
    52   24   74 1   
    53   25   26 1   
    54   25   63 1   
    55   25   64 1   
    56   26   65 1   
    57   26   66 1   
    58   28   29 1   
    59   28   30 1   
    60   28   39 1   
    61   29   40 1   
    62   30   31 1   
    63   30   32 1   
    64   30   41 1   
    65   31   42 1   
    66   32   33 1   
    67   32   34 1   
    68   32   43 1   
    69   33   44 1   
    70   34   35 1   
    71   34   37 1   
    72   34   45 1   
    73   35   36 1   
    74   35   46 1   
    75   35   47 1   
    76   36   48 1   
@<TRIPOS>SUBSTRUCTURE
     1 15B         1 TEMP              0 ****  ****    0 ROOT
