@<TRIPOS>MOLECULE
15B
   74    76     1     0     0
SMALL
bcc


@<TRIPOS>ATOM
      1 C1         -2.0940    1.8210   -6.9630 c3        1 15B      0.303900
      2 O1         -2.5390    0.4720   -6.9140 os        1 15B     -0.334900
      3 C7         -1.6140   -0.4780   -7.3320 ca        1 15B      0.075100
      4 C8         -1.7710   -1.0260   -8.6090 ca        1 15B     -0.068000
      5 C9         -0.9450   -2.1010   -8.9740 ca        1 15B     -0.175200
      6 N14        -1.0910   -2.7010  -10.3280 no        1 15B      0.315200
      7 O15        -0.3580   -3.5960  -10.6490 o         1 15B     -0.200000
      8 O16        -1.9360   -2.2660  -11.0640 o         1 15B     -0.200000
      9 C10         0.0070   -2.6220   -8.0850 ca        1 15B     -0.028000
     10 C11         0.1540   -2.0350   -6.8230 ca        1 15B     -0.141600
     11 C12        -0.6470   -0.9600   -6.4380 ca        1 15B     -0.062000
     12 C13         1.1530   -2.6400   -5.8860 c         1 15B      0.656700
     13 N18         1.9360   -1.7700   -5.1530 n         1 15B     -0.543900
     14 C19         3.0060   -2.2490   -4.3180 c3        1 15B      0.094000
     15 C20         4.3670   -2.3960   -4.9960 c3        1 15B     -0.108400
     16 C21         4.7890   -1.2010   -5.8440 c3        1 15B      0.164800
     17 N22         4.5860    0.0930   -5.2070 n3        1 15B     -0.740600
     18 C23         5.4330    0.2840   -4.0370 c3        1 15B      0.166300
     19 C24         5.2640    1.6700   -3.3860 c3        1 15B      0.162800
     20 N25         5.3860    2.7670   -4.3340 n3        1 15B     -0.726600
     21 C28         5.1550    4.0720   -3.7280 c3        1 15B      0.174800
     22 C35         6.1630    4.4720   -2.6550 c3        1 15B     -0.119400
     23 C36         7.5870    4.5490   -3.2080 c3        1 15B      0.152800
     24 N37         8.5930    5.0520   -2.3090 n3        1 15B     -0.906800
     25 C26         4.5350    2.5710   -5.5020 c3        1 15B      0.162800
     26 C27         4.7290    1.1900   -6.1570 c3        1 15B      0.166300
     27 O17         1.2270   -3.8770   -5.7520 o         1 15B     -0.586100
     28 C2         -3.3690    2.6840   -6.8520 c3        1 15B      0.078100
     29 O2         -4.0250    2.7390   -8.1050 oh        1 15B     -0.594800
     30 C3         -2.9900    4.1320   -6.4940 c3        1 15B      0.117100
     31 O3         -4.1460    4.8860   -6.1980 oh        1 15B     -0.573800
     32 C4         -2.0830    4.1560   -5.2510 c3        1 15B      0.124100
     33 O4         -2.7530    3.7700   -4.0730 oh        1 15B     -0.565800
     34 C5         -0.8650    3.2600   -5.5250 c3        1 15B      0.065100
     35 C6          0.0370    3.1700   -4.2910 c3        1 15B      0.138400
     36 O6          1.2320    2.4820   -4.5860 oh        1 15B     -0.595800
     37 O5         -1.2790    1.9150   -5.8030 os        1 15B     -0.453600
     38 H1         -1.5050    2.0470   -7.8920 h2        1 15B      0.068700
     39 H2         -4.0520    2.2540   -6.0690 h1        1 15B      0.078700
     40 HO2        -4.3790    1.8560   -8.2730 ho        1 15B      0.424000
     41 H3         -2.4430    4.5940   -7.3640 h1        1 15B      0.056700
     42 HO3        -4.7160    4.8310   -6.9780 ho        1 15B      0.421000
     43 H4         -1.7560    5.2150   -5.0480 h1        1 15B      0.104700
     44 HO4        -3.0660    2.8640   -4.2010 ho        1 15B      0.408000
     45 H5         -0.2860    3.6540   -6.4050 h1        1 15B      0.063700
     46 H61        -0.5190    2.6760   -3.4510 h1        1 15B      0.068700
     47 H62         0.3560    4.2020   -3.9870 h1        1 15B      0.068700
     48 HO6         0.9920    1.5700   -4.7950 ho        1 15B      0.408000
     49 H8         -2.5350   -0.6330   -9.3010 ha        1 15B      0.182000
     50 H10         0.6290   -3.4930   -8.3640 ha        1 15B      0.192000
     51 H12        -0.5530   -0.4870   -5.4460 ha        1 15B      0.173000
     52 H18         2.0060   -0.8260   -5.4580 hn        1 15B      0.316500
     53 H191        3.1000   -1.5220   -3.4600 h1        1 15B      0.066700
     54 H192        2.7080   -3.2550   -3.9020 h1        1 15B      0.066700
     55 H201        5.1250   -2.5820   -4.1910 hc        1 15B      0.055700
     56 H202        4.3570   -3.2960   -5.6670 hc        1 15B      0.055700
     57 H211        5.8700   -1.3530   -6.1410 h1        1 15B      0.033700
     58 H212        4.1840   -1.2050   -6.7960 h1        1 15B      0.033700
     59 H231        6.5240    0.1330   -4.2870 h1        1 15B      0.036450
     60 H232        5.1440   -0.4900   -3.2720 h1        1 15B      0.036450
     61 H241        4.2750    1.6960   -2.8420 h1        1 15B      0.042700
     62 H242        6.0840    1.7840   -2.6230 h1        1 15B      0.042700
     63 H261        4.8140    3.3500   -6.2660 h1        1 15B      0.042700
     64 H262        3.4410    2.7020   -5.2500 h1        1 15B      0.042700
     65 H271        3.9330    1.0720   -6.9450 h1        1 15B      0.036450
     66 H272        5.7320    1.1670   -6.6720 h1        1 15B      0.036450
     67 H281        4.1220    4.1350   -3.2710 h1        1 15B      0.033200
     68 H282        5.2050    4.8370   -4.5560 h1        1 15B      0.033200
     69 H351        6.1240    3.7560   -1.7940 hc        1 15B      0.038200
     70 H352        5.8500    5.4770   -2.2660 hc        1 15B      0.038200
     71 H361        7.5810    5.2110   -4.1210 h1        1 15B      0.060200
     72 H362        7.9040    3.5200   -3.5390 h1        1 15B      0.060200
     73 H371        8.6810    4.4640   -1.5030 hn        1 15B      0.342300
     74 H372        8.3730    5.9800   -2.0050 hn        1 15B      0.342300
@<TRIPOS>BOND
     1    1    2 1   
     2    1   28 1   
     3    1   37 1   
     4    1   38 1   
     5    2    3 1   
     6    3    4 ar  
     7    3   11 ar  
     8    4    5 ar  
     9    4   49 1   
    10    5    6 1   
    11    5    9 ar  
    12    6    7 1   
    13    6    8 1   
    14    9   10 ar  
    15    9   50 1   
    16   10   11 ar  
    17   10   12 1   
    18   11   51 1   
    19   12   13 1   
    20   12   27 2   
    21   13   14 1   
    22   13   52 1   
    23   14   15 1   
    24   14   53 1   
    25   14   54 1   
    26   15   16 1   
    27   15   55 1   
    28   15   56 1   
    29   16   17 1   
    30   16   57 1   
    31   16   58 1   
    32   17   18 1   
    33   17   26 1   
    34   18   19 1   
    35   18   59 1   
    36   18   60 1   
    37   19   20 1   
    38   19   61 1   
    39   19   62 1   
    40   20   21 1   
    41   20   25 1   
    42   21   22 1   
    43   21   67 1   
    44   21   68 1   
    45   22   23 1   
    46   22   69 1   
    47   22   70 1   
    48   23   24 1   
    49   23   71 1   
    50   23   72 1   
    51   24   73 1   
    52   24   74 1   
    53   25   26 1   
    54   25   63 1   
    55   25   64 1   
    56   26   65 1   
    57   26   66 1   
    58   28   29 1   
    59   28   30 1   
    60   28   39 1   
    61   29   40 1   
    62   30   31 1   
    63   30   32 1   
    64   30   41 1   
    65   31   42 1   
    66   32   33 1   
    67   32   34 1   
    68   32   43 1   
    69   33   44 1   
    70   34   35 1   
    71   34   37 1   
    72   34   45 1   
    73   35   36 1   
    74   35   46 1   
    75   35   47 1   
    76   36   48 1   
@<TRIPOS>SUBSTRUCTURE
     1 15B         1 TEMP              0 ****  ****    0 ROOT
