@<TRIPOS>MOLECULE
15B
   74    74     1     0     0
SMALL
bcc


@<TRIPOS>ATOM
      1 C1         -1.1490    5.3490    0.2910 c3        1 15B      0.126000
      2 O1         -1.7770    4.1790   -0.0870 os        1 15B     -0.209000
      3 C7         -2.3440    3.5050    1.1150 c2        1 15B      0.073000
      4 C8         -3.2470    4.1820    1.9300 c2        1 15B     -0.117000
      5 C9         -3.8440    3.5250    3.0100 c1        1 15B     -0.107000
      6 N14        -4.8420    4.1810    3.7790 n2        1 15B      0.459400
      7 O15        -5.2440    5.4350    3.4460 o         1 15B     -0.294700
      8 O16        -5.3000    3.6280    4.8170 o         1 15B     -0.294700
      9 C10        -3.5360    2.2000    3.2700 c2        1 15B     -0.049000
     10 C11        -2.6360    1.5240    2.4590 c1        1 15B     -0.100000
     11 C12        -2.0370    2.1820    1.3750 c1        1 15B     -0.097000
     12 C13        -2.4540    0.0190    2.6250 c2        1 15B      0.343000
     13 N18        -1.5000   -0.7150    1.7620 n         1 15B     -0.373000
     14 C19        -1.2730   -2.1330    1.9760 c3        1 15B     -0.032000
     15 C20        -1.1830   -2.8330    0.6450 c3        1 15B     -0.184000
     16 C21        -0.2450   -4.0160    0.7640 c3        1 15B     -0.062000
     17 N22         0.0410   -4.5340   -0.5340 n3        1 15B     -0.253000
     18 C23         0.0190   -5.9800   -0.5010 c3        1 15B     -0.102000
     19 C24         0.4530   -6.5960   -1.8300 c3        1 15B     -0.073500
     20 N25         1.7120   -6.0690   -2.2950 n3        1 15B     -0.246000
     21 C28         2.7990   -6.5610   -1.4480 c3        1 15B     -0.069000
     22 C35         3.9230   -7.1650   -2.3340 c3        1 15B     -0.202000
     23 C36         4.3560   -8.4800   -1.7650 c3        1 15B     -0.087000
     24 N37         5.2330   -9.1370   -2.7010 n3        1 15B     -0.337000
     25 C26         1.7350   -4.6240   -2.3240 c3        1 15B     -0.073500
     26 C27         1.3020   -4.0080   -1.0000 c3        1 15B     -0.102000
     27 O17        -3.0450   -0.5620    3.4960 o         1 15B     -0.345000
     28 C2          0.3400    5.1930    0.0970 c3        1 15B     -0.027000
     29 O2          0.8220    4.2190    1.0110 oh        1 15B     -0.328000
     30 C3          1.0770    6.4710    0.3210 c3        1 15B      0.001000
     31 O3          2.4600    6.2850   -0.0490 oh        1 15B     -0.330000
     32 C4          0.5100    7.5960   -0.4750 c3        1 15B      0.012000
     33 O4          0.7910    7.3580   -1.9010 oh        1 15B     -0.316000
     34 C5         -0.9860    7.7390   -0.2840 c3        1 15B     -0.002000
     35 C6         -1.5140    8.7830   -1.2530 c3        1 15B     -0.007000
     36 O6         -2.8770    9.0380   -0.9710 oh        1 15B     -0.320000
     37 O5         -1.7080    6.4770   -0.5000 os        1 15B     -0.291000
     38 H1         -1.3340    5.5140    1.2630 h2        1 15B      0.105000
     39 H2          0.5060    4.8940   -0.7880 h1        1 15B      0.131000
     40 HO2         1.5330    3.8430    0.6810 ho        1 15B      0.221000
     41 H3          1.0310    6.6940    1.2450 h1        1 15B      0.101000
     42 HO3         2.8840    5.9210    0.6020 ho        1 15B      0.230000
     43 H4          0.9620    8.4640   -0.1880 h1        1 15B      0.103000
     44 HO4         1.4550    7.9300   -2.1850 ho        1 15B      0.225000
     45 H5         -1.1500    8.0280    0.5790 h1        1 15B      0.100000
     46 H61        -0.9830    9.6400   -1.1510 h1        1 15B      0.110500
     47 H62        -1.4240    8.4380   -2.2090 h1        1 15B      0.110500
     48 HO6        -3.1930    9.6790   -1.5440 ho        1 15B      0.210000
     49 H8         -3.4560    5.0840    1.7520 ha        1 15B      0.189000
     50 H10        -3.9480    1.7460    4.0140 ha        1 15B      0.194000
     51 H12        -1.4120    1.7140    0.8130 ha        1 15B      0.159000
     52 H18        -1.0800   -0.2710    1.0260 hn        1 15B      0.223000
     53 H191       -0.3950   -2.2650    2.4950 h1        1 15B      0.105000
     54 H192       -1.9810   -2.4940    2.4670 h1        1 15B      0.105000
     55 H201       -0.8490   -2.2200   -0.0220 hc        1 15B      0.092000
     56 H202       -2.0860   -3.1500    0.3780 hc        1 15B      0.092000
     57 H211       -0.6550   -4.6920    1.2930 h1        1 15B      0.074000
     58 H212        0.5600   -3.7370    1.1760 h1        1 15B      0.074000
     59 H231        0.6010   -6.2810    0.1790 h1        1 15B      0.072750
     60 H232       -0.9070   -6.2830   -0.2910 h1        1 15B      0.072750
     61 H241        0.5390   -7.5780   -1.7170 h1        1 15B      0.099000
     62 H242       -0.2470   -6.4100   -2.5150 h1        1 15B      0.099000
     63 H261        2.6390   -4.3320   -2.5230 h1        1 15B      0.099000
     64 H262        1.1230   -4.3010   -3.0470 h1        1 15B      0.099000
     65 H271        1.2140   -3.0340   -1.1170 h1        1 15B      0.072750
     66 H272        1.9710   -4.1800   -0.3440 h1        1 15B      0.072750
     67 H281        2.4860   -7.1920   -0.8950 h1        1 15B      0.071000
     68 H282        3.1570   -5.8330   -0.9340 h1        1 15B      0.071000
     69 H351        3.5760   -7.3030   -3.2690 hc        1 15B      0.086000
     70 H352        4.7040   -6.5370   -2.3540 hc        1 15B      0.086000
     71 H361        3.5550   -9.0480   -1.5980 h1        1 15B      0.090500
     72 H362        4.8350   -8.3280   -0.9170 h1        1 15B      0.090500
     73 H371        6.0880   -8.7090   -2.6800 hn        1 15B      0.141000
     74 H372        4.8510   -9.0630   -3.6160 hn        1 15B      0.141000
@<TRIPOS>BOND
     1    1    2 1   
     2    1   28 1   
     3    1   37 1   
     4    1   38 1   
     5    2    3 1   
     6    3    4 1   
     7    3   11 1   
     8    4    5 1   
     9    4   49 1   
    10    5    9 1   
    11    6    7 2   
    12    6    8 2   
    13    9   10 1   
    14    9   50 1   
    15   10   12 1   
    16   11   51 1   
    17   12   13 1   
    18   12   27 1   
    19   13   14 1   
    20   13   52 1   
    21   14   15 1   
    22   14   53 1   
    23   14   54 1   
    24   15   16 1   
    25   15   55 1   
    26   15   56 1   
    27   16   17 1   
    28   16   57 1   
    29   16   58 1   
    30   17   18 1   
    31   17   26 1   
    32   18   19 1   
    33   18   59 1   
    34   18   60 1   
    35   19   20 1   
    36   19   61 1   
    37   19   62 1   
    38   20   21 1   
    39   20   25 1   
    40   21   22 1   
    41   21   67 1   
    42   21   68 1   
    43   22   23 1   
    44   22   69 1   
    45   22   70 1   
    46   23   24 1   
    47   23   71 1   
    48   23   72 1   
    49   24   73 1   
    50   24   74 1   
    51   25   26 1   
    52   25   63 1   
    53   25   64 1   
    54   26   65 1   
    55   26   66 1   
    56   28   29 1   
    57   28   30 1   
    58   28   39 1   
    59   29   40 1   
    60   30   31 1   
    61   30   32 1   
    62   30   41 1   
    63   31   42 1   
    64   32   33 1   
    65   32   34 1   
    66   32   43 1   
    67   33   44 1   
    68   34   35 1   
    69   34   37 1   
    70   34   45 1   
    71   35   36 1   
    72   35   46 1   
    73   35   47 1   
    74   36   48 1   
@<TRIPOS>SUBSTRUCTURE
     1 15B         1 TEMP              0 ****  ****    0 ROOT
