@<TRIPOS>MOLECULE
15B
   76    78     1     0     0
SMALL
bcc


@<TRIPOS>ATOM
      1 C1          0.9820   -0.8380   -1.0670 c3        1 15B      0.313900
      2 O1         -0.1940   -0.1620   -1.5420 os        1 15B     -0.360900
      3 C7         -1.4090   -0.7720   -1.3120 ca        1 15B      0.120100
      4 C8         -2.2040   -1.0810   -2.4310 ca        1 15B     -0.025000
      5 C9         -3.5030   -1.5580   -2.2130 ca        1 15B     -0.168200
      6 N14        -4.3710   -1.8950   -3.3860 no        1 15B      0.318200
      7 O15        -5.5080   -2.2080   -3.1720 o         1 15B     -0.168000
      8 O16        -3.8930   -1.8310   -4.4810 o         1 15B     -0.168000
      9 C10        -4.0190   -1.7250   -0.9180 ca        1 15B     -0.020000
     10 C11        -3.2100   -1.3890    0.1750 ca        1 15B     -0.191600
     11 C12        -1.8970   -0.9410   -0.0130 ca        1 15B     -0.106000
     12 C13        -3.7690   -1.5380    1.5220 c         1 15B      0.577700
     13 N18        -3.4260   -0.4400    2.5090 n4        1 15B     -0.680800
     14 C19        -4.2780    0.7720    2.3200 c3        1 15B      0.127800
     15 C20        -5.7670    0.5340    2.5130 c3        1 15B     -0.109400
     16 C21        -6.1510   -0.2060    3.7920 c3        1 15B      0.135800
     17 N22        -5.5000    0.2940    5.0000 n3        1 15B     -0.751600
     18 C23        -5.9760    1.6260    5.3650 c3        1 15B      0.157800
     19 C24        -5.4130    2.1330    6.7060 c3        1 15B      0.164800
     20 N25        -5.5920    1.1800    7.7940 n3        1 15B     -0.752600
     21 C28        -5.0540    1.6620    9.0570 c3        1 15B      0.170800
     22 C35        -6.0380    2.5410    9.8390 c3        1 15B     -0.110400
     23 C36        -7.2450    1.7210   10.2720 c3        1 15B      0.105800
     24 N37        -8.1810    2.4890   11.1480 n4        1 15B     -0.840600
     25 C26        -5.0840   -0.1400    7.4360 c3        1 15B      0.164800
     26 C27        -5.6530   -0.6540    6.1010 c3        1 15B      0.157800
     27 O17        -4.4940   -2.4230    1.9560 o         1 15B     -0.421100
     28 C2          2.1610   -0.1410   -1.7750 c3        1 15B      0.091100
     29 O2          2.7830   -1.0610   -2.6480 oh        1 15B     -0.584800
     30 C3          3.2200    0.2750   -0.7440 c3        1 15B      0.117100
     31 O3          4.2040    1.0840   -1.3570 oh        1 15B     -0.596800
     32 C4          2.5530    1.1520    0.3260 c3        1 15B      0.128100
     33 O4          1.9870    2.3190   -0.2460 oh        1 15B     -0.609800
     34 C5          1.4390    0.3690    1.0330 c3        1 15B      0.117100
     35 C6          0.2750    1.2830    1.4280 c3        1 15B      0.114400
     36 O6         -0.5510    0.6770    2.4170 oh        1 15B     -0.676800
     37 O5          0.9430   -0.7720    0.3330 os        1 15B     -0.443600
     38 H1          0.9420   -1.9420   -1.3000 h2        1 15B      0.111700
     39 H2          1.7930    0.7710   -2.3240 h1        1 15B      0.097700
     40 HO2         2.3200   -1.0220   -3.4950 ho        1 15B      0.426000
     41 H3          3.6880   -0.6350   -0.2780 h1        1 15B      0.079700
     42 HO3         4.6410    0.5370   -2.0260 ho        1 15B      0.441000
     43 H4          3.3290    1.4560    1.0850 h1        1 15B      0.076700
     44 HO4         2.6890    2.7460   -0.7610 ho        1 15B      0.445000
     45 H5          1.8810   -0.1020    1.9640 h1        1 15B      0.078700
     46 H61         0.6730    2.2600    1.8120 h1        1 15B      0.084700
     47 H62        -0.3990    1.4630    0.5490 h1        1 15B      0.084700
     48 HO6         0.0080    0.4870    3.1800 ho        1 15B      0.420000
     49 H8         -1.8080   -0.9390   -3.4550 ha        1 15B      0.208000
     50 H10        -5.0430   -2.1160   -0.7700 ha        1 15B      0.196000
     51 H12        -1.2100   -0.7440    0.8320 ha        1 15B      0.189000
     52 H18        -2.4370   -0.1640    2.3920 hn        1 15B      0.476800
     53 H191       -3.9140    1.5420    3.0620 hx        1 15B      0.106700
     54 H192       -4.0910    1.1610    1.2760 hx        1 15B      0.106700
     55 H201       -6.2580    1.5450    2.4900 hc        1 15B      0.086200
     56 H202       -6.1790   -0.0570    1.6500 hc        1 15B      0.086200
     57 H211       -7.2790   -0.1620    3.8740 h1        1 15B      0.063200
     58 H212       -5.8770   -1.2960    3.6750 h1        1 15B      0.063200
     59 H231       -7.1030    1.6640    5.4090 h1        1 15B      0.050450
     60 H232       -5.6380    2.3420    4.5630 h1        1 15B      0.050450
     61 H241       -5.9660    3.0770    6.9730 h1        1 15B      0.047700
     62 H242       -4.3240    2.4010    6.5650 h1        1 15B      0.047700
     63 H261       -3.9570   -0.1480    7.3810 h1        1 15B      0.047700
     64 H262       -5.3970   -0.8670    8.2380 h1        1 15B      0.047700
     65 H271       -6.7350   -0.9380    6.2540 h1        1 15B      0.050450
     66 H272       -5.0870   -1.5900    5.8310 h1        1 15B      0.050450
     67 H281       -4.7770    0.7810    9.7060 h1        1 15B      0.063200
     68 H282       -4.1160    2.2760    8.9090 h1        1 15B      0.063200
     69 H351       -5.4900    2.9410   10.7340 hc        1 15B      0.073700
     70 H352       -6.3620    3.4120    9.2110 hc        1 15B      0.073700
     71 H361       -7.8260    1.3790    9.3650 hx        1 15B      0.119200
     72 H362       -6.9090    0.8110   10.8500 hx        1 15B      0.119200
     73 H371       -7.6970    2.8000   11.9980 hn        1 15B      0.463467
     74 H372       -8.9750    1.8980   11.4160 hn        1 15B      0.463467
     75 H182       -3.5680   -0.7940    3.4640 hn        1 15B      0.476800
     76 H373       -8.5320    3.3150   10.6530 hn        1 15B      0.463467
@<TRIPOS>BOND
     1    1    2 1   
     2    1   28 1   
     3    1   37 1   
     4    1   38 1   
     5    2    3 1   
     6    3    4 ar  
     7    3   11 ar  
     8    4    5 ar  
     9    4   49 1   
    10    5    6 1   
    11    5    9 ar  
    12    6    7 1   
    13    6    8 1   
    14    9   10 ar  
    15    9   50 1   
    16   10   11 ar  
    17   10   12 1   
    18   11   51 1   
    19   12   13 1   
    20   12   27 2   
    21   13   14 1   
    22   13   52 1   
    23   13   75 1   
    24   14   15 1   
    25   14   53 1   
    26   14   54 1   
    27   15   16 1   
    28   15   55 1   
    29   15   56 1   
    30   16   17 1   
    31   16   57 1   
    32   16   58 1   
    33   17   18 1   
    34   17   26 1   
    35   18   19 1   
    36   18   59 1   
    37   18   60 1   
    38   19   20 1   
    39   19   61 1   
    40   19   62 1   
    41   20   21 1   
    42   20   25 1   
    43   21   22 1   
    44   21   67 1   
    45   21   68 1   
    46   22   23 1   
    47   22   69 1   
    48   22   70 1   
    49   23   24 1   
    50   23   71 1   
    51   23   72 1   
    52   24   73 1   
    53   24   74 1   
    54   24   76 1   
    55   25   26 1   
    56   25   63 1   
    57   25   64 1   
    58   26   65 1   
    59   26   66 1   
    60   28   29 1   
    61   28   30 1   
    62   28   39 1   
    63   29   40 1   
    64   30   31 1   
    65   30   32 1   
    66   30   41 1   
    67   31   42 1   
    68   32   33 1   
    69   32   34 1   
    70   32   43 1   
    71   33   44 1   
    72   34   35 1   
    73   34   37 1   
    74   34   45 1   
    75   35   36 1   
    76   35   46 1   
    77   35   47 1   
    78   36   48 1   
@<TRIPOS>SUBSTRUCTURE
     1 15B         1 TEMP              0 ****  ****    0 ROOT
