@<TRIPOS>MOLECULE
15B
   76    78     1     0     0
SMALL
bcc


@<TRIPOS>ATOM
      1 C1          0.6820   -0.0070   -1.1460 c3        1 15B      0.316900
      2 O1         -0.5370    0.0760   -1.8920 os        1 15B     -0.333900
      3 C7         -1.5270   -0.8310   -1.5530 ca        1 15B      0.111100
      4 C8         -1.8880   -1.8050   -2.4980 ca        1 15B     -0.013000
      5 C9         -2.9670   -2.6500   -2.1980 ca        1 15B     -0.177200
      6 N14        -3.3840   -3.6900   -3.1930 no        1 15B      0.319200
      7 O15        -4.3130   -4.3930   -2.9130 o         1 15B     -0.166000
      8 O16        -2.7710   -3.7700   -4.2170 o         1 15B     -0.166000
      9 C10        -3.6590   -2.5550   -0.9820 ca        1 15B     -0.001000
     10 C11        -3.2720   -1.5760   -0.0510 ca        1 15B     -0.200600
     11 C12        -2.2280   -0.6910   -0.3510 ca        1 15B     -0.070000
     12 C13        -3.9920   -1.5520    1.2220 c         1 15B      0.573700
     13 N18        -3.4820   -0.6310    2.3090 ny        1 15B     -0.678800
     14 C19        -4.0330    0.7520    2.1930 c3        1 15B      0.124800
     15 C20        -5.5460    0.8420    2.3040 c3        1 15B     -0.108400
     16 C21        -6.1590    0.1170    3.4990 c3        1 15B      0.135800
     17 N22        -5.4760    0.3570    4.7670 n3        1 15B     -0.752600
     18 C23        -5.6660    1.7240    5.2410 c3        1 15B      0.157800
     19 C24        -5.0660    1.9790    6.6360 c3        1 15B      0.164800
     20 N25        -5.4970    1.0010    7.6270 n3        1 15B     -0.752600
     21 C28        -4.9200    1.2420    8.9420 c3        1 15B      0.170800
     22 C35        -5.7230    2.2440    9.7810 c3        1 15B     -0.110400
     23 C36        -7.0950    1.6730   10.1070 c3        1 15B      0.105800
     24 N37        -7.8800    2.5490   11.0300 nz        1 15B     -0.840600
     25 C26        -5.2770   -0.3640    7.1620 c3        1 15B      0.164800
     26 C27        -5.8850   -0.6240    5.7710 c3        1 15B      0.157800
     27 O17        -4.9620   -2.2320    1.5420 o         1 15B     -0.440100
     28 C2          1.5090    1.2220   -1.5720 c3        1 15B      0.089100
     29 O2          2.1360    0.9710   -2.8120 oh        1 15B     -0.584800
     30 C3          2.6400    1.4640   -0.5570 c3        1 15B      0.116100
     31 O3          3.2610    2.7080   -0.8140 oh        1 15B     -0.597800
     32 C4          2.0670    1.5620    0.8670 c3        1 15B      0.124100
     33 O4          1.2290    2.6940    1.0170 oh        1 15B     -0.609800
     34 C5          1.2360    0.3110    1.1750 c3        1 15B      0.120100
     35 C6          0.4710    0.4770    2.4940 c3        1 15B      0.138400
     36 O6         -0.4630   -0.5700    2.7020 oh        1 15B     -0.660800
     37 O5          0.2310    0.0530    0.1960 os        1 15B     -0.469600
     38 H1          1.2080   -0.9800   -1.3470 h2        1 15B      0.078700
     39 H2          0.8420    2.1270   -1.6230 h1        1 15B      0.089700
     40 HO2         1.4570    1.0390   -3.4970 ho        1 15B      0.431000
     41 H3          3.3930    0.6300   -0.6210 h1        1 15B      0.072700
     42 HO3         3.6280    2.6620   -1.7090 ho        1 15B      0.444000
     43 H4          2.9210    1.6330    1.5990 h1        1 15B      0.076700
     44 HO4         1.7240    3.4560    0.6790 ho        1 15B      0.445000
     45 H5          1.9240   -0.5810    1.2190 h1        1 15B      0.060700
     46 H61         1.2060    0.5110    3.3410 h1        1 15B      0.079700
     47 H62        -0.1440    1.4160    2.4720 h1        1 15B      0.079700
     48 HO6         0.0160   -1.4050    2.6270 ho        1 15B      0.424000
     49 H8         -1.3390   -1.8930   -3.4560 ha        1 15B      0.210000
     50 H10        -4.4970   -3.2460   -0.7580 ha        1 15B      0.205000
     51 H12        -1.9130    0.1180    0.3320 ha        1 15B      0.174000
     52 H18        -3.7630   -1.0170    3.2210 hn        1 15B      0.480300
     53 H191       -3.5520    1.3600    3.0150 hx        1 15B      0.105200
     54 H192       -3.7050    1.1700    1.1960 hx        1 15B      0.105200
     55 H201       -6.0260    0.4220    1.3780 hc        1 15B      0.087200
     56 H202       -5.7980    1.9370    2.3450 hc        1 15B      0.087200
     57 H211       -7.2490    0.4170    3.5460 h1        1 15B      0.064700
     58 H212       -6.1380   -0.9950    3.2960 h1        1 15B      0.064700
     59 H231       -5.1470    2.4130    4.5170 h1        1 15B      0.050200
     60 H232       -6.7600    2.0060    5.2620 h1        1 15B      0.050200
     61 H241       -3.9400    2.0100    6.5470 h1        1 15B      0.048200
     62 H242       -5.4110    2.9950    6.9760 h1        1 15B      0.048200
     63 H261       -4.1770   -0.6190    7.1340 h1        1 15B      0.048200
     64 H262       -5.7770   -1.0670    7.8850 h1        1 15B      0.048200
     65 H271       -5.5280   -1.6360    5.4310 h1        1 15B      0.050200
     66 H272       -7.0090   -0.6690    5.8710 h1        1 15B      0.050200
     67 H281       -4.8670    0.2700    9.5120 h1        1 15B      0.063200
     68 H282       -3.8660    1.6470    8.8730 h1        1 15B      0.063200
     69 H351       -5.8240    3.2160    9.2290 hc        1 15B      0.073200
     70 H352       -5.1400    2.4360   10.7210 hc        1 15B      0.073200
     71 H361       -7.6980    1.5460    9.1600 hx        1 15B      0.119200
     72 H362       -6.9890    0.6660   10.6050 hx        1 15B      0.119200
     73 H371       -8.0240    3.4710   10.6060 hn        1 15B      0.463467
     74 H372       -8.7940    2.1240   11.2230 hn        1 15B      0.463467
     75 H182       -2.4490   -0.5850    2.2690 hn        1 15B      0.480300
     76 H373       -7.3780    2.6730   11.9150 hn        1 15B      0.463467
@<TRIPOS>BOND
     1    1    2 1   
     2    1   28 1   
     3    1   37 1   
     4    1   38 1   
     5    2    3 1   
     6    3    4 ar  
     7    3   11 ar  
     8    4    5 ar  
     9    4   49 1   
    10    5    6 1   
    11    5    9 ar  
    12    6    7 1   
    13    6    8 1   
    14    9   10 ar  
    15    9   50 1   
    16   10   11 ar  
    17   10   12 1   
    18   11   51 1   
    19   12   13 1   
    20   12   27 2   
    21   13   14 1   
    22   13   52 1   
    23   13   75 1   
    24   14   15 1   
    25   14   53 1   
    26   14   54 1   
    27   15   16 1   
    28   15   55 1   
    29   15   56 1   
    30   16   17 1   
    31   16   57 1   
    32   16   58 1   
    33   17   18 1   
    34   17   26 1   
    35   18   19 1   
    36   18   59 1   
    37   18   60 1   
    38   19   20 1   
    39   19   61 1   
    40   19   62 1   
    41   20   21 1   
    42   20   25 1   
    43   21   22 1   
    44   21   67 1   
    45   21   68 1   
    46   22   23 1   
    47   22   69 1   
    48   22   70 1   
    49   23   24 1   
    50   23   71 1   
    51   23   72 1   
    52   24   73 1   
    53   24   74 1   
    54   24   76 1   
    55   25   26 1   
    56   25   63 1   
    57   25   64 1   
    58   26   65 1   
    59   26   66 1   
    60   28   29 1   
    61   28   30 1   
    62   28   39 1   
    63   29   40 1   
    64   30   31 1   
    65   30   32 1   
    66   30   41 1   
    67   31   42 1   
    68   32   33 1   
    69   32   34 1   
    70   32   43 1   
    71   33   44 1   
    72   34   35 1   
    73   34   37 1   
    74   34   45 1   
    75   35   36 1   
    76   35   46 1   
    77   35   47 1   
    78   36   48 1   
@<TRIPOS>SUBSTRUCTURE
     1 15B         1 TEMP              0 ****  ****    0 ROOT
