@<TRIPOS>MOLECULE
15C
   34    36     1     0     0
SMALL
bcc


@<TRIPOS>ATOM
      1 C1          0.0220   -0.1000   -0.0510 ca        1 15C      0.004700
      2 C2          1.4300    0.0560   -0.0170 ca        1 15C     -0.122000
      3 C3          2.1110    0.2830    1.1690 ca        1 15C     -0.111000
      4 C4          1.4240    0.3690    2.3970 ca        1 15C     -0.066000
      5 C5          0.0570    0.2190    2.3720 ca        1 15C     -0.136600
      6 C6         -0.6480   -0.0140    1.1570 ca        1 15C     -0.146600
      7 C7         -2.1040   -0.1260    1.4860 c         1 15C      0.734100
      8 C8         -0.9360    0.2550    3.4900 c         1 15C      0.729100
      9 N9         -2.2250    0.0420    2.9040 n         1 15C     -0.434600
     10 C10        -0.6570   -0.3390   -1.3420 c3        1 15C     -0.076800
     11 O11        -3.0420   -0.3270    0.7120 o         1 15C     -0.566500
     12 O12        -0.7100    0.4340    4.6880 o         1 15C     -0.556500
     13 C13        -3.4380   -0.0020    3.6210 ca        1 15C      0.089600
     14 C14        -3.4620   -0.4020    4.9760 ca        1 15C     -0.158500
     15 C15        -4.6640   -0.4390    5.6730 ca        1 15C     -0.067500
     16 C16        -5.8720   -0.0910    5.0530 ca        1 15C     -0.190600
     17 C17        -5.8500    0.3030    3.7110 ca        1 15C     -0.067500
     18 C18        -4.6570    0.3540    2.9990 ca        1 15C     -0.158500
     19 C19        -7.1240   -0.1520    5.8340 c         1 15C      0.579700
     20 C20        -8.3900    0.2390    5.1380 c3        1 15C     -0.198100
     21 O21        -7.1320   -0.5140    7.0190 o         1 15C     -0.539100
     22 H2          1.9860   -0.0090   -0.9660 ha        1 15C      0.145000
     23 H3          3.2060    0.4000    1.1600 ha        1 15C      0.146000
     24 H4          1.9650    0.5490    3.3380 ha        1 15C      0.161000
     25 H10        -1.7570   -0.4930   -1.2020 hc        1 15C      0.064700
     26 H10A       -0.5040    0.5370   -2.0220 hc        1 15C      0.064700
     27 H10B       -0.2300   -1.2460   -1.8390 hc        1 15C      0.064700
     28 H14        -2.5300   -0.6730    5.4980 ha        1 15C      0.161500
     29 H15        -4.6760   -0.7500    6.7310 ha        1 15C      0.148500
     30 H17        -6.7830    0.5830    3.1980 ha        1 15C      0.148500
     31 H18        -4.6770    0.6600    1.9410 ha        1 15C      0.161500
     32 H20        -8.5670   -0.4320    4.2630 hc        1 15C      0.064033
     33 H20A       -9.2580    0.1560    5.8380 hc        1 15C      0.064033
     34 H20B       -8.3170    1.2940    4.7790 hc        1 15C      0.064033
@<TRIPOS>BOND
     1    1    2 ar  
     2    1    6 ar  
     3    1   10 1   
     4    2    3 ar  
     5    2   22 1   
     6    3    4 ar  
     7    3   23 1   
     8    4    5 ar  
     9    4   24 1   
    10    5    6 ar  
    11    5    8 1   
    12    6    7 1   
    13    7    9 1   
    14    7   11 2   
    15    8    9 1   
    16    8   12 2   
    17    9   13 1   
    18   10   25 1   
    19   10   26 1   
    20   10   27 1   
    21   13   14 ar  
    22   13   18 ar  
    23   14   15 ar  
    24   14   28 1   
    25   15   16 ar  
    26   15   29 1   
    27   16   17 ar  
    28   16   19 1   
    29   17   18 ar  
    30   17   30 1   
    31   18   31 1   
    32   19   20 1   
    33   19   21 2   
    34   20   32 1   
    35   20   33 1   
    36   20   34 1   
@<TRIPOS>SUBSTRUCTURE
     1 15C         1 TEMP              0 ****  ****    0 ROOT
