@<TRIPOS>MOLECULE
15C
   34    36     1     0     0
SMALL
bcc


@<TRIPOS>ATOM
      1 C1          0.0220   -0.1000   -0.0510 ca        1 15C      0.004700
      2 C2          1.4290    0.0680   -0.0190 ca        1 15C     -0.122000
      3 C3          2.1080    0.3110    1.1640 ca        1 15C     -0.111000
      4 C4          1.4210    0.4020    2.3920 ca        1 15C     -0.066000
      5 C5          0.0550    0.2400    2.3690 ca        1 15C     -0.136600
      6 C6         -0.6480   -0.0090    1.1560 ca        1 15C     -0.146600
      7 C7         -2.1030   -0.1310    1.4880 c         1 15C      0.734100
      8 C8         -0.9380    0.2780    3.4880 c         1 15C      0.729100
      9 N9         -2.2250    0.0500    2.9040 n         1 15C     -0.434600
     10 C10        -0.6560   -0.3550   -1.3390 c3        1 15C     -0.076800
     11 O11        -3.0400   -0.3460    0.7160 o         1 15C     -0.566500
     12 O12        -0.7120    0.4690    4.6830 o         1 15C     -0.556500
     13 C13        -3.4380    0.0010    3.6220 ca        1 15C      0.089600
     14 C14        -3.4580   -0.3870    4.9800 ca        1 15C     -0.158500
     15 C15        -4.6590   -0.4290    5.6780 ca        1 15C     -0.067500
     16 C16        -5.8700   -0.0970    5.0550 ca        1 15C     -0.190600
     17 C17        -5.8520    0.2860    3.7100 ca        1 15C     -0.067500
     18 C18        -4.6600    0.3410    2.9970 ca        1 15C     -0.158500
     19 C19        -7.1210   -0.1620    5.8370 c         1 15C      0.579700
     20 C20        -8.3910    0.2090    5.1380 c3        1 15C     -0.198100
     21 O21        -7.1250   -0.5110    7.0260 o         1 15C     -0.539100
     22 H2          1.9840   -0.0010   -0.9680 ha        1 15C      0.145000
     23 H3          3.2020    0.4370    1.1540 ha        1 15C      0.146000
     24 H4          1.9610    0.5950    3.3310 ha        1 15C      0.161000
     25 H10        -0.5170    0.5190   -2.0240 hc        1 15C      0.065033
     26 H10A       -1.7530   -0.5250   -1.1960 hc        1 15C      0.065033
     27 H10B       -0.2160   -1.2590   -1.8330 hc        1 15C      0.065033
     28 H14        -2.5230   -0.6450    5.5040 ha        1 15C      0.161500
     29 H15        -4.6680   -0.7300    6.7390 ha        1 15C      0.148500
     30 H17        -6.7880    0.5530    3.1950 ha        1 15C      0.148500
     31 H18        -4.6830    0.6380    1.9360 ha        1 15C      0.161500
     32 H20        -9.2580    0.1220    5.8380 hc        1 15C      0.064033
     33 H20A       -8.3290    1.2620    4.7690 hc        1 15C      0.064033
     34 H20B       -8.5600   -0.4710    4.2680 hc        1 15C      0.064033
@<TRIPOS>BOND
     1    1    2 ar  
     2    1    6 ar  
     3    1   10 1   
     4    2    3 ar  
     5    2   22 1   
     6    3    4 ar  
     7    3   23 1   
     8    4    5 ar  
     9    4   24 1   
    10    5    6 ar  
    11    5    8 1   
    12    6    7 1   
    13    7    9 1   
    14    7   11 2   
    15    8    9 1   
    16    8   12 2   
    17    9   13 1   
    18   10   25 1   
    19   10   26 1   
    20   10   27 1   
    21   13   14 ar  
    22   13   18 ar  
    23   14   15 ar  
    24   14   28 1   
    25   15   16 ar  
    26   15   29 1   
    27   16   17 ar  
    28   16   19 1   
    29   17   18 ar  
    30   17   30 1   
    31   18   31 1   
    32   19   20 1   
    33   19   21 2   
    34   20   32 1   
    35   20   33 1   
    36   20   34 1   
@<TRIPOS>SUBSTRUCTURE
     1 15C         1 TEMP              0 ****  ****    0 ROOT
