@<TRIPOS>MOLECULE
15C
   34    31     1     0     0
SMALL
bcc


@<TRIPOS>ATOM
      1 C1          2.8940   -0.1560   -2.7750 c1        1 15C      0.012000
      2 C2          4.2790   -0.1500   -2.7200 c1        1 15C     -0.116500
      3 C3          4.9240   -0.1190   -1.4940 c1        1 15C     -0.116500
      4 C4          4.1840   -0.0940   -0.3220 c1        1 15C     -0.066000
      5 C5          2.7850   -0.1000   -0.3770 c1        1 15C     -0.116000
      6 C6          2.1460   -0.1310   -1.5910 c1        1 15C     -0.126000
      7 C7          0.6450   -0.1120   -1.3330 c2        1 15C      0.371000
      8 C8          1.7210   -0.0350    0.7120 c2        1 15C      0.366000
      9 N9          0.4400   -0.0660    0.0800 n         1 15C     -0.308000
     10 C10         2.6750   -0.5590   -4.2170 c3        1 15C     -0.202000
     11 O11        -0.2260   -0.1440   -2.1800 o         1 15C     -0.287000
     12 O12         1.9260    0.0440    1.9070 o         1 15C     -0.285000
     13 C13        -0.8150   -0.0670    0.7410 c2        1 15C      0.097000
     14 C14        -1.4140    1.1320    1.0940 c2        1 15C     -0.159000
     15 C15        -2.6380    1.1300    1.7430 c1        1 15C     -0.076000
     16 C16        -3.2630   -0.0700    2.0400 c1        1 15C     -0.170000
     17 C17        -2.6640   -1.2690    1.6870 c1        1 15C     -0.059000
     18 C18        -1.4410   -1.2680    1.0380 c1        1 15C     -0.158000
     19 C19        -4.6020   -0.0720    2.7420 c2        1 15C      0.270000
     20 C20        -5.2590    1.2370    3.1210 c3        1 15C     -0.266000
     21 O21        -5.1630   -1.1230    2.9770 o         1 15C     -0.300000
     22 H2          4.8000   -0.1680   -3.5450 ha        1 15C      0.145000
     23 H3          5.9000   -0.1140   -1.4550 ha        1 15C      0.145000
     24 H4          4.6390   -0.0710    0.5420 ha        1 15C      0.161000
     25 H10         3.1590    0.0580   -4.8050 hc        1 15C      0.104333
     26 H10A        1.7180   -0.5250   -4.4240 hc        1 15C      0.104333
     27 H10B        3.0070   -1.4710   -4.3560 hc        1 15C      0.104333
     28 H14        -0.9730    1.9780    0.8850 ha        1 15C      0.161000
     29 H15        -3.0600    1.9750    1.9920 ha        1 15C      0.138000
     30 H17        -3.1050   -2.1150    1.8960 ha        1 15C      0.160000
     31 H18        -1.0190   -2.1120    0.7890 ha        1 15C      0.163000
     32 H20        -5.4430    1.7560    2.3100 hc        1 15C      0.103333
     33 H20A       -4.6590    1.7460    3.7060 hc        1 15C      0.103333
     34 H20B       -6.0990    1.0560    3.5920 hc        1 15C      0.103333
@<TRIPOS>BOND
     1    1    6 1   
     2    1   10 1   
     3    2    3 1   
     4    2   22 1   
     5    3   23 1   
     6    4    5 1   
     7    4   24 1   
     8    5    8 1   
     9    6    7 1   
    10    7    9 1   
    11    7   11 1   
    12    8    9 1   
    13    8   12 1   
    14    9   13 1   
    15   10   25 1   
    16   10   26 1   
    17   10   27 1   
    18   13   14 1   
    19   13   18 1   
    20   14   15 1   
    21   14   28 1   
    22   15   29 1   
    23   16   17 1   
    24   16   19 1   
    25   17   30 1   
    26   18   31 1   
    27   19   20 1   
    28   19   21 1   
    29   20   32 1   
    30   20   33 1   
    31   20   34 1   
@<TRIPOS>SUBSTRUCTURE
     1 15C         1 TEMP              0 ****  ****    0 ROOT
