@<TRIPOS>MOLECULE
15C
   34    36     1     0     0
SMALL
bcc


@<TRIPOS>ATOM
      1 C1         -3.9770   -1.0570    0.1480 ca        1 15C      0.004700
      2 C2         -5.1340   -0.2580   -0.0260 ca        1 15C     -0.122000
      3 C3         -5.0490    1.1010   -0.2870 ca        1 15C     -0.111000
      4 C4         -3.8000    1.7460   -0.3890 ca        1 15C     -0.066000
      5 C5         -2.6720    0.9760   -0.2200 ca        1 15C     -0.136600
      6 C6         -2.7530   -0.4200    0.0470 ca        1 15C     -0.146600
      7 C7         -1.3550   -0.9440    0.1720 c         1 15C      0.734100
      8 C8         -1.2280    1.3630   -0.2650 c         1 15C      0.729100
      9 N9         -0.4740    0.1690   -0.0240 n         1 15C     -0.434600
     10 C10        -4.1210   -2.5020    0.4230 c3        1 15C     -0.076800
     11 O11        -0.9990   -2.1010    0.4000 o         1 15C     -0.566500
     12 O12        -0.7580    2.4820   -0.4710 o         1 15C     -0.556500
     13 C13         0.9330    0.1010    0.0220 ca        1 15C      0.089600
     14 C14         1.6990    1.2280    0.3950 ca        1 15C     -0.158500
     15 C15         3.0860    1.1490    0.4340 ca        1 15C     -0.067500
     16 C16         3.7530   -0.0410    0.1150 ca        1 15C     -0.190600
     17 C17         2.9960   -1.1580   -0.2530 ca        1 15C     -0.067500
     18 C18         1.6090   -1.0970   -0.3050 ca        1 15C     -0.158500
     19 C19         5.2280   -0.0770    0.1770 c         1 15C      0.579700
     20 C20         5.9020   -1.3640   -0.1820 c3        1 15C     -0.198100
     21 O21         5.8870    0.9160    0.5140 o         1 15C     -0.539100
     22 H2         -6.1200   -0.7430    0.0500 ha        1 15C      0.145000
     23 H3         -5.9680    1.6940   -0.4180 ha        1 15C      0.146000
     24 H4         -3.7340    2.8250   -0.5950 ha        1 15C      0.161000
     25 H10        -4.6330   -3.0060   -0.4360 hc        1 15C      0.064700
     26 H10A       -3.1250   -2.9890    0.5790 hc        1 15C      0.064700
     27 H10B       -4.7420   -2.6590    1.3410 hc        1 15C      0.064700
     28 H14         1.2080    2.1830    0.6430 ha        1 15C      0.161500
     29 H15         3.6790    2.0340    0.7240 ha        1 15C      0.148500
     30 H17         3.4930   -2.1070   -0.5100 ha        1 15C      0.148500
     31 H18         1.0430   -1.9990   -0.5900 ha        1 15C      0.161500
     32 H20         5.6440   -1.6500   -1.2310 hc        1 15C      0.064033
     33 H20A        7.0110   -1.2560   -0.1010 hc        1 15C      0.064033
     34 H20B        5.5670   -2.1760    0.5080 hc        1 15C      0.064033
@<TRIPOS>BOND
     1    1    2 ar  
     2    1    6 ar  
     3    1   10 1   
     4    2    3 ar  
     5    2   22 1   
     6    3    4 ar  
     7    3   23 1   
     8    4    5 ar  
     9    4   24 1   
    10    5    6 ar  
    11    5    8 1   
    12    6    7 1   
    13    7    9 1   
    14    7   11 2   
    15    8    9 1   
    16    8   12 2   
    17    9   13 1   
    18   10   25 1   
    19   10   26 1   
    20   10   27 1   
    21   13   14 ar  
    22   13   18 ar  
    23   14   15 ar  
    24   14   28 1   
    25   15   16 ar  
    26   15   29 1   
    27   16   17 ar  
    28   16   19 1   
    29   17   18 ar  
    30   17   30 1   
    31   18   31 1   
    32   19   20 1   
    33   19   21 2   
    34   20   32 1   
    35   20   33 1   
    36   20   34 1   
@<TRIPOS>SUBSTRUCTURE
     1 15C         1 TEMP              0 ****  ****    0 ROOT
