@<TRIPOS>MOLECULE
15C
   34    36     1     0     0
SMALL
bcc


@<TRIPOS>ATOM
      1 C1          0.0230   -0.0960   -0.0500 ca        1 15C      0.004700
      2 C2          1.4320    0.0510   -0.0140 ca        1 15C     -0.122000
      3 C3          2.1130    0.2670    1.1730 ca        1 15C     -0.111000
      4 C4          1.4260    0.3480    2.4020 ca        1 15C     -0.066000
      5 C5          0.0580    0.2050    2.3750 ca        1 15C     -0.136600
      6 C6         -0.6470   -0.0150    1.1580 ca        1 15C     -0.146600
      7 C7         -2.1040   -0.1210    1.4860 c         1 15C      0.734100
      8 C8         -0.9350    0.2390    3.4930 c         1 15C      0.729100
      9 N9         -2.2250    0.0380    2.9050 n         1 15C     -0.434600
     10 C10        -0.6560   -0.3240   -1.3430 c3        1 15C     -0.076800
     11 O11        -3.0430   -0.3110    0.7100 o         1 15C     -0.566500
     12 O12        -0.7080    0.4090    4.6920 o         1 15C     -0.556500
     13 C13        -3.4390   -0.0040    3.6200 ca        1 15C      0.089600
     14 C14        -3.4660   -0.4130    4.9730 ca        1 15C     -0.158500
     15 C15        -4.6680   -0.4490    5.6680 ca        1 15C     -0.067500
     16 C16        -5.8730   -0.0890    5.0510 ca        1 15C     -0.190600
     17 C17        -5.8490    0.3140    3.7120 ca        1 15C     -0.067500
     18 C18        -4.6550    0.3630    3.0010 ca        1 15C     -0.158500
     19 C19        -7.1270   -0.1490    5.8300 c         1 15C      0.579700
     20 C20        -8.3900    0.2540    5.1360 c3        1 15C     -0.198100
     21 O21        -7.1370   -0.5180    7.0130 o         1 15C     -0.539100
     22 H2          1.9880   -0.0110   -0.9630 ha        1 15C      0.145000
     23 H3          3.2090    0.3770    1.1660 ha        1 15C      0.146000
     24 H4          1.9670    0.5190    3.3440 ha        1 15C      0.161000
     25 H10        -1.7580   -0.4640   -1.2050 hc        1 15C      0.064700
     26 H10A       -0.4910    0.5510   -2.0210 hc        1 15C      0.064700
     27 H10B       -0.2400   -1.2350   -1.8410 hc        1 15C      0.064700
     28 H14        -2.5350   -0.6930    5.4940 ha        1 15C      0.161500
     29 H15        -4.6830   -0.7670    6.7250 ha        1 15C      0.148500
     30 H17        -6.7800    0.6020    3.1990 ha        1 15C      0.148500
     31 H18        -4.6730    0.6770    1.9440 ha        1 15C      0.161500
     32 H20        -8.5700   -0.4100    4.2560 hc        1 15C      0.064033
     33 H20A       -9.2590    0.1700    5.8340 hc        1 15C      0.064033
     34 H20B       -8.3110    1.3110    4.7840 hc        1 15C      0.064033
@<TRIPOS>BOND
     1    1    2 ar  
     2    1    6 ar  
     3    1   10 1   
     4    2    3 ar  
     5    2   22 1   
     6    3    4 ar  
     7    3   23 1   
     8    4    5 ar  
     9    4   24 1   
    10    5    6 ar  
    11    5    8 1   
    12    6    7 1   
    13    7    9 1   
    14    7   11 2   
    15    8    9 1   
    16    8   12 2   
    17    9   13 1   
    18   10   25 1   
    19   10   26 1   
    20   10   27 1   
    21   13   14 ar  
    22   13   18 ar  
    23   14   15 ar  
    24   14   28 1   
    25   15   16 ar  
    26   15   29 1   
    27   16   17 ar  
    28   16   19 1   
    29   17   18 ar  
    30   17   30 1   
    31   18   31 1   
    32   19   20 1   
    33   19   21 2   
    34   20   32 1   
    35   20   33 1   
    36   20   34 1   
@<TRIPOS>SUBSTRUCTURE
     1 15C         1 TEMP              0 ****  ****    0 ROOT
