@<TRIPOS>MOLECULE
15E
   22    20     1     0     0
SMALL
bcc


@<TRIPOS>ATOM
      1 OAM        -3.3490   -0.0270   -0.0550 o         1 15E     -0.382000
      2 CAH        -2.1340   -0.0270   -0.0550 c1        1 15E      0.400000
      3 NAG        -1.4180   -0.0270    1.1870 n2        1 15E     -0.322000
      4 CAD         0.0320   -0.0270    1.1880 c2        1 15E      0.115000
      5 CAC         0.7350   -0.0270    2.4050 c1        1 15E     -0.184000
      6 CAB         2.1230   -0.0270    2.4050 c1        1 15E     -0.062000
      7 CAA         2.8180   -0.0270    1.2010 c1        1 15E     -0.205000
      8 BR          4.7280    0.0070    1.2730 br        1 15E      0.057000
      9 CAF         2.1240   -0.0270   -0.0020 c2        1 15E     -0.059000
     10 CAE         0.7190   -0.0270   -0.0030 c2        1 15E     -0.146000
     11 CAJ        -0.0420   -0.0270   -1.3170 c3        1 15E      0.023000
     12 NAI        -1.4210   -0.0270   -1.2900 n3        1 15E     -0.317000
     13 CAL        -2.1270    0.0940   -2.5200 c3        1 15E     -0.074000
     14 H1         -1.8740   -0.0290    1.9760 hn        1 15E      0.260000
     15 H2          0.2470   -0.0270    3.2500 ha        1 15E      0.144000
     16 H3          2.6110   -0.0310    3.2500 ha        1 15E      0.150000
     17 H4          2.6130   -0.0270   -0.8470 ha        1 15E      0.149000
     18 H5          0.2410   -0.8150   -1.8190 h1        1 15E      0.090500
     19 H6          0.2410    0.7610   -1.8190 h1        1 15E      0.090500
     20 H7         -2.5280    0.9830   -2.5790 h1        1 15E      0.090667
     21 H8         -2.8300   -0.5820   -2.5600 h1        1 15E      0.090667
     22 H9         -1.5090   -0.0340   -3.2650 h1        1 15E      0.090667
@<TRIPOS>BOND
     1    1    2 1   
     2    2   12 1   
     3    3    4 1   
     4    3   14 1   
     5    4    5 1   
     6    4   10 1   
     7    5   15 1   
     8    6    7 1   
     9    6   16 1   
    10    7    9 1   
    11    9   10 1   
    12    9   17 1   
    13   10   11 1   
    14   11   12 1   
    15   11   18 1   
    16   11   19 1   
    17   12   13 1   
    18   13   20 1   
    19   13   21 1   
    20   13   22 1   
@<TRIPOS>SUBSTRUCTURE
     1 15E         1 TEMP              0 ****  ****    0 ROOT
