@<TRIPOS>MOLECULE
15E
   22    23     1     0     0
SMALL
bcc


@<TRIPOS>ATOM
      1 OAM        -4.6890   -0.9110   -0.0150 o         1 15E     -0.657500
      2 CAH        -3.5150   -0.4730   -0.0030 c         1 15E      0.809500
      3 NAG        -2.4590   -1.3990   -0.1250 n         1 15E     -0.468100
      4 CAD        -1.1250   -1.0110   -0.0510 ca        1 15E      0.107600
      5 CAC        -0.0800   -1.9610   -0.0420 ca        1 15E     -0.184000
      6 CAB         1.2430   -1.5400    0.0100 ca        1 15E     -0.062000
      7 CAA         1.5560   -0.1780    0.0580 ca        1 15E     -0.064900
      8 BR          3.3420    0.3740    0.1300 br        1 15E     -0.083100
      9 CAF         0.5310    0.7700    0.0540 ca        1 15E     -0.059000
     10 CAE        -0.8010    0.3680   -0.0020 ca        1 15E     -0.153300
     11 CAJ        -1.8850    1.4000   -0.0270 c3        1 15E      0.146300
     12 NAI        -3.2230    0.8870    0.1750 n         1 15E     -0.458800
     13 CAL        -4.2900    1.8420    0.0530 c3        1 15E      0.081300
     14 H1         -2.6990   -2.3630   -0.1170 hn        1 15E      0.346500
     15 H2         -0.3060   -3.0380   -0.0770 ha        1 15E      0.144000
     16 H3          2.0460   -2.2950    0.0150 ha        1 15E      0.150000
     17 H4          0.7650    1.8470    0.0940 ha        1 15E      0.149000
     18 H5         -1.6940    2.1600    0.7870 h1        1 15E      0.051200
     19 H6         -1.8330    1.9470   -1.0180 h1        1 15E      0.051200
     20 H7         -5.2730    1.3470    0.2750 h1        1 15E      0.051367
     21 H8         -4.1150    2.6690    0.7920 h1        1 15E      0.051367
     22 H9         -4.3260    2.2810   -0.9820 h1        1 15E      0.051367
@<TRIPOS>BOND
     1    1    2 2   
     2    2    3 1   
     3    2   12 1   
     4    3    4 1   
     5    3   14 1   
     6    4    5 ar  
     7    4   10 ar  
     8    5    6 ar  
     9    5   15 1   
    10    6    7 ar  
    11    6   16 1   
    12    7    8 1   
    13    7    9 ar  
    14    9   10 ar  
    15    9   17 1   
    16   10   11 1   
    17   11   12 1   
    18   11   18 1   
    19   11   19 1   
    20   12   13 1   
    21   13   20 1   
    22   13   21 1   
    23   13   22 1   
@<TRIPOS>SUBSTRUCTURE
     1 15E         1 TEMP              0 ****  ****    0 ROOT
