@<TRIPOS>MOLECULE
15E
   22    23     1     0     0
SMALL
bcc


@<TRIPOS>ATOM
      1 OAM        -0.1060   -0.2250    0.0160 o         1 15E     -0.657500
      2 CAH         1.1440   -0.1450    0.0040 c         1 15E      0.809500
      3 NAG         1.8170   -0.0430    1.2380 n         1 15E     -0.468100
      4 CAD         3.2050   -0.0210    1.3240 ca        1 15E      0.107600
      5 CAC         3.8680   -0.0520    2.5710 ca        1 15E     -0.184000
      6 CAB         5.2550   -0.0050    2.6220 ca        1 15E     -0.062000
      7 CAA         6.0100    0.0680    1.4470 ca        1 15E     -0.064900
      8 BR          7.8780    0.1280    1.5320 br        1 15E     -0.083100
      9 CAF         5.3650    0.0950    0.2080 ca        1 15E     -0.059000
     10 CAE         3.9750    0.0530    0.1370 ca        1 15E     -0.153300
     11 CAJ         3.3010    0.1050   -1.1990 c3        1 15E      0.146300
     12 NAI         1.8880   -0.2030   -1.1840 n         1 15E     -0.458800
     13 CAL         1.1970   -0.0590   -2.4370 c3        1 15E      0.081300
     14 H1          1.2670   -0.1370    2.0620 hn        1 15E      0.346500
     15 H2          3.2910   -0.1110    3.5060 ha        1 15E      0.144000
     16 H3          5.7560   -0.0290    3.6030 ha        1 15E      0.150000
     17 H4          5.9490    0.1500   -0.7250 ha        1 15E      0.149000
     18 H5          3.7960   -0.6380   -1.8930 h1        1 15E      0.051200
     19 H6          3.4620    1.1360   -1.6390 h1        1 15E      0.051200
     20 H7          1.6930   -0.7220   -3.1950 h1        1 15E      0.051367
     21 H8          1.2360    1.0030   -2.8030 h1        1 15E      0.051367
     22 H9          0.1240   -0.3670   -2.3180 h1        1 15E      0.051367
@<TRIPOS>BOND
     1    1    2 2   
     2    2    3 1   
     3    2   12 1   
     4    3    4 1   
     5    3   14 1   
     6    4    5 ar  
     7    4   10 ar  
     8    5    6 ar  
     9    5   15 1   
    10    6    7 ar  
    11    6   16 1   
    12    7    8 1   
    13    7    9 ar  
    14    9   10 ar  
    15    9   17 1   
    16   10   11 1   
    17   11   12 1   
    18   11   18 1   
    19   11   19 1   
    20   12   13 1   
    21   13   20 1   
    22   13   21 1   
    23   13   22 1   
@<TRIPOS>SUBSTRUCTURE
     1 15E         1 TEMP              0 ****  ****    0 ROOT
