@<TRIPOS>MOLECULE
15E
   22    23     1     0     0
SMALL
bcc


@<TRIPOS>ATOM
      1 OAM        -0.1100    0.1700    0.0260 o         1 15E     -0.657500
      2 CAH         1.1420    0.1100    0.0100 c         1 15E      0.809500
      3 NAG         1.8190    0.0070    1.2420 n         1 15E     -0.468100
      4 CAD         3.2080    0.0070    1.3240 ca        1 15E      0.107600
      5 CAC         3.8730    0.0380    2.5700 ca        1 15E     -0.184000
      6 CAB         5.2610    0.0130    2.6180 ca        1 15E     -0.062000
      7 CAA         6.0140   -0.0370    1.4400 ca        1 15E     -0.064900
      8 BR          7.8820   -0.0670    1.5200 br        1 15E     -0.083100
      9 CAF         5.3670   -0.0630    0.2030 ca        1 15E     -0.059000
     10 CAE         3.9760   -0.0430    0.1350 ca        1 15E     -0.153300
     11 CAJ         3.3000   -0.0940   -1.2000 c3        1 15E      0.146300
     12 NAI         1.8820    0.1910   -1.1790 n         1 15E     -0.458800
     13 CAL         1.1900    0.0480   -2.4310 c3        1 15E      0.081300
     14 H1          1.2700    0.0850    2.0680 hn        1 15E      0.346500
     15 H2          3.2970    0.0790    3.5070 ha        1 15E      0.144000
     16 H3          5.7630    0.0360    3.5980 ha        1 15E      0.150000
     17 H4          5.9490   -0.1000   -0.7320 ha        1 15E      0.149000
     18 H5          3.4760   -1.1180   -1.6500 h1        1 15E      0.051200
     19 H6          3.7810    0.6630   -1.8890 h1        1 15E      0.051200
     20 H7          1.2450   -1.0090   -2.8080 h1        1 15E      0.051367
     21 H8          1.6740    0.7270   -3.1840 h1        1 15E      0.051367
     22 H9          0.1130    0.3380   -2.3070 h1        1 15E      0.051367
@<TRIPOS>BOND
     1    1    2 2   
     2    2    3 1   
     3    2   12 1   
     4    3    4 1   
     5    3   14 1   
     6    4    5 ar  
     7    4   10 ar  
     8    5    6 ar  
     9    5   15 1   
    10    6    7 ar  
    11    6   16 1   
    12    7    8 1   
    13    7    9 ar  
    14    9   10 ar  
    15    9   17 1   
    16   10   11 1   
    17   11   12 1   
    18   11   18 1   
    19   11   19 1   
    20   12   13 1   
    21   13   20 1   
    22   13   21 1   
    23   13   22 1   
@<TRIPOS>SUBSTRUCTURE
     1 15E         1 TEMP              0 ****  ****    0 ROOT
