@<TRIPOS>MOLECULE
15E
   22    23     1     0     0
SMALL
bcc


@<TRIPOS>ATOM
      1 OAM        -0.1100    0.1550    0.0270 o         1 15E     -0.657500
      2 CAH         1.1410    0.1010    0.0100 c         1 15E      0.809500
      3 NAG         1.8190   -0.0000    1.2420 ns        1 15E     -0.468100
      4 CAD         3.2080    0.0060    1.3240 ca        1 15E      0.107600
      5 CAC         3.8730    0.0370    2.5700 ca        1 15E     -0.184000
      6 CAB         5.2610    0.0190    2.6170 ca        1 15E     -0.062000
      7 CAA         6.0140   -0.0260    1.4400 ca        1 15E     -0.064900
      8 Br          7.8830   -0.0480    1.5200 br        1 15E     -0.083100
      9 CAF         5.3670   -0.0530    0.2030 ca        1 15E     -0.059000
     10 CAE         3.9760   -0.0390    0.1350 ca        1 15E     -0.153300
     11 CAJ         3.3000   -0.0910   -1.2000 c3        1 15E      0.146300
     12 NAI         1.8810    0.1870   -1.1790 n         1 15E     -0.458800
     13 CAL         1.1900    0.0420   -2.4310 c3        1 15E      0.081300
     14 H1          1.2700    0.0740    2.0680 hn        1 15E      0.346500
     15 H2          3.2980    0.0750    3.5070 ha        1 15E      0.144000
     16 H3          5.7640    0.0420    3.5980 ha        1 15E      0.150000
     17 H4          5.9490   -0.0860   -0.7330 ha        1 15E      0.149000
     18 H5          3.4810   -1.1150   -1.6510 h1        1 15E      0.051200
     19 H6          3.7770    0.6690   -1.8880 h1        1 15E      0.051200
     20 H7          1.6700    0.7240   -3.1830 h1        1 15E      0.051367
     21 H8          1.2490   -1.0150   -2.8080 h1        1 15E      0.051367
     22 H9          0.1110    0.3270   -2.3060 h1        1 15E      0.051367
@<TRIPOS>BOND
     1    1    2 2   
     2    2    3 1   
     3    2   12 1   
     4    3    4 1   
     5    3   14 1   
     6    4    5 ar  
     7    4   10 ar  
     8    5    6 ar  
     9    5   15 1   
    10    6    7 ar  
    11    6   16 1   
    12    7    8 1   
    13    7    9 ar  
    14    9   10 ar  
    15    9   17 1   
    16   10   11 1   
    17   11   12 1   
    18   11   18 1   
    19   11   19 1   
    20   12   13 1   
    21   13   20 1   
    22   13   21 1   
    23   13   22 1   
@<TRIPOS>SUBSTRUCTURE
     1 15E         1 TEMP              0 ****  ****    0 ROOT
