@<TRIPOS>MOLECULE
15F
   35    36     1     0     0
SMALL
bcc


@<TRIPOS>ATOM
      1 CAR         0.2760   -0.0950   -0.3220 ca        1 15F      0.036700
      2 CAK         1.2050    0.9140   -0.0180 ca        1 15F     -0.139000
      3 CAM         1.7890    0.9620    1.2500 ca        1 15F     -0.027300
      4 CAJ        -0.0360   -1.0350    0.6730 ca        1 15F     -0.139000
      5 CAL         0.5730   -0.9470    1.9270 ca        1 15F     -0.027300
      6 NAT         1.4770    0.0420    2.2130 na        1 15F      0.026900
      7 CAO         2.1250    0.0860    3.5380 c3        1 15F      0.054600
      8 CAS         2.3890    1.4690    4.0340 ca        1 15F     -0.175300
      9 CAH         1.3810    2.1830    4.6910 ca        1 15F     -0.104500
     10 CAF         1.6490    3.4490    5.2080 ca        1 15F     -0.120500
     11 CAE         2.9220    4.0050    5.0730 ca        1 15F     -0.084000
     12 CAG         3.9300    3.2920    4.4200 ca        1 15F     -0.120500
     13 CAI         3.6670    2.0270    3.8990 ca        1 15F     -0.104500
     14 CLB        -3.6890   -3.0120   -4.2290 cl        1 15F     -0.075400
     15 CAU        -2.8070   -2.7090   -2.7340 c3        1 15F      0.166900
     16 CLC        -3.9610   -2.4300   -1.4350 cl        1 15F     -0.075400
     17 CLD        -1.8060   -4.1090   -2.3670 cl        1 15F     -0.075400
     18 CAQ        -1.9190   -1.4710   -2.9130 c2        1 15F      0.609600
     19 NAA        -1.7560   -0.7020   -3.9200 n2        1 15F     -0.799100
     20 OAP        -1.2310   -1.2500   -1.7190 os        1 15F     -0.436400
     21 CAN        -0.3390   -0.1290   -1.6810 c3        1 15F      0.163700
     22 HAK         1.4830    1.6750   -0.7670 ha        1 15F      0.205500
     23 HAJ        -0.7630   -1.8450    0.4750 ha        1 15F      0.205500
     24 HAN1        0.4600   -0.2500   -2.4650 h1        1 15F      0.101700
     25 HAN2       -0.9120    0.8220   -1.8700 h1        1 15F      0.101700
     26 HAM         2.5240    1.7490    1.5270 h4        1 15F      0.211000
     27 HAL         0.3440   -1.6780    2.7310 h4        1 15F      0.211000
     28 HAO1        1.4520   -0.4550    4.2660 h1        1 15F      0.100200
     29 HAO2        3.0930   -0.4900    3.4450 h1        1 15F      0.100200
     30 HAH         0.3790    1.7430    4.8140 ha        1 15F      0.139500
     31 HAI         4.4700    1.4630    3.4010 ha        1 15F      0.139500
     32 HAF         0.8560    4.0080    5.7310 ha        1 15F      0.157500
     33 HAE         3.1350    5.0030    5.4890 ha        1 15F      0.159000
     34 HAG         4.9380    3.7270    4.3230 ha        1 15F      0.157500
     35 HAA        -2.2680   -0.8970   -4.7530 hn        1 15F      0.454400
@<TRIPOS>BOND
     1    1    2 ar  
     2    1    4 ar  
     3    1   21 1   
     4    2    3 ar  
     5    2   22 1   
     6    3    6 1   
     7    3   26 1   
     8    4    5 ar  
     9    4   23 1   
    10    5    6 2   
    11    5   27 1   
    12    6    7 1   
    13    7    8 1   
    14    7   28 1   
    15    7   29 1   
    16    8    9 ar  
    17    8   13 ar  
    18    9   10 ar  
    19    9   30 1   
    20   10   11 ar  
    21   10   32 1   
    22   11   12 ar  
    23   11   33 1   
    24   12   13 ar  
    25   12   34 1   
    26   13   31 1   
    27   14   15 1   
    28   15   16 1   
    29   15   17 1   
    30   15   18 1   
    31   18   19 2   
    32   18   20 1   
    33   19   35 1   
    34   20   21 1   
    35   21   24 1   
    36   21   25 1   
@<TRIPOS>SUBSTRUCTURE
     1 15F         1 TEMP              0 ****  ****    0 ROOT
