@<TRIPOS>MOLECULE
15F
   35    36     1     0     0
SMALL
bcc


@<TRIPOS>ATOM
      1 CAR        -0.4050   -0.0940    0.0800 ca        1 15F      0.036700
      2 CAK         0.6080   -1.0410    0.2990 ca        1 15F     -0.139000
      3 CAM         1.4070   -0.9520    1.4410 ca        1 15F     -0.027300
      4 CAJ        -0.5840    0.9240    1.0310 ca        1 15F     -0.139000
      5 CAL         0.2400    0.9720    2.1590 ca        1 15F     -0.027300
      6 NAT         1.2240    0.0450    2.3620 na        1 15F      0.026900
      7 CAO         2.0670    0.0920    3.5740 c3        1 15F      0.054600
      8 CAS         2.3850    1.4750    4.0340 ca        1 15F     -0.175300
      9 CAH         1.6510    2.0510    5.0780 ca        1 15F     -0.104500
     10 CAF         1.9910    3.3170    5.5510 ca        1 15F     -0.120500
     11 CAE         3.0600    4.0120    4.9830 ca        1 15F     -0.084000
     12 CAG         3.7920    3.4400    3.9420 ca        1 15F     -0.120500
     13 CAI         3.4580    2.1720    3.4670 ca        1 15F     -0.104500
     14 ClB        -1.9060   -3.0340   -5.2680 cl        1 15F     -0.075400
     15 CAU        -1.0280   -2.7280   -3.7700 c3        1 15F      0.166900
     16 ClC        -1.2050   -4.1210   -2.7090 cl        1 15F     -0.075400
     17 ClD         0.6700   -2.4640   -4.1470 cl        1 15F     -0.075400
     18 CAQ        -1.6080   -1.4820   -3.0900 c2        1 15F      0.609600
     19 NAA        -2.5620   -0.7090   -3.4430 n2        1 15F     -0.799100
     20 OAP        -0.8990   -1.2590   -1.9100 os        1 15F     -0.436400
     21 CAN        -1.2930   -0.1290   -1.1190 c3        1 15F      0.163700
     22 HAK         0.7810   -1.8590   -0.4260 ha        1 15F      0.205500
     23 HAJ        -1.3670    1.6910    0.9040 ha        1 15F      0.205500
     24 HAN1       -1.1720    0.8170   -1.7180 h1        1 15F      0.101700
     25 HAN2       -2.3670   -0.2410   -0.8020 h1        1 15F      0.101700
     26 HAM         2.2130   -1.6880    1.6380 h4        1 15F      0.211000
     27 HAL         0.1310    1.7660    2.9300 h4        1 15F      0.211000
     28 HAO1        3.0240   -0.4620    3.3450 h1        1 15F      0.100200
     29 HAO2        1.5070   -0.4720    4.3790 h1        1 15F      0.100200
     30 HAH         0.8180    1.4990    5.5420 ha        1 15F      0.139500
     31 HAI         4.0490    1.7190    2.6560 ha        1 15F      0.139500
     32 HAF         1.4190    3.7650    6.3790 ha        1 15F      0.157500
     33 HAE         3.3300    5.0120    5.3620 ha        1 15F      0.159000
     34 HAG         4.6410    3.9850    3.4990 ha        1 15F      0.157500
     35 HAA        -3.0410   -0.9060   -4.2950 hn        1 15F      0.454400
@<TRIPOS>BOND
     1    1    2 ar  
     2    1    4 ar  
     3    1   21 1   
     4    2    3 ar  
     5    2   22 1   
     6    3    6 1   
     7    3   26 1   
     8    4    5 ar  
     9    4   23 1   
    10    5    6 2   
    11    5   27 1   
    12    6    7 1   
    13    7    8 1   
    14    7   28 1   
    15    7   29 1   
    16    8    9 ar  
    17    8   13 ar  
    18    9   10 ar  
    19    9   30 1   
    20   10   11 ar  
    21   10   32 1   
    22   11   12 ar  
    23   11   33 1   
    24   12   13 ar  
    25   12   34 1   
    26   13   31 1   
    27   14   15 1   
    28   15   16 1   
    29   15   17 1   
    30   15   18 1   
    31   18   19 2   
    32   18   20 1   
    33   19   35 1   
    34   20   21 1   
    35   21   24 1   
    36   21   25 1   
@<TRIPOS>SUBSTRUCTURE
     1 15F         1 TEMP              0 ****  ****    0 ROOT
