@<TRIPOS>MOLECULE
15F
   35    36     1     0     0
SMALL
bcc


@<TRIPOS>ATOM
      1 CAR         0.3710   -0.4800   -0.3910 ca        1 15F      0.035700
      2 CAK         0.4980    0.6790    0.3920 ca        1 15F     -0.135000
      3 CAM         1.7420    1.3030    0.5100 ca        1 15F     -0.027300
      4 CAJ         1.5130   -0.9790   -1.0370 ca        1 15F     -0.135000
      5 CAL         2.7370   -0.3200   -0.8890 ca        1 15F     -0.027300
      6 NAT         2.8510    0.8080   -0.1250 na        1 15F      0.030900
      7 CAO         4.1440    1.5100   -0.0020 c3        1 15F      0.053600
      8 CAS         5.3260    0.6000    0.0100 ca        1 15F     -0.176300
      9 CAH         6.0650    0.3990   -1.1630 ca        1 15F     -0.104000
     10 CAF         7.2070   -0.3980   -1.1360 ca        1 15F     -0.120500
     11 CAE         7.6140   -0.9990    0.0570 ca        1 15F     -0.083000
     12 CAG         6.8790   -0.7990    1.2260 ca        1 15F     -0.120500
     13 CAI         5.7370    0.0000    1.2060 ca        1 15F     -0.104000
     14 CLB        -5.7530   -0.6210    1.1010 cl        1 15F     -0.069067
     15 CAU        -4.0900   -0.0670    1.0590 c3        1 15F      0.218900
     16 CLC        -4.0450    1.5670    0.3900 cl        1 15F     -0.069067
     17 CLD        -3.4440   -0.0590    2.7020 cl        1 15F     -0.069067
     18 CAQ        -3.2200   -0.9820    0.1890 c2        1 15F      0.593600
     19 NAA        -3.6720   -2.0100   -0.4170 n2        1 15F     -0.751100
     20 OAP        -1.9070   -0.4760    0.2030 os        1 15F     -0.473400
     21 CAN        -0.9320   -1.1910   -0.5520 c3        1 15F      0.150700
     22 HAK        -0.3790    1.1030    0.9170 ha        1 15F      0.206500
     23 HAJ         1.4660   -1.8860   -1.6630 ha        1 15F      0.206500
     24 HAN1       -1.2220   -1.2080   -1.6410 h1        1 15F      0.083700
     25 HAN2       -0.8390   -2.2450   -0.1650 h1        1 15F      0.083700
     26 HAM         1.8700    2.2210    1.1210 h4        1 15F      0.213500
     27 HAL         3.6630   -0.6880   -1.3820 h4        1 15F      0.213500
     28 HAO1        4.2070    2.2270   -0.8740 h1        1 15F      0.101200
     29 HAO2        4.1170    2.1100    0.9560 h1        1 15F      0.101200
     30 HAH         5.7590    0.8850   -2.1030 ha        1 15F      0.140000
     31 HAI         5.1690    0.1670    2.1350 ha        1 15F      0.140000
     32 HAF         7.7940   -0.5470   -2.0560 ha        1 15F      0.158000
     33 HAE         8.5210   -1.6250    0.0770 ha        1 15F      0.159000
     34 HAG         7.2040   -1.2660    2.1700 ha        1 15F      0.158000
     35 HAA        -3.0430   -2.5560   -0.9640 hn        1 15F      0.417400
@<TRIPOS>BOND
     1    1    2 ar  
     2    1    4 ar  
     3    1   21 1   
     4    2    3 ar  
     5    2   22 1   
     6    3    6 1   
     7    3   26 1   
     8    4    5 ar  
     9    4   23 1   
    10    5    6 2   
    11    5   27 1   
    12    6    7 1   
    13    7    8 1   
    14    7   28 1   
    15    7   29 1   
    16    8    9 ar  
    17    8   13 ar  
    18    9   10 ar  
    19    9   30 1   
    20   10   11 ar  
    21   10   32 1   
    22   11   12 ar  
    23   11   33 1   
    24   12   13 ar  
    25   12   34 1   
    26   13   31 1   
    27   14   15 1   
    28   15   16 1   
    29   15   17 1   
    30   15   18 1   
    31   18   19 2   
    32   18   20 1   
    33   19   35 1   
    34   20   21 1   
    35   21   24 1   
    36   21   25 1   
@<TRIPOS>SUBSTRUCTURE
     1 15F         1 TEMP              0 ****  ****    0 ROOT
