@<TRIPOS>MOLECULE
15F
   35    30     1     0     0
SMALL
bcc


@<TRIPOS>ATOM
      1 CAR        -0.7620   -0.5090   -1.1600 c1        1 15F      0.044000
      2 CAK         0.6080   -0.5410   -1.1500 c1        1 15F     -0.085000
      3 CAM         1.2960   -0.5130    0.0600 c1        1 15F     -0.085000
      4 CAJ        -1.4510   -0.4500    0.0200 c1        1 15F     -0.153000
      5 CAL        -0.7580   -0.4220    1.2320 c1        1 15F      0.005000
      6 NAT         0.6070   -0.4540    1.2390 n2        1 15F     -0.041000
      7 CAO         1.3240   -0.4950    2.4960 c3        1 15F     -0.012000
      8 CAS         1.6800    0.9320    2.9280 c2        1 15F     -0.168000
      9 CAH         0.9520    1.5560    3.9330 c2        1 15F     -0.111000
     10 CAF         1.3120    2.8220    4.3660 c1        1 15F     -0.121000
     11 CAE         2.4020    3.4680    3.7940 c1        1 15F     -0.085000
     12 CAG         3.1280    2.8470    2.7920 c1        1 15F     -0.085000
     13 CAI         2.7670    1.5770    2.3580 c1        1 15F     -0.098000
     14 CLB        -4.3480   -3.5020   -5.0560 cl        1 15F     -0.002000
     15 CAU        -2.6520   -3.0940   -4.9850 c3        1 15F      0.022000
     16 CLC        -1.7860   -4.3580   -4.1560 cl        1 15F     -0.002000
     17 CLD        -2.0250   -2.9260   -6.6060 cl        1 15F     -0.002000
     18 CAQ        -2.4770   -1.7800   -4.2340 c2        1 15F      0.113000
     19 NAA        -3.0560   -0.6910   -4.6750 n1        1 15F     -0.267000
     20 OAP        -1.6820   -1.7360   -3.0450 os        1 15F     -0.231000
     21 CAN        -1.5220   -0.4240   -2.5030 c3        1 15F      0.006000
     22 HAK         1.1020   -0.5830   -1.9930 ha        1 15F      0.184500
     23 HAJ        -2.4240   -0.4270    0.0150 ha        1 15F      0.196000
     24 HAN1       -1.0120    0.1300   -3.1330 h1        1 15F      0.141000
     25 HAN2       -2.4020   -0.0230   -2.3550 h1        1 15F      0.141000
     26 HAM         2.2750   -0.5360    0.0660 ha        1 15F      0.184500
     27 HAL        -1.2480   -0.3800    2.0730 ha        1 15F      0.216000
     28 HAO1        2.1460   -1.0180    2.3870 h1        1 15F      0.139500
     29 HAO2        0.7600   -0.9120    3.1800 h1        1 15F      0.139500
     30 HAH         0.1880    1.1020    4.3340 ha        1 15F      0.140000
     31 HAI         3.2780    1.1390    1.6520 ha        1 15F      0.139000
     32 HAF         0.8000    3.2600    5.0730 ha        1 15F      0.157000
     33 HAE         2.6560    4.3630    4.1000 ha        1 15F      0.184500
     34 HAG         3.8930    3.3010    2.3910 ha        1 15F      0.184500
     35 HAA        -3.5660   -0.7190   -5.4370 DU        1 15F      0.210000
@<TRIPOS>BOND
     1    1    4 1   
     2    1   21 1   
     3    2    3 1   
     4    2   22 1   
     5    3   26 1   
     6    4   23 1   
     7    5    6 1   
     8    5   27 1   
     9    6    7 1   
    10    7    8 1   
    11    7   28 1   
    12    7   29 1   
    13    8    9 1   
    14    8   13 1   
    15    9   10 1   
    16    9   30 1   
    17   10   32 1   
    18   11   12 1   
    19   11   33 1   
    20   12   34 1   
    21   13   31 1   
    22   14   15 1   
    23   15   16 1   
    24   15   17 1   
    25   15   18 1   
    26   18   19 1   
    27   18   20 1   
    28   20   21 1   
    29   21   24 1   
    30   21   25 1   
@<TRIPOS>SUBSTRUCTURE
     1 15F         1 TEMP              0 ****  ****    0 ROOT
