@<TRIPOS>MOLECULE
15F
   35    36     1     0     0
SMALL
bcc


@<TRIPOS>ATOM
      1 CAR        -0.4170   -0.0960    0.0930 ca        1 15F      0.036700
      2 CAK         0.6060   -1.0360    0.2920 ca        1 15F     -0.139000
      3 CAM         1.4190   -0.9490    1.4240 ca        1 15F     -0.027300
      4 CAJ        -0.5920    0.9140    1.0530 ca        1 15F     -0.139000
      5 CAL         0.2460    0.9610    2.1710 ca        1 15F     -0.027300
      6 NAT         1.2410    0.0410    2.3540 na        1 15F      0.026900
      7 CAO         2.0990    0.0860    3.5550 c3        1 15F      0.054600
      8 CAS         2.4140    1.4690    4.0190 ca        1 15F     -0.175300
      9 CAH         1.6900    2.0340    5.0760 ca        1 15F     -0.104500
     10 CAF         2.0270    3.2990    5.5520 ca        1 15F     -0.120500
     11 CAE         3.0840    4.0050    4.9730 ca        1 15F     -0.084000
     12 CAG         3.8070    3.4430    3.9200 ca        1 15F     -0.120500
     13 CAI         3.4750    2.1760    3.4420 ca        1 15F     -0.104500
     14 CLB        -1.9610   -3.0090   -5.2580 cl        1 15F     -0.075400
     15 CAU        -1.0660   -2.7050   -3.7700 c3        1 15F      0.166900
     16 CLC        -1.2150   -4.1080   -2.7180 cl        1 15F     -0.075400
     17 CLD         0.6250   -2.4220   -4.1680 cl        1 15F     -0.075400
     18 CAQ        -1.6490   -1.4700   -3.0730 c2        1 15F      0.609600
     19 NAA        -2.6150   -0.7040   -3.4070 n2        1 15F     -0.799100
     20 OAP        -0.9270   -1.2500   -1.9000 os        1 15F     -0.436400
     21 CAN        -1.3200   -0.1300   -1.0950 c3        1 15F      0.163700
     22 HAK         0.7760   -1.8470   -0.4410 ha        1 15F      0.205500
     23 HAJ        -1.3820    1.6750    0.9410 ha        1 15F      0.205500
     24 HAN1       -1.2160    0.8210   -1.6880 h1        1 15F      0.101700
     25 HAN2       -2.3890   -0.2540   -0.7650 h1        1 15F      0.101700
     26 HAM         2.2340   -1.6800    1.6050 h4        1 15F      0.211000
     27 HAL         0.1410    1.7490    2.9480 h4        1 15F      0.211000
     28 HAO1        3.0570   -0.4600    3.3110 h1        1 15F      0.100200
     29 HAO2        1.5540   -0.4860    4.3640 h1        1 15F      0.100200
     30 HAH         0.8670    1.4740    5.5470 ha        1 15F      0.139500
     31 HAI         4.0580    1.7320    2.6210 ha        1 15F      0.139500
     32 HAF         1.4640    3.7390    6.3900 ha        1 15F      0.157500
     33 HAE         3.3530    5.0040    5.3540 ha        1 15F      0.159000
     34 HAG         4.6450    3.9970    3.4690 ha        1 15F      0.157500
     35 HAA        -3.1030   -0.8990   -4.2540 hn        1 15F      0.454400
@<TRIPOS>BOND
     1    1    2 ar  
     2    1    4 ar  
     3    1   21 1   
     4    2    3 ar  
     5    2   22 1   
     6    3    6 1   
     7    3   26 1   
     8    4    5 ar  
     9    4   23 1   
    10    5    6 2   
    11    5   27 1   
    12    6    7 1   
    13    7    8 1   
    14    7   28 1   
    15    7   29 1   
    16    8    9 ar  
    17    8   13 ar  
    18    9   10 ar  
    19    9   30 1   
    20   10   11 ar  
    21   10   32 1   
    22   11   12 ar  
    23   11   33 1   
    24   12   13 ar  
    25   12   34 1   
    26   13   31 1   
    27   14   15 1   
    28   15   16 1   
    29   15   17 1   
    30   15   18 1   
    31   18   19 2   
    32   18   20 1   
    33   19   35 1   
    34   20   21 1   
    35   21   24 1   
    36   21   25 1   
@<TRIPOS>SUBSTRUCTURE
     1 15F         1 TEMP              0 ****  ****    0 ROOT
