@<TRIPOS>MOLECULE
15G
   45    37     1     0     0
SMALL
bcc


@<TRIPOS>ATOM
      1 C1         -7.0960    3.3780   -0.7230 c1        1 15G      0.024000
      2 C2         -7.0460    2.5920    0.4180 c2        1 15G     -0.111000
      3 C3         -6.0060    1.6810    0.5930 c1        1 15G     -0.188000
      4 C7          0.8380   -3.5780    2.6270 c3        1 15G     -0.074000
      5 C8          3.0670   -0.2870    0.9440 c1        1 15G     -0.089000
      6 C9          4.2550   -0.3130    0.2730 c1        1 15G     -0.199000
      7 C10         5.7130    0.1710    0.6040 c1        1 15G      0.379000
      8 C11         6.5190   -0.7160   -1.4280 c3        1 15G     -0.007000
      9 C12         5.2290   -0.9210   -2.0230 c3        1 15G     -0.113000
     10 C13         4.0000   -0.7790   -1.0600 c2        1 15G     -0.034000
     11 C14         2.0580   -0.7280    0.0600 c1        1 15G     -0.077000
     12 C15         0.5350   -0.8780    0.4020 c1        1 15G      0.017000
     13 C16        -0.3410    0.1300    0.0930 c1        1 15G     -0.121000
     14 C19        -1.7020   -0.0200    0.3690 c1        1 15G     -0.089000
     15 C20        -2.6860    1.1260    0.0530 c2        1 15G      0.025000
     16 O1          5.9320    0.7680    1.6320 o         1 15G     -0.364000
     17 N2          6.5950    0.2540   -0.4340 n3        1 15G     -0.388000
     18 N3          2.6590   -1.0250   -1.1710 n2        1 15G     -0.129000
     19 C17         0.0720   -2.0330    0.9820 c1        1 15G      0.027000
     20 C18        -1.2870   -2.1790    1.2550 c1        1 15G     -0.127000
     21 N1         -2.1600   -1.1720    0.9470 n2        1 15G     -0.113000
     22 O2          0.9750   -3.0780    1.3000 os        1 15G     -0.227000
     23 O3         -3.9890    0.5750   -0.2330 os        1 15G     -0.207000
     24 C4         -5.0160    1.5590   -0.3790 c1        1 15G      0.089000
     25 C5         -5.0660    2.3460   -1.5230 c1        1 15G     -0.173000
     26 C6         -6.1060    3.2570   -1.6960 c1        1 15G      0.090000
     27 F1         -8.1400    4.2080   -0.9240 f         1 15G     -0.091000
     28 F2         -6.1560    4.0070   -2.7930 f         1 15G     -0.091000
     29 H1         -7.7440    2.6780    1.1050 ha        1 15G      0.155000
     30 H2         -5.9710    1.1200    1.4090 ha        1 15G      0.160000
     31 H3          1.5290   -4.2500    2.7950 h1        1 15G      0.089667
     32 H4         -0.0520   -3.9890    2.7350 h1        1 15G      0.089667
     33 H5          0.9360   -2.8470    3.2600 h1        1 15G      0.089667
     34 H6          2.9300    0.0330    1.8630 DU        1 15G      0.218500
     35 H7          6.7830   -1.5730   -1.0130 h1        1 15G      0.078000
     36 H8          7.1250   -0.4300   -2.1520 h1        1 15G      0.078000
     37 H9          5.1260   -0.2390   -2.7230 hc        1 15G      0.103000
     38 H10         5.2170   -1.8490   -2.3730 hc        1 15G      0.103000
     39 H11        -0.0240    0.9230   -0.3590 ha        1 15G      0.169000
     40 H12        -2.3610    1.6310   -0.7340 h4        1 15G      0.120000
     41 H13        -2.7470    1.7300    0.8280 h4        1 15G      0.120000
     42 H14         7.3420    0.7680   -0.3570 hn        1 15G      0.232000
     43 H15         2.2410   -1.3240   -1.8990 DU        1 15G      0.218500
     44 H16        -1.6110   -2.9860    1.6600 ha        1 15G      0.165000
     45 H17        -4.3690    2.2610   -2.2060 ha        1 15G      0.171000
@<TRIPOS>BOND
     1    1    2 1   
     2    1   26 1   
     3    2    3 1   
     4    2   29 1   
     5    3   30 1   
     6    4   22 1   
     7    4   31 1   
     8    4   32 1   
     9    4   33 1   
    10    5    6 1   
    11    5   11 1   
    12    6   10 1   
    13    7   16 1   
    14    7   17 1   
    15    8    9 1   
    16    8   17 1   
    17    8   35 1   
    18    8   36 1   
    19    9   10 1   
    20    9   37 1   
    21    9   38 1   
    22   10   18 1   
    23   11   18 1   
    24   12   19 1   
    25   13   14 1   
    26   13   39 1   
    27   14   21 1   
    28   15   23 1   
    29   15   40 1   
    30   15   41 1   
    31   17   42 1   
    32   19   22 1   
    33   20   21 1   
    34   20   44 1   
    35   23   24 1   
    36   24   25 1   
    37   25   45 1   
@<TRIPOS>SUBSTRUCTURE
     1 15G         1 TEMP              0 ****  ****    0 ROOT
