@<TRIPOS>MOLECULE
15G
   45    48     1     0     0
SMALL
bcc


@<TRIPOS>ATOM
      1 C1         -6.3060    1.5460   -0.3660 ca        1 15G      0.058900
      2 C2         -5.2340    2.0380   -1.1340 ca        1 15G     -0.111000
      3 C3         -3.9870    1.4400   -1.0620 ca        1 15G     -0.149000
      4 C7          3.2360   -4.3700   -0.6670 c3        1 15G      0.107700
      5 C8          3.8860   -0.4350    0.3010 cc        1 15G     -0.064000
      6 C9          4.5080    0.8400    0.1590 cc        1 15G     -0.223600
      7 C10         5.8990    1.2510    0.3240 c         1 15G      0.742100
      8 C11         5.1070    3.5990    0.1890 c3        1 15G      0.109000
      9 C12         3.7900    3.1910   -0.4920 c3        1 15G     -0.027100
     10 C13         3.5050    1.7670   -0.2180 cd        1 15G     -0.062600
     11 C14         2.5160   -0.2580    0.0130 cd        1 15G     -0.101300
     12 C15         1.4510   -1.2380    0.0270 ca        1 15G      0.008000
     13 C16         0.1160   -0.8620    0.2360 ca        1 15G     -0.200300
     14 C19        -0.9000   -1.8360    0.2320 ca        1 15G      0.361600
     15 C20        -2.3240   -1.4110    0.4860 c3        1 15G      0.083100
     16 N2          6.1520    2.6140    0.1590 n         1 15G     -0.579900
     17 N3          2.3010    1.1000   -0.3010 na        1 15G     -0.152100
     18 C17         1.7070   -2.6190   -0.1610 ca        1 15G      0.028800
     19 C18         0.6210   -3.5250   -0.1460 ca        1 15G      0.333200
     20 N1         -0.6540   -3.1540    0.0360 nb        1 15G     -0.631000
     21 O2          3.0160   -3.0010   -0.3360 os        1 15G     -0.308900
     22 C4         -3.7910    0.3340   -0.2110 ca        1 15G      0.141100
     23 C5         -4.8350   -0.1760    0.5620 ca        1 15G     -0.222000
     24 C6         -6.1020    0.4310    0.4860 ca        1 15G      0.130900
     25 F1         -7.5240    2.1320   -0.4400 f         1 15G     -0.125900
     26 F2         -7.1220   -0.0520    1.2280 f         1 15G     -0.121900
     27 H1         -5.4030    2.9020   -1.7940 ha        1 15G      0.157000
     28 H2         -3.1450    1.8150   -1.6630 ha        1 15G      0.156000
     29 H3          2.9330   -5.0310    0.1810 h1        1 15G      0.051367
     30 H4          2.6880   -4.6460   -1.6000 h1        1 15G      0.051367
     31 H5          4.3430   -4.4170   -0.8290 h1        1 15G      0.051367
     32 H6          4.3740   -1.3690    0.5730 ha        1 15G      0.184000
     33 H7          5.4910    4.5270   -0.3230 h1        1 15G      0.038700
     34 H8          4.8710    3.8740    1.2610 h1        1 15G      0.038700
     35 H9          2.9740    3.8600   -0.1120 hc        1 15G      0.063200
     36 H10         3.8710    3.3430   -1.6020 hc        1 15G      0.063200
     37 H11        -0.1620    0.1880    0.4090 ha        1 15G      0.150000
     38 H12        -3.0650   -2.1610    0.0990 h1        1 15G      0.064700
     39 H13        -2.4760   -1.2490    1.5870 h1        1 15G      0.064700
     40 H14         7.0730    2.9330    0.3520 hn        1 15G      0.317500
     41 H15         1.4360    1.4890   -0.5710 hn        1 15G      0.300700
     42 H16         0.7780   -4.6080   -0.2940 h4        1 15G      0.031100
     43 H17        -4.7000   -1.0370    1.2320 ha        1 15G      0.162000
     44 O3         -2.5020   -0.1600   -0.1990 os        1 15G     -0.332900
     45 O1          6.8470    0.4750    0.5540 o         1 15G     -0.639500
@<TRIPOS>BOND
     1    1    2 ar  
     2    1   24 ar  
     3    1   25 1   
     4    2    3 ar  
     5    2   27 1   
     6    3   22 ar  
     7    3   28 1   
     8    4   21 1   
     9    4   29 1   
    10    4   30 1   
    11    4   31 1   
    12    5    6 1   
    13    5   11 2   
    14    5   32 1   
    15    6    7 1   
    16    6   10 2   
    17    7   16 1   
    18    7   45 2   
    19    8    9 1   
    20    8   16 1   
    21    8   33 1   
    22    8   34 1   
    23    9   10 1   
    24    9   35 1   
    25    9   36 1   
    26   10   17 1   
    27   11   12 1   
    28   11   17 1   
    29   12   13 ar  
    30   12   18 ar  
    31   13   14 ar  
    32   13   37 1   
    33   14   15 1   
    34   14   20 ar  
    35   15   38 1   
    36   15   39 1   
    37   15   44 1   
    38   16   40 1   
    39   17   41 1   
    40   18   19 ar  
    41   18   21 1   
    42   19   20 ar  
    43   19   42 1   
    44   22   23 ar  
    45   22   44 1   
    46   23   24 ar  
    47   23   43 1   
    48   24   26 1   
@<TRIPOS>SUBSTRUCTURE
     1 15G         1 TEMP              0 ****  ****    0 ROOT
