@<TRIPOS>MOLECULE
15G
   45    44     1     0     0
SMALL
bcc


@<TRIPOS>ATOM
      1 C1          2.6050   -0.3560   -0.0510 ca        1 15G      0.058000
      2 C2          3.8150   -0.4330    0.6620 ca        1 15G     -0.130000
      3 C3          3.8150   -0.5590    2.0460 ca        1 15G     -0.125000
      4 C7          4.2400    0.6640   12.3590 c1        1 15G     -0.038000
      5 C8          6.4150    0.0890    7.3820 c2        1 15G     -0.157000
      6 C9          7.2590   -0.2110    6.3030 c2        1 15G     -0.102000
      7 C10         8.6910   -0.5090    6.4220 c2        1 15G      0.300000
      8 C11         9.4010    1.1340    4.7030 c1        1 15G     -0.118000
      9 C12         6.7130   -0.5170    3.7630 c1        1 15G     -0.196000
     10 C13         6.4740   -0.2310    5.0900 c2        1 15G     -0.156000
     11 C14         5.0860    0.2700    6.8500 c2        1 15G      0.087000
     12 C15         3.8710    0.5820    7.5710 c2        1 15G     -0.231000
     13 C16         2.6160    0.7830    6.7920 c3        1 15G     -0.108000
     14 C19         2.0140   -0.5680    6.3140 c3        1 15G     -0.033000
     15 C20         1.6350   -0.3590    4.8340 c1        1 15G      0.056000
     16 N2          9.6180    0.1790    5.5680 n         1 15G     -0.219000
     17 N3          5.1500    0.0820    5.4970 na        1 15G     -0.108000
     18 C17         3.8180    0.7070    8.9270 c2        1 15G      0.096000
     19 C18        -0.0270   -1.3650    7.6910 c1        1 15G      0.122000
     20 N1          0.9050   -1.0000    7.0660 n2        1 15G     -0.321000
     21 O2          4.9080    0.5610    9.7060 oh        1 15G     -0.303000
     22 C4          2.5790   -0.6110    2.7050 ca        1 15G      0.042000
     23 C5          1.3560   -0.5340    2.0440 ca        1 15G     -0.147000
     24 C6          1.3660   -0.4040    0.6450 ca        1 15G      0.064000
     25 F1          2.6150   -0.2340   -1.3970 f         1 15G     -0.087000
     26 F2          0.2020   -0.3250   -0.0370 f         1 15G     -0.086000
     27 H1          4.7680   -0.3920    0.1110 ha        1 15G      0.167000
     28 H2          4.7770   -0.6150    2.6090 ha        1 15G      0.220000
     29 H3          3.2550    0.5110   12.8180 ha        1 15G      0.056000
     30 H4          4.6370    0.6460   10.6790 ho        1 15G      0.288000
     31 H5          5.0550    0.7670   13.0860 ha        1 15G      0.056000
     32 H6          6.6790    0.1670    8.4360 ha        1 15G      0.189000
     33 H7          7.7230   -0.7670    3.4280 ha        1 15G      0.087000
     34 H8          7.2940    1.5910    2.6180 ha        1 15G      0.005000
     35 H9          6.6310    1.4870    2.5170 ha        1 15G      0.005000
     36 H10         8.3540    1.4830    4.5710 ha        1 15G      0.061000
     37 H11         2.8190    1.4280    5.8930 hc        1 15G      0.105500
     38 H12         2.8150   -1.3690    6.4190 h1        1 15G      0.119000
     39 H13         1.8640    1.3470    7.4060 hc        1 15G      0.105500
     40 H14        10.5670   -0.1280    5.6920 hn        1 15G      0.252000
     41 H15         4.3960    0.1220    4.8520 hn        1 15G      0.267000
     42 H16         2.8640    0.9380    9.4360 h4        1 15G      0.128000
     43 H17         0.4070   -0.5620    2.6020 ha        1 15G      0.185000
     44 O3          2.6510   -0.8000    4.1000 os        1 15G     -0.167000
     45 O1          9.1430   -1.3240    7.2400 o         1 15G     -0.289000
@<TRIPOS>BOND
     1    1    2 1   
     2    1   24 1   
     3    1   25 1   
     4    2    3 1   
     5    2   27 1   
     6    3   22 1   
     7    3   28 1   
     8    4   29 1   
     9    4   31 1   
    10    5    6 1   
    11    5   11 1   
    12    5   32 1   
    13    6    7 1   
    14    6   10 1   
    15    7   16 1   
    16    7   45 1   
    17    8   16 1   
    18    8   36 1   
    19    9   10 1   
    20    9   33 1   
    21   10   17 1   
    22   11   12 1   
    23   11   17 1   
    24   12   13 1   
    25   12   18 1   
    26   13   14 1   
    27   13   37 1   
    28   13   39 1   
    29   14   15 1   
    30   14   20 1   
    31   14   38 1   
    32   15   44 1   
    33   16   40 1   
    34   17   41 1   
    35   18   21 1   
    36   18   42 1   
    37   19   20 1   
    38   21   30 1   
    39   22   23 1   
    40   22   44 1   
    41   23   24 1   
    42   23   43 1   
    43   24   26 1   
    44   34   35 1   
@<TRIPOS>SUBSTRUCTURE
     1 15G         1 TEMP              0 ****  ****    0 ROOT
