@<TRIPOS>MOLECULE
15H
   57    61     1     0     0
SMALL
bcc


@<TRIPOS>ATOM
      1 N4         -0.2320   -0.0450    0.1410 nc        1 15H     -0.592100
      2 C13         1.1430   -0.2770    0.2470 ca        1 15H      0.115400
      3 C17         1.7930   -0.8330    1.3690 ca        1 15H     -0.088000
      4 C16         3.1650   -1.0190    1.3240 ca        1 15H     -0.124000
      5 C15         3.9110   -0.6660    0.1880 ca        1 15H     -0.132000
      6 C14         3.2920   -0.1180   -0.9250 ca        1 15H     -0.083000
      7 C12         1.9110    0.0850   -0.9090 ca        1 15H     -0.109100
      8 S1          0.8980    0.7260   -2.0980 ss        1 15H     -0.039100
      9 C11        -0.5050    0.5000   -1.0530 cd        1 15H      0.568100
     10 N3         -1.7690    0.9640   -1.4290 nh        1 15H     -0.648600
     11 C8         -2.1970    0.8360   -2.7730 ca        1 15H      0.114600
     12 C9         -3.4490    0.2420   -3.0580 ca        1 15H     -0.146000
     13 C10        -3.9210    0.1790   -4.3620 ca        1 15H     -0.099000
     14 C7         -1.4370    1.3720   -3.8340 ca        1 15H     -0.146000
     15 C6         -1.9070    1.3070   -5.1420 ca        1 15H     -0.099000
     16 C5         -3.1470    0.7170   -5.3980 ca        1 15H      0.086100
     17 O1         -3.7260    0.7570   -6.6700 os        1 15H     -0.353400
     18 C3         -3.1360    0.0040   -7.6750 ca        1 15H      0.500300
     19 N2         -1.9950   -0.6820   -7.4480 nb        1 15H     -0.676000
     20 C2         -1.4950   -1.3830   -8.4870 ca        1 15H      0.285900
     21 C1         -2.1270   -1.3870   -9.7480 ca        1 15H      0.275900
     22 N1         -3.2570   -0.7000   -9.9930 nb        1 15H     -0.666000
     23 C4         -3.8140    0.0090   -8.9690 ca        1 15H      0.509900
     24 N5         -5.0670    0.6660   -9.1140 nh        1 15H     -0.713300
     25 C22        -5.8760    0.2490  -10.2550 c3        1 15H      0.182800
     26 C21        -7.2820    0.8510  -10.2220 c3        1 15H     -0.076900
     27 C18        -5.0040    2.1180   -8.9590 c3        1 15H      0.182800
     28 C19        -6.3880    2.7570   -8.9050 c3        1 15H     -0.076900
     29 C20        -7.2250    2.3640  -10.1120 c3        1 15H     -0.061700
     30 C23        -8.6310    2.9640   -9.9970 c3        1 15H      0.144100
     31 C24        -9.5070    2.6180  -11.1870 c3        1 15H     -0.131100
     32 O2         -8.4520    4.3750   -9.8990 oh        1 15H     -0.603800
     33 H1          1.2100   -1.1100    2.2590 ha        1 15H      0.150000
     34 H2          3.6830   -1.4510    2.1940 ha        1 15H      0.135000
     35 H3          4.9990   -0.8270    0.1850 ha        1 15H      0.135000
     36 H4          3.8800    0.1570   -1.8130 ha        1 15H      0.137000
     37 H5         -2.4930    0.7600   -0.7620 hn        1 15H      0.430800
     38 H6         -4.0630   -0.1800   -2.2470 ha        1 15H      0.145500
     39 H7         -4.8950   -0.2810   -4.5870 ha        1 15H      0.153500
     40 H8         -0.4710    1.8720   -3.6440 ha        1 15H      0.145500
     41 H9         -1.3060    1.7160   -5.9680 ha        1 15H      0.153500
     42 H10        -0.5700   -1.9500   -8.2910 h4        1 15H      0.037100
     43 H11        -1.7140   -1.9540  -10.5990 h4        1 15H      0.035100
     44 H12        -5.3900    0.5360  -11.2330 h1        1 15H      0.048450
     45 H13        -5.9660   -0.8730  -10.2260 h1        1 15H      0.048450
     46 H14        -7.8020    0.5480  -11.1680 hc        1 15H      0.055700
     47 H15        -7.8610    0.4300   -9.3600 hc        1 15H      0.055700
     48 H16        -4.4620    2.3500   -7.9990 h1        1 15H      0.048450
     49 H17        -4.4240    2.5840   -9.8090 h1        1 15H      0.048450
     50 H18        -6.2660    3.8710   -8.8790 hc        1 15H      0.055700
     51 H19        -6.9150    2.4480   -7.9650 hc        1 15H      0.055700
     52 H20        -6.7420    2.7850  -11.0390 hc        1 15H      0.061700
     53 H21        -9.1190    2.5950   -9.0490 h1        1 15H      0.033700
     54 H22        -9.7470    1.5280  -11.1870 hc        1 15H      0.043367
     55 H23       -10.4640    3.1910  -11.1400 hc        1 15H      0.043367
     56 H24        -8.9880    2.8750  -12.1410 hc        1 15H      0.043367
     57 H25        -9.3330    4.7660   -9.8890 ho        1 15H      0.399000
@<TRIPOS>BOND
     1    1    2 1   
     2    1    9 2   
     3    2    3 ar  
     4    2    7 ar  
     5    3    4 ar  
     6    3   33 1   
     7    4    5 ar  
     8    4   34 1   
     9    5    6 ar  
    10    5   35 1   
    11    6    7 ar  
    12    6   36 1   
    13    7    8 1   
    14    8    9 1   
    15    9   10 1   
    16   10   11 1   
    17   10   37 1   
    18   11   12 ar  
    19   11   14 ar  
    20   12   13 ar  
    21   12   38 1   
    22   13   16 ar  
    23   13   39 1   
    24   14   15 ar  
    25   14   40 1   
    26   15   16 ar  
    27   15   41 1   
    28   16   17 1   
    29   17   18 1   
    30   18   19 ar  
    31   18   23 ar  
    32   19   20 ar  
    33   20   21 ar  
    34   20   42 1   
    35   21   22 ar  
    36   21   43 1   
    37   22   23 ar  
    38   23   24 1   
    39   24   25 1   
    40   24   27 1   
    41   25   26 1   
    42   25   44 1   
    43   25   45 1   
    44   26   29 1   
    45   26   46 1   
    46   26   47 1   
    47   27   28 1   
    48   27   48 1   
    49   27   49 1   
    50   28   29 1   
    51   28   50 1   
    52   28   51 1   
    53   29   30 1   
    54   29   52 1   
    55   30   31 1   
    56   30   32 1   
    57   30   53 1   
    58   31   54 1   
    59   31   55 1   
    60   31   56 1   
    61   32   57 1   
@<TRIPOS>SUBSTRUCTURE
     1 15H         1 TEMP              0 ****  ****    0 ROOT
