@<TRIPOS>MOLECULE
15H
   57    61     1     0     0
SMALL
bcc


@<TRIPOS>ATOM
      1 N4          5.8760    1.6430    0.8210 nc        1 15H     -0.592100
      2 C13         6.8880    0.8220    0.3140 ca        1 15H      0.115400
      3 C17         8.2300    0.8170    0.7470 ca        1 15H     -0.088000
      4 C16         9.1210   -0.0660    0.1600 ca        1 15H     -0.124000
      5 C15         8.7110   -0.9490   -0.8520 ca        1 15H     -0.132000
      6 C14         7.3960   -0.9600   -1.2940 ca        1 15H     -0.083000
      7 C12         6.4760   -0.0800   -0.7230 ca        1 15H     -0.109100
      8 S1          4.8340    0.1320   -1.0530 ss        1 15H     -0.039100
      9 C11         4.7280    1.3930    0.1760 cd        1 15H      0.567100
     10 N3          3.5530    2.1280    0.3610 nh        1 15H     -0.648600
     11 C8          2.2960    1.4780    0.2900 ca        1 15H      0.114600
     12 C9          1.3610    1.6420    1.3380 ca        1 15H     -0.146000
     13 C10         0.0940    1.0790    1.2500 ca        1 15H     -0.099000
     14 C7          1.9220    0.7380   -0.8520 ca        1 15H     -0.146000
     15 C6          0.6540    0.1700   -0.9410 ca        1 15H     -0.099000
     16 C5         -0.2530    0.3480    0.1070 ca        1 15H      0.086100
     17 O1         -1.5810   -0.0770    0.0020 os        1 15H     -0.353400
     18 C3         -1.8250   -1.4430   -0.0060 ca        1 15H      0.500300
     19 N2         -0.8070   -2.3290    0.0090 nb        1 15H     -0.675000
     20 C2         -1.1430   -3.6360   -0.0050 ca        1 15H      0.285900
     21 C1         -2.4900   -4.0530   -0.0430 ca        1 15H      0.275900
     22 N1         -3.5150   -3.1810   -0.0690 nb        1 15H     -0.666000
     23 C4         -3.2290   -1.8480   -0.0380 ca        1 15H      0.509900
     24 N5         -4.2550   -0.8690    0.0540 nh        1 15H     -0.713300
     25 C22        -5.5650   -1.3560    0.4730 c3        1 15H      0.182800
     26 C21        -6.5510   -0.2190    0.7430 c3        1 15H     -0.076900
     27 C18        -4.3220    0.0380   -1.0900 c3        1 15H      0.182800
     28 C19        -5.2850    1.1990   -0.8550 c3        1 15H     -0.076900
     29 C20        -6.6660    0.7000   -0.4610 c3        1 15H     -0.061700
     30 C23        -7.5900    1.8860   -0.1650 c3        1 15H      0.144100
     31 C24        -8.9920    1.4460    0.2170 c3        1 15H     -0.131100
     32 O2         -7.6190    2.6710   -1.3550 oh        1 15H     -0.603800
     33 H1          8.5530    1.5080    1.5400 ha        1 15H      0.150000
     34 H2         10.1710   -0.0790    0.4900 ha        1 15H      0.135000
     35 H3          9.4430   -1.6370   -1.2980 ha        1 15H      0.135000
     36 H4          7.0790   -1.6530   -2.0870 ha        1 15H      0.137000
     37 H5          3.6070    2.8040    1.1020 hn        1 15H      0.430800
     38 H6          1.6280    2.2180    2.2380 ha        1 15H      0.145500
     39 H7         -0.6370    1.2070    2.0630 ha        1 15H      0.153500
     40 H8          2.6150    0.6180   -1.7020 ha        1 15H      0.145500
     41 H9          0.3690   -0.4160   -1.8270 ha        1 15H      0.153500
     42 H10        -0.3060   -4.3540    0.0190 h4        1 15H      0.037100
     43 H11        -2.7640   -5.1210   -0.0610 h4        1 15H      0.035100
     44 H12        -6.0170   -2.0420   -0.3020 h1        1 15H      0.048450
     45 H13        -5.4300   -1.9450    1.4230 h1        1 15H      0.048450
     46 H14        -7.5450   -0.6810    0.9760 hc        1 15H      0.055700
     47 H15        -6.2240    0.3700    1.6390 hc        1 15H      0.055700
     48 H16        -3.2930    0.4560   -1.2740 h1        1 15H      0.048450
     49 H17        -4.6460   -0.5170   -2.0190 h1        1 15H      0.048450
     50 H18        -4.8840    1.8710   -0.0520 hc        1 15H      0.055700
     51 H19        -5.3570    1.7980   -1.8000 hc        1 15H      0.055700
     52 H20        -7.1020    0.1250   -1.3250 hc        1 15H      0.061700
     53 H21        -7.1490    2.5070    0.6670 h1        1 15H      0.033700
     54 H22        -9.4000    0.7400   -0.5440 hc        1 15H      0.043367
     55 H23        -8.9810    0.9410    1.2120 hc        1 15H      0.043367
     56 H24        -9.6700    2.3310    0.2780 hc        1 15H      0.043367
     57 H25        -8.2460    3.3870   -1.2010 ho        1 15H      0.399000
@<TRIPOS>BOND
     1    1    2 1   
     2    1    9 2   
     3    2    3 ar  
     4    2    7 ar  
     5    3    4 ar  
     6    3   33 1   
     7    4    5 ar  
     8    4   34 1   
     9    5    6 ar  
    10    5   35 1   
    11    6    7 ar  
    12    6   36 1   
    13    7    8 1   
    14    8    9 1   
    15    9   10 1   
    16   10   11 1   
    17   10   37 1   
    18   11   12 ar  
    19   11   14 ar  
    20   12   13 ar  
    21   12   38 1   
    22   13   16 ar  
    23   13   39 1   
    24   14   15 ar  
    25   14   40 1   
    26   15   16 ar  
    27   15   41 1   
    28   16   17 1   
    29   17   18 1   
    30   18   19 ar  
    31   18   23 ar  
    32   19   20 ar  
    33   20   21 ar  
    34   20   42 1   
    35   21   22 ar  
    36   21   43 1   
    37   22   23 ar  
    38   23   24 1   
    39   24   25 1   
    40   24   27 1   
    41   25   26 1   
    42   25   44 1   
    43   25   45 1   
    44   26   29 1   
    45   26   46 1   
    46   26   47 1   
    47   27   28 1   
    48   27   48 1   
    49   27   49 1   
    50   28   29 1   
    51   28   50 1   
    52   28   51 1   
    53   29   30 1   
    54   29   52 1   
    55   30   31 1   
    56   30   32 1   
    57   30   53 1   
    58   31   54 1   
    59   31   55 1   
    60   31   56 1   
    61   32   57 1   
@<TRIPOS>SUBSTRUCTURE
     1 15H         1 TEMP              0 ****  ****    0 ROOT
