@<TRIPOS>MOLECULE
15H
   58    62     1     0     0
SMALL
bcc


@<TRIPOS>ATOM
      1 N4          0.1100    1.0650   -0.0900 nc        1 15H     -0.478100
      2 C13         1.0550    0.0830    0.1710 ca        1 15H      0.075400
      3 C17         1.8670    0.0040    1.3290 ca        1 15H     -0.050000
      4 C16         2.7630   -1.0410    1.4400 ca        1 15H     -0.115000
      5 C15         2.8780   -2.0170    0.4290 ca        1 15H     -0.071000
      6 C14         2.0960   -1.9620   -0.7120 ca        1 15H     -0.097000
      7 C12         1.1770   -0.9170   -0.8600 ca        1 15H     -0.101100
      8 S1          0.1090   -0.5920   -2.1120 ss        1 15H      0.180900
      9 C11        -0.4580    0.8080   -1.2810 cd        1 15H      0.283100
     10 N3         -1.4990    1.6860   -1.8160 n4        1 15H     -0.527400
     11 C8         -2.0000    1.2480   -3.1220 ca        1 15H     -0.120400
     12 C9         -3.1030    0.3730   -3.1850 ca        1 15H     -0.065000
     13 C10        -3.5950   -0.0180   -4.4200 ca        1 15H     -0.143500
     14 C7         -1.4010    1.7390   -4.2970 ca        1 15H     -0.065000
     15 C6         -1.8990    1.3510   -5.5340 ca        1 15H     -0.143500
     16 C5         -2.9890    0.4670   -5.5990 ca        1 15H      0.202100
     17 O1         -3.6120    0.0790   -6.7640 os        1 15H     -0.326400
     18 C3         -2.8460   -0.0280   -7.9310 ca        1 15H      0.421300
     19 N2         -1.5950   -0.5390   -7.8400 nb        1 15H     -0.654000
     20 C2         -0.9570   -0.7660   -8.9990 ca        1 15H      0.265900
     21 C1         -1.5720   -0.4820  -10.2470 ca        1 15H      0.327900
     22 N1         -2.8000    0.0380  -10.3460 nb        1 15H     -0.666000
     23 C4         -3.5000    0.2860   -9.1880 ca        1 15H      0.560900
     24 N5         -4.8390    0.7250   -9.2230 nh        1 15H     -0.721300
     25 C22        -5.5310    0.6240  -10.5060 c3        1 15H      0.189800
     26 C21        -7.0330    0.8770  -10.3840 c3        1 15H     -0.078400
     27 C18        -5.1150    1.9650   -8.5060 c3        1 15H      0.189800
     28 C19        -6.6100    2.2330   -8.3510 c3        1 15H     -0.078400
     29 C20        -7.3140    2.2020   -9.6970 c3        1 15H     -0.063700
     30 C23        -8.8220    2.4170   -9.5140 c3        1 15H      0.146100
     31 C24        -9.5400    2.5860  -10.8400 c3        1 15H     -0.134100
     32 O2         -8.9630    3.5840   -8.7060 oh        1 15H     -0.609800
     33 H1          1.7750    0.7680    2.1180 ha        1 15H      0.170000
     34 H2          3.4040   -1.1190    2.3340 ha        1 15H      0.163000
     35 H3          3.6060   -2.8360    0.5550 ha        1 15H      0.162000
     36 H4          2.1940   -2.7290   -1.4960 ha        1 15H      0.159000
     37 H5         -1.1140    2.6390   -1.9050 hn        1 15H      0.468300
     38 H6         -3.5810   -0.0130   -2.2690 ha        1 15H      0.160000
     39 H7         -4.4560   -0.7020   -4.4960 ha        1 15H      0.183500
     40 H8         -0.5440    2.4320   -4.2570 ha        1 15H      0.160000
     41 H9         -1.4350    1.7380   -6.4550 ha        1 15H      0.183500
     42 H10         0.0590   -1.1910   -8.9330 h4        1 15H      0.047100
     43 H11        -1.0450   -0.6690  -11.2010 h4        1 15H      0.051100
     44 H12        -5.1010    1.3550  -11.2520 h1        1 15H      0.048450
     45 H13        -5.3770   -0.4170  -10.9060 h1        1 15H      0.048450
     46 H14        -7.5170    0.0440   -9.8110 hc        1 15H      0.061450
     47 H15        -7.4600    0.8760  -11.4200 hc        1 15H      0.061450
     48 H16        -4.6450    2.8400   -9.0450 h1        1 15H      0.048450
     49 H17        -4.6540    1.9000   -7.4810 h1        1 15H      0.048450
     50 H18        -6.7420    3.2420   -7.8790 hc        1 15H      0.061450
     51 H19        -7.0700    1.4730   -7.6690 hc        1 15H      0.061450
     52 H20        -6.9170    3.0420  -10.3330 hc        1 15H      0.063700
     53 H21        -9.2590    1.5420   -8.9520 h1        1 15H      0.035700
     54 H22        -9.0940    3.4280  -11.4220 hc        1 15H      0.048367
     55 H23        -9.4670    1.6500  -11.4420 hc        1 15H      0.048367
     56 H24       -10.6200    2.8100  -10.6650 hc        1 15H      0.048367
     57 H25        -9.8930    3.8370   -8.7370 ho        1 15H      0.407000
     58 H32        -2.2840    1.7140   -1.1470 hn        1 15H      0.468300
@<TRIPOS>BOND
     1    1    2 1   
     2    1    9 2   
     3    2    3 ar  
     4    2    7 ar  
     5    3    4 ar  
     6    3   33 1   
     7    4    5 ar  
     8    4   34 1   
     9    5    6 ar  
    10    5   35 1   
    11    6    7 ar  
    12    6   36 1   
    13    7    8 1   
    14    8    9 1   
    15    9   10 1   
    16   10   11 1   
    17   10   37 1   
    18   10   58 1   
    19   11   12 ar  
    20   11   14 ar  
    21   12   13 ar  
    22   12   38 1   
    23   13   16 ar  
    24   13   39 1   
    25   14   15 ar  
    26   14   40 1   
    27   15   16 ar  
    28   15   41 1   
    29   16   17 1   
    30   17   18 1   
    31   18   19 ar  
    32   18   23 ar  
    33   19   20 ar  
    34   20   21 ar  
    35   20   42 1   
    36   21   22 ar  
    37   21   43 1   
    38   22   23 ar  
    39   23   24 1   
    40   24   25 1   
    41   24   27 1   
    42   25   26 1   
    43   25   44 1   
    44   25   45 1   
    45   26   29 1   
    46   26   46 1   
    47   26   47 1   
    48   27   28 1   
    49   27   48 1   
    50   27   49 1   
    51   28   29 1   
    52   28   50 1   
    53   28   51 1   
    54   29   30 1   
    55   29   52 1   
    56   30   31 1   
    57   30   32 1   
    58   30   53 1   
    59   31   54 1   
    60   31   55 1   
    61   31   56 1   
    62   32   57 1   
@<TRIPOS>SUBSTRUCTURE
     1 15H         1 TEMP              0 ****  ****    0 ROOT
