@<TRIPOS>MOLECULE
15H
   57    49     1     0     0
SMALL
bcc


@<TRIPOS>ATOM
      1 N4          2.7800   -2.3650    6.0730 n2        1 15H     -0.165000
      2 C13         3.8090   -3.5450    6.3590 c1        1 15H     -0.024000
      3 C17         3.9940   -4.3680    7.4740 c1        1 15H     -0.113833
      4 C16         4.9990   -5.3490    7.4650 c1        1 15H     -0.113833
      5 C15         5.8250   -5.5050    6.3250 c1        1 15H     -0.113833
      6 C14         5.6380   -4.6760    5.2020 c1        1 15H     -0.113833
      7 C12         4.6400   -3.7020    5.2130 c1        1 15H     -0.336000
      8 S1          4.2020   -2.6610    4.1670 s         1 15H      0.412000
      9 C11         3.0320   -1.8580    4.7720 c1        1 15H     -0.097000
     10 N3          2.0980   -0.8170    4.6260 n2        1 15H     -0.210000
     11 C8          1.6190   -0.4670    3.3320 c1        1 15H      0.033000
     12 C9          0.4530   -1.0440    2.8520 c1        1 15H     -0.113833
     13 C10        -0.1400   -0.5520    1.6980 c1        1 15H     -0.113833
     14 C7          2.1960    0.6150    2.6470 c1        1 15H     -0.136000
     15 C6          1.5970    1.1040    1.4890 c1        1 15H     -0.098000
     16 C5          0.4370    0.5270    1.0160 c1        1 15H      0.041000
     17 O1         -0.2080    1.0670   -0.1430 o         1 15H     -0.138000
     18 C3          0.2760    0.3670   -1.3400 c1        1 15H      0.067000
     19 N2          1.3620   -0.4050   -1.2600 n1        1 15H     -0.145000
     20 C2          1.9100   -0.9100   -2.3770 c1        1 15H     -0.119000
     21 C1          1.3400   -0.6270   -3.6350 c1        1 15H     -0.119000
     22 N1          0.2480    0.1470   -3.7180 n1        1 15H     -0.145000
     23 C4         -0.2990    0.6520   -2.6080 c1        1 15H      0.054000
     24 N5         -1.5010    1.4380   -2.6910 n3        1 15H     -0.204000
     25 C22        -2.5540    0.6420   -2.9860 c3        1 15H     -0.054000
     26 C21        -3.8410    1.3920   -3.1760 c3        1 15H     -0.155500
     27 C18        -1.3080    2.4840   -3.5410 c3        1 15H     -0.054000
     28 C19        -2.5290    3.3220   -3.7550 c3        1 15H     -0.155500
     29 C20        -3.7630    2.5330   -4.2220 c3        1 15H     -0.101000
     30 C23        -4.9550    3.3660   -4.1690 c3        1 15H      0.033000
     31 C24        -5.8350    3.0810   -5.3950 c3        1 15H     -0.249000
     32 O2         -4.5710    4.7270   -4.1710 oh        1 15H     -0.331000
     33 H1          3.4580   -4.2690    8.2120 ha        1 15H      0.142167
     34 H2          5.1370   -5.9620    8.2970 ha        1 15H      0.142167
     35 H3          6.5540   -6.2160    6.3160 ha        1 15H      0.142167
     36 H4          6.1910   -4.7780    4.4400 ha        1 15H      0.142167
     37 H5          1.7960   -0.3630    5.3690 hn        1 15H      0.226000
     38 H6          0.0380   -1.8150    3.3370 ha        1 15H      0.142167
     39 H7         -0.9250   -0.9400    1.3750 ha        1 15H      0.142167
     40 H8          3.0290    1.0280    2.9860 ha        1 15H      0.150000
     41 H9          2.0210    1.9000    0.9820 ha        1 15H      0.152000
     42 H10         2.6790   -1.4570   -2.3200 ha        1 15H      0.173000
     43 H11         1.7520   -1.0080   -4.4720 ha        1 15H      0.173000
     44 H12        -2.6740   -0.0080   -2.2510 h1        1 15H      0.087750
     45 H13        -2.3600    0.1640   -3.7820 h1        1 15H      0.087750
     46 H14        -4.5410    0.7470   -3.4660 hc        1 15H      0.095000
     47 H15        -4.0970    1.7580   -2.3520 hc        1 15H      0.095000
     48 H16        -1.0060    2.1160   -4.4430 h1        1 15H      0.087750
     49 H17        -0.5950    3.0550   -3.1810 h1        1 15H      0.087750
     50 H18        -2.7520    3.7800   -2.8920 hc        1 15H      0.095000
     51 H19        -2.3230    4.0140   -4.4340 hc        1 15H      0.095000
     52 H20        -3.6280    2.1800   -5.1070 hc        1 15H      0.101000
     53 H21        -5.4520    3.1710   -3.3600 h1        1 15H      0.073000
     54 H22        -5.3750    2.4670   -5.9880 hc        1 15H      0.082667
     55 H23        -6.6980    2.6700   -5.0970 hc        1 15H      0.082667
     56 H24        -6.0280    3.9740   -5.9010 hc        1 15H      0.082667
     57 H25        -5.1510    5.1810   -3.7880 ho        1 15H      0.198000
@<TRIPOS>BOND
     1    1    2 1   
     2    1    9 1   
     3    2    7 1   
     4    3    4 1   
     5    3   33 1   
     6    4   34 1   
     7    5    6 1   
     8    5   35 1   
     9    6   36 1   
    10    8    9 1   
    11   10   11 1   
    12   10   37 1   
    13   11   14 1   
    14   12   13 1   
    15   12   38 1   
    16   13   39 1   
    17   14   40 1   
    18   15   16 1   
    19   15   41 1   
    20   17   18 1   
    21   18   23 1   
    22   19   20 1   
    23   20   42 1   
    24   21   22 1   
    25   21   43 1   
    26   23   24 1   
    27   24   25 1   
    28   24   27 1   
    29   25   26 1   
    30   25   44 1   
    31   25   45 1   
    32   26   29 1   
    33   26   46 1   
    34   26   47 1   
    35   27   28 1   
    36   27   48 1   
    37   27   49 1   
    38   28   29 1   
    39   28   50 1   
    40   28   51 1   
    41   29   30 1   
    42   29   52 1   
    43   30   31 1   
    44   30   32 1   
    45   30   53 1   
    46   31   54 1   
    47   31   55 1   
    48   31   56 1   
    49   32   57 1   
@<TRIPOS>SUBSTRUCTURE
     1 15H         1 TEMP              0 ****  ****    0 ROOT
