@<TRIPOS>MOLECULE
15I
   40    43     1     0     0
SMALL
bcc


@<TRIPOS>ATOM
      1 C12        -0.0220   -0.1490   -0.1230 cc        1 15I      0.402700
      2 N3          1.2990    0.0790   -0.0800 nd        1 15I     -0.537100
      3 N4         -0.6040   -0.3400    1.1470 na        1 15I     -0.380000
      4 C13         0.4390   -0.2240    2.0730 ca        1 15I      0.436800
      5 N5          0.4270   -0.3400    3.4340 nb        1 15I     -0.719000
      6 C           1.6580   -0.1870    3.9730 ca        1 15I      0.674900
      7 C11         1.6420    0.0440    1.2800 ca        1 15I     -0.187200
      8 C1          2.8800    0.1740    1.9980 ca        1 15I      0.732200
      9 N           2.8480    0.0630    3.3640 nb        1 15I     -0.779000
     10 N1          4.1000    0.3100    1.3120 nh        1 15I     -0.730300
     11 C10         5.3240    0.1230    2.0840 c3        1 15I      0.192300
     12 C9          6.5660   -0.0240    1.2070 c3        1 15I     -0.074900
     13 C4          6.7170    1.0880    0.1760 c3        1 15I     -0.047000
     14 C3          5.4020    1.2280   -0.5910 c3        1 15I     -0.074900
     15 C2          4.1930    1.3800    0.3300 c3        1 15I      0.192300
     16 C8          7.0660    2.4350    0.8450 c3        1 15I      0.167800
     17 N2          8.3960    2.4790    1.4160 n3        1 15I     -0.820200
     18 C7          9.4500    2.1140    0.4910 c3        1 15I      0.163800
     19 C6          9.1960    0.7730   -0.1940 c3        1 15I     -0.077400
     20 C5          7.8220    0.7330   -0.8240 c3        1 15I     -0.072400
     21 H12        -0.6250   -0.1930   -1.0380 h5        1 15I      0.073800
     22 H4         -1.5490   -0.5210    1.3550 hn        1 15I      0.318700
     23 H           1.7090   -0.2690    5.0800 h5        1 15I      0.053100
     24 H101        5.2180   -0.8200    2.6920 h1        1 15I      0.053700
     25 H102        5.4770    0.9800    2.8030 h1        1 15I      0.053700
     26 H21C        3.2710    1.3950   -0.3120 h1        1 15I      0.053700
     27 H22C        4.2630    2.3780    0.8560 h1        1 15I      0.053700
     28 H91C        7.4580   -0.0410    1.8870 hc        1 15I      0.055950
     29 H92C        6.5240   -1.0080    0.6700 hc        1 15I      0.055950
     30 H31C        5.4390    2.1260   -1.2600 hc        1 15I      0.055950
     31 H32C        5.2660    0.3230   -1.2400 hc        1 15I      0.055950
     32 H81C        6.9150    3.2470    0.0710 h1        1 15I      0.029200
     33 H82C        6.3390    2.6250    1.6840 h1        1 15I      0.029200
     34 H51C        7.6300   -0.2880   -1.2450 hc        1 15I      0.042200
     35 H52C        7.7820    1.4620   -1.6760 hc        1 15I      0.042200
     36 H2          8.5720    3.3930    1.7900 hn        1 15I      0.362800
     37 H71C        9.5980    2.8960   -0.3120 h1        1 15I      0.026200
     38 H72C       10.4070    2.0510    1.0820 h1        1 15I      0.026200
     39 H61C        9.9790    0.6190   -0.9810 hc        1 15I      0.047200
     40 H62C        9.2960   -0.0580    0.5520 hc        1 15I      0.047200
@<TRIPOS>BOND
     1    1    2 2   
     2    1    3 1   
     3    1   21 1   
     4    2    7 1   
     5    3    4 1   
     6    3   22 1   
     7    4    5 ar  
     8    4    7 ar  
     9    5    6 ar  
    10    6    9 ar  
    11    6   23 1   
    12    7    8 ar  
    13    8    9 ar  
    14    8   10 1   
    15   10   11 1   
    16   10   15 1   
    17   11   12 1   
    18   11   24 1   
    19   11   25 1   
    20   12   13 1   
    21   12   28 1   
    22   12   29 1   
    23   13   14 1   
    24   13   16 1   
    25   13   20 1   
    26   14   15 1   
    27   14   30 1   
    28   14   31 1   
    29   15   26 1   
    30   15   27 1   
    31   16   17 1   
    32   16   32 1   
    33   16   33 1   
    34   17   18 1   
    35   17   36 1   
    36   18   19 1   
    37   18   37 1   
    38   18   38 1   
    39   19   20 1   
    40   19   39 1   
    41   19   40 1   
    42   20   34 1   
    43   20   35 1   
@<TRIPOS>SUBSTRUCTURE
     1 15I         1 TEMP              0 ****  ****    0 ROOT
