@<TRIPOS>MOLECULE
15I
   40    43     1     0     0
SMALL
bcc


@<TRIPOS>ATOM
      1 C12        -0.0220   -0.1470   -0.1240 cc        1 15I      0.402700
      2 N3          1.2990    0.0810   -0.0800 nd        1 15I     -0.537100
      3 N4         -0.6030   -0.3440    1.1460 na        1 15I     -0.380000
      4 C13         0.4400   -0.2310    2.0720 ca        1 15I      0.436800
      5 N5          0.4290   -0.3510    3.4330 nb        1 15I     -0.719000
      6 C           1.6600   -0.2000    3.9710 ca        1 15I      0.674900
      7 C11         1.6430    0.0420    1.2800 ca        1 15I     -0.187200
      8 C1          2.8810    0.1700    1.9970 ca        1 15I      0.732200
      9 N           2.8500    0.0530    3.3620 nb        1 15I     -0.779000
     10 N1          4.1010    0.3090    1.3110 nh        1 15I     -0.730300
     11 C10         5.3240    0.1190    2.0810 c3        1 15I      0.192300
     12 C9          6.5660   -0.0250    1.2030 c3        1 15I     -0.074900
     13 C4          6.7160    1.0920    0.1760 c3        1 15I     -0.047000
     14 C3          5.4010    1.2350   -0.5890 c3        1 15I     -0.074900
     15 C2          4.1920    1.3830    0.3330 c3        1 15I      0.192300
     16 C8          7.0660    2.4360    0.8500 c3        1 15I      0.167800
     17 N2          8.3970    2.4770    1.4210 n3        1 15I     -0.820200
     18 C7          9.4500    2.1160    0.4930 c3        1 15I      0.163800
     19 C6          9.1950    0.7780   -0.1980 c3        1 15I     -0.077400
     20 C5          7.8200    0.7410   -0.8260 c3        1 15I     -0.072400
     21 H12        -0.6260   -0.1880   -1.0380 h5        1 15I      0.073800
     22 H4         -1.5480   -0.5260    1.3530 hn        1 15I      0.318700
     23 H           1.7120   -0.2860    5.0780 h5        1 15I      0.053100
     24 H101        5.2200   -0.8270    2.6850 h1        1 15I      0.053700
     25 H102        5.4790    0.9730    2.8040 h1        1 15I      0.053700
     26 H21C        3.2700    1.4010   -0.3070 h1        1 15I      0.053700
     27 H22C        4.2630    2.3790    0.8630 h1        1 15I      0.053700
     28 H91C        7.4580   -0.0450    1.8810 hc        1 15I      0.055950
     29 H92C        6.5240   -1.0070    0.6610 hc        1 15I      0.055950
     30 H31C        5.4370    2.1360   -1.2540 hc        1 15I      0.055950
     31 H32C        5.2640    0.3330   -1.2420 hc        1 15I      0.055950
     32 H81C        6.3400    2.6230    1.6910 h1        1 15I      0.029200
     33 H82C        6.9140    3.2510    0.0800 h1        1 15I      0.029200
     34 H51C        7.6280   -0.2780   -1.2520 hc        1 15I      0.042200
     35 H52C        7.7790    1.4740   -1.6750 hc        1 15I      0.042200
     36 H2          8.5730    3.3890    1.7990 hn        1 15I      0.362800
     37 H71C       10.4070    2.0500    1.0830 h1        1 15I      0.026200
     38 H72C        9.5970    2.9020   -0.3070 h1        1 15I      0.026200
     39 H61C        9.9770    0.6280   -0.9860 hc        1 15I      0.047200
     40 H62C        9.2950   -0.0560    0.5450 hc        1 15I      0.047200
@<TRIPOS>BOND
     1    1    2 2   
     2    1    3 1   
     3    1   21 1   
     4    2    7 1   
     5    3    4 1   
     6    3   22 1   
     7    4    5 ar  
     8    4    7 ar  
     9    5    6 ar  
    10    6    9 ar  
    11    6   23 1   
    12    7    8 ar  
    13    8    9 ar  
    14    8   10 1   
    15   10   11 1   
    16   10   15 1   
    17   11   12 1   
    18   11   24 1   
    19   11   25 1   
    20   12   13 1   
    21   12   28 1   
    22   12   29 1   
    23   13   14 1   
    24   13   16 1   
    25   13   20 1   
    26   14   15 1   
    27   14   30 1   
    28   14   31 1   
    29   15   26 1   
    30   15   27 1   
    31   16   17 1   
    32   16   32 1   
    33   16   33 1   
    34   17   18 1   
    35   17   36 1   
    36   18   19 1   
    37   18   37 1   
    38   18   38 1   
    39   19   20 1   
    40   19   39 1   
    41   19   40 1   
    42   20   34 1   
    43   20   35 1   
@<TRIPOS>SUBSTRUCTURE
     1 15I         1 TEMP              0 ****  ****    0 ROOT
