@<TRIPOS>MOLECULE
15I
   40    43     1     0     0
SMALL
bcc


@<TRIPOS>ATOM
      1 C12        -0.0210   -0.1510   -0.1270 cc        1 15I      0.402700
      2 N3          1.3000    0.0760   -0.0820 nd        1 15I     -0.537100
      3 N4         -0.6040   -0.3400    1.1440 na        1 15I     -0.380000
      4 C13         0.4380   -0.2230    2.0710 ca        1 15I      0.436800
      5 N5          0.4250   -0.3360    3.4320 nb        1 15I     -0.719000
      6 C           1.6550   -0.1810    3.9710 ca        1 15I      0.674900
      7 C11         1.6420    0.0450    1.2790 ca        1 15I     -0.187200
      8 C1          2.8790    0.1760    1.9970 ca        1 15I      0.732200
      9 N           2.8460    0.0680    3.3630 nb        1 15I     -0.779000
     10 N1          4.1000    0.3110    1.3120 nh        1 15I     -0.730300
     11 C10         5.3220    0.1250    2.0850 c3        1 15I      0.192300
     12 C9          6.5650   -0.0240    1.2090 c3        1 15I     -0.074900
     13 C4          6.7170    1.0870    0.1770 c3        1 15I     -0.047000
     14 C3          5.4030    1.2270   -0.5910 c3        1 15I     -0.074900
     15 C2          4.1940    1.3800    0.3290 c3        1 15I      0.192300
     16 C8          7.0660    2.4340    0.8450 c3        1 15I      0.167800
     17 N2          8.3970    2.4780    1.4170 n7        1 15I     -0.820200
     18 C7          9.4510    2.1120    0.4930 c3        1 15I      0.163800
     19 C6          9.1970    0.7700   -0.1910 c3        1 15I     -0.077400
     20 C5          7.8230    0.7300   -0.8220 c3        1 15I     -0.072400
     21 H12        -0.6230   -0.1970   -1.0420 h5        1 15I      0.073800
     22 H4         -1.5500   -0.5210    1.3510 hn        1 15I      0.318700
     23 H           1.7050   -0.2610    5.0790 h5        1 15I      0.053100
     24 H101        5.2160   -0.8180    2.6940 h1        1 15I      0.053700
     25 H102        5.4760    0.9820    2.8030 h1        1 15I      0.053700
     26 H21C        3.2720    1.3950   -0.3140 h1        1 15I      0.053700
     27 H22C        4.2640    2.3790    0.8540 h1        1 15I      0.053700
     28 H91C        7.4570   -0.0410    1.8890 hc        1 15I      0.055950
     29 H92C        6.5230   -1.0090    0.6730 hc        1 15I      0.055950
     30 H31C        5.2680    0.3210   -1.2390 hc        1 15I      0.055950
     31 H32C        5.4410    2.1240   -1.2610 hc        1 15I      0.055950
     32 H81C        6.3390    2.6260    1.6830 h1        1 15I      0.029200
     33 H82C        6.9170    3.2450    0.0700 h1        1 15I      0.029200
     34 H51C        7.6310   -0.2910   -1.2420 hc        1 15I      0.042200
     35 H52C        7.7830    1.4590   -1.6740 hc        1 15I      0.042200
     36 H2          8.5730    3.3930    1.7900 hn        1 15I      0.362800
     37 H71C       10.4070    2.0490    1.0850 h1        1 15I      0.026200
     38 H72C        9.6000    2.8930   -0.3110 h1        1 15I      0.026200
     39 H61C        9.9800    0.6160   -0.9770 hc        1 15I      0.047200
     40 H62C        9.2960   -0.0600    0.5560 hc        1 15I      0.047200
@<TRIPOS>BOND
     1    1    2 2   
     2    1    3 1   
     3    1   21 1   
     4    2    7 1   
     5    3    4 1   
     6    3   22 1   
     7    4    5 ar  
     8    4    7 ar  
     9    5    6 ar  
    10    6    9 ar  
    11    6   23 1   
    12    7    8 ar  
    13    8    9 ar  
    14    8   10 1   
    15   10   11 1   
    16   10   15 1   
    17   11   12 1   
    18   11   24 1   
    19   11   25 1   
    20   12   13 1   
    21   12   28 1   
    22   12   29 1   
    23   13   14 1   
    24   13   16 1   
    25   13   20 1   
    26   14   15 1   
    27   14   30 1   
    28   14   31 1   
    29   15   26 1   
    30   15   27 1   
    31   16   17 1   
    32   16   32 1   
    33   16   33 1   
    34   17   18 1   
    35   17   36 1   
    36   18   19 1   
    37   18   37 1   
    38   18   38 1   
    39   19   20 1   
    40   19   39 1   
    41   19   40 1   
    42   20   34 1   
    43   20   35 1   
@<TRIPOS>SUBSTRUCTURE
     1 15I         1 TEMP              0 ****  ****    0 ROOT
