@<TRIPOS>MOLECULE
15I
   40    43     1     0     0
SMALL
bcc


@<TRIPOS>ATOM
      1 C12         4.1000   -2.0820    0.0340 cc        1 15I      0.402700
      2 N3          2.7930   -1.7840    0.0080 nd        1 15I     -0.537100
      3 N4          4.9380   -0.9490    0.0110 na        1 15I     -0.380000
      4 C13         4.0880    0.1620   -0.0340 ca        1 15I      0.436800
      5 N5          4.3800    1.4950   -0.0870 nb        1 15I     -0.719000
      6 C           3.2680    2.2620   -0.1470 ca        1 15I      0.674900
      7 C11         2.7280   -0.3830   -0.0330 ca        1 15I     -0.187200
      8 C1          1.6470    0.5610   -0.1100 ca        1 15I      0.732200
      9 N           1.9590    1.8950   -0.1540 nb        1 15I     -0.779000
     10 N1          0.3170    0.1250   -0.2370 nh        1 15I     -0.730300
     11 C10        -0.6780    1.1200   -0.6210 c3        1 15I      0.192300
     12 C9         -2.0110    0.5020   -1.0390 c3        1 15I     -0.074900
     13 C4         -2.5690   -0.4850   -0.0200 c3        1 15I     -0.047000
     14 C3         -1.4760   -1.4930    0.3350 c3        1 15I     -0.074900
     15 C2         -0.1680   -0.8260    0.7530 c3        1 15I      0.192300
     16 C8         -3.0410    0.2330    1.2620 c3        1 15I      0.167800
     17 N2         -4.2210    1.0520    1.0750 n3        1 15I     -0.820200
     18 C7         -5.3390    0.3500    0.4780 c3        1 15I      0.163800
     19 C6         -4.9630   -0.3650   -0.8180 c3        1 15I     -0.077400
     20 C5         -3.7520   -1.2500   -0.6210 c3        1 15I     -0.072400
     21 H12         4.5160   -3.0970    0.0660 h5        1 15I      0.073800
     22 H4          5.9230   -0.9280    0.0210 hn        1 15I      0.318700
     23 H           3.4450    3.3590   -0.1900 h5        1 15I      0.053100
     24 H101       -0.8570    1.8520    0.2200 h1        1 15I      0.053700
     25 H102       -0.2770    1.7000   -1.5000 h1        1 15I      0.053700
     26 H21C        0.5950   -1.6340    0.9160 h1        1 15I      0.053700
     27 H22C       -0.3310   -0.3000    1.7410 h1        1 15I      0.053700
     28 H91C       -2.7370    1.3420   -1.1970 hc        1 15I      0.055950
     29 H92C       -1.8810   -0.0290   -2.0190 hc        1 15I      0.055950
     30 H31C       -1.8130   -2.1460    1.1810 hc        1 15I      0.055950
     31 H32C       -1.2920   -2.1520   -0.5540 hc        1 15I      0.055950
     32 H81C       -3.2000   -0.5590    2.0550 h1        1 15I      0.029200
     33 H82C       -2.2190    0.9140    1.6230 h1        1 15I      0.029200
     34 H51C       -3.4480   -1.6960   -1.6040 hc        1 15I      0.042200
     35 H52C       -4.0170   -2.0960    0.0660 hc        1 15I      0.042200
     36 H2         -4.4980    1.4490    1.9540 hn        1 15I      0.362800
     37 H71C       -5.7870   -0.4130    1.1830 h1        1 15I      0.026200
     38 H72C       -6.1360    1.1160    0.2590 h1        1 15I      0.026200
     39 H61C       -5.8360   -0.9850   -1.1500 hc        1 15I      0.047200
     40 H62C       -4.7550    0.3900   -1.6200 hc        1 15I      0.047200
@<TRIPOS>BOND
     1    1    2 2   
     2    1    3 1   
     3    1   21 1   
     4    2    7 1   
     5    3    4 1   
     6    3   22 1   
     7    4    5 ar  
     8    4    7 ar  
     9    5    6 ar  
    10    6    9 ar  
    11    6   23 1   
    12    7    8 ar  
    13    8    9 ar  
    14    8   10 1   
    15   10   11 1   
    16   10   15 1   
    17   11   12 1   
    18   11   24 1   
    19   11   25 1   
    20   12   13 1   
    21   12   28 1   
    22   12   29 1   
    23   13   14 1   
    24   13   16 1   
    25   13   20 1   
    26   14   15 1   
    27   14   30 1   
    28   14   31 1   
    29   15   26 1   
    30   15   27 1   
    31   16   17 1   
    32   16   32 1   
    33   16   33 1   
    34   17   18 1   
    35   17   36 1   
    36   18   19 1   
    37   18   37 1   
    38   18   38 1   
    39   19   20 1   
    40   19   39 1   
    41   19   40 1   
    42   20   34 1   
    43   20   35 1   
@<TRIPOS>SUBSTRUCTURE
     1 15I         1 TEMP              0 ****  ****    0 ROOT
