@<TRIPOS>MOLECULE
15I
   40    38     1     0     0
SMALL
bcc


@<TRIPOS>ATOM
      1 C12        -4.5140   -3.2400    0.2660 c1        1 15I      0.387800
      2 N3         -3.3190   -2.6630   -0.0010 ne        1 15I     -0.441400
      3 N4         -5.1640   -2.4630    1.1640 nf        1 15I     -0.441400
      4 C13        -4.3660   -1.3990    1.4540 ch        1 15I     -0.023500
      5 N5         -4.5570   -0.3030    2.2440 n1        1 15I     -0.518800
      6 C          -3.5980    0.6690    2.3090 c1        1 15I      0.395300
      7 C11        -3.2280   -1.5230    0.7350 cg        1 15I     -0.023500
      8 C1         -2.2530   -0.5320    0.8020 c1        1 15I      0.592600
      9 N          -2.4440    0.5450    1.5800 n1        1 15I     -0.578800
     10 N1         -0.9980   -0.6510    0.0890 n3        1 15I     -0.593200
     11 C10         0.1110   -0.6180    1.0430 c3        1 15I      0.192300
     12 C9          1.4640   -0.5920    0.3590 c3        1 15I     -0.074900
     13 C4          1.5570    0.4720   -0.6570 c3        1 15I     -0.047000
     14 C3          0.4430    0.4360   -1.6120 c3        1 15I     -0.074900
     15 C2         -0.9090    0.4060   -0.9220 c3        1 15I      0.192300
     16 C8          1.7230    1.9020   -0.2140 c3        1 15I      0.167800
     17 N2          3.0630    2.1730    0.3100 n3        1 15I     -0.820200
     18 C7          4.1230    1.7490   -0.6000 c3        1 15I      0.163800
     19 C6          3.9610    0.3110   -1.0460 c3        1 15I     -0.077400
     20 C5          2.6180    0.0380   -1.5770 c3        1 15I     -0.072400
     21 H12        -4.8510   -4.0680   -0.1250 DU        1 15I      0.236000
     22 H4         -5.9920   -2.6240    1.5140 DU        1 15I      0.236000
     23 H          -3.7360    1.4520    2.8740 ha        1 15I      0.132500
     24 H101        0.0610   -1.4120    1.6140 h1        1 15I      0.053700
     25 H102        0.0240    0.1820    1.6030 h1        1 15I      0.053700
     26 H21C       -1.0620    1.2720   -0.4880 h1        1 15I      0.053700
     27 H22C       -1.6040    0.2600   -1.5940 h1        1 15I      0.053700
     28 H91C        1.6170   -1.4550   -0.0720 hc        1 15I      0.055950
     29 H92C        2.1600   -0.4460    1.0350 hc        1 15I      0.055950
     30 H31C        0.4900    1.2300   -2.1840 hc        1 15I      0.055950
     31 H32C        0.5310   -0.3620   -2.1700 hc        1 15I      0.055950
     32 H81C        1.0670    2.0950    0.4820 h1        1 15I      0.029200
     33 H82C        1.5580    2.4890   -0.9760 h1        1 15I      0.029200
     34 H51C        2.5280   -0.9180   -1.7340 hc        1 15I      0.042200
     35 H52C        2.5120    0.5100   -2.4280 hc        1 15I      0.042200
     36 H2          3.1470    3.0620    0.4820 hn        1 15I      0.362800
     37 H71C        4.1130    2.3280   -1.3880 h1        1 15I      0.026200
     38 H72C        4.9820    1.8450   -0.1490 h1        1 15I      0.026200
     39 H61C        4.1250   -0.2770   -0.2850 hc        1 15I      0.047200
     40 H62C        4.6200    0.1200   -1.7400 hc        1 15I      0.047200
@<TRIPOS>BOND
     1    1    2 2   
     2    1    3 2   
     3    2    7 1   
     4    3    4 1   
     5    4    7 3   
     6    5    6 3   
     7    6   23 1   
     8    8    9 3   
     9    8   10 1   
    10   10   11 1   
    11   10   15 1   
    12   11   12 1   
    13   11   24 1   
    14   11   25 1   
    15   12   13 1   
    16   12   28 1   
    17   12   29 1   
    18   13   14 1   
    19   13   16 1   
    20   13   20 1   
    21   14   15 1   
    22   14   30 1   
    23   14   31 1   
    24   15   26 1   
    25   15   27 1   
    26   16   17 1   
    27   16   32 1   
    28   16   33 1   
    29   17   18 1   
    30   17   36 1   
    31   18   19 1   
    32   18   37 1   
    33   18   38 1   
    34   19   20 1   
    35   19   39 1   
    36   19   40 1   
    37   20   34 1   
    38   20   35 1   
@<TRIPOS>SUBSTRUCTURE
     1 15I         1 TEMP              0 ****  ****    0 ROOT
