@<TRIPOS>MOLECULE
15J
   57    61     1     0     0
SMALL
bcc


@<TRIPOS>ATOM
      1 O2          2.5980    0.7880   -0.5730 oh        1 15J     -0.600800
      2 C24         3.5180   -0.1170    0.0150 c3        1 15J      0.137400
      3 C21         3.3060   -0.0670    1.5250 c3        1 15J     -0.072700
      4 C22         4.2050   -1.0790    2.2140 c3        1 15J     -0.075400
      5 C23         4.0460   -1.0010    3.7320 c3        1 15J      0.172300
      6 C20         3.5810    1.3240    2.0680 c3        1 15J     -0.075400
      7 C19         3.4370    1.3530    3.5870 c3        1 15J      0.172300
      8 N2          4.2770    0.3490    4.2480 nh        1 15J     -0.734300
      9 C4          4.2710    0.4690    5.6710 ca        1 15J      0.620200
     10 N1          3.7120   -0.4970    6.4670 nb        1 15J     -0.690000
     11 C3          3.7910   -0.3650    7.7960 ca        1 15J      0.441200
     12 C2          4.4130    0.7160    8.4540 ca        1 15J     -0.256300
     13 C1          4.9960    1.7070    7.6740 ca        1 15J     -0.067000
     14 C5          4.9350    1.5820    6.2780 ca        1 15J     -0.096200
     15 O1          5.4070    2.6620    5.5230 os        1 15J     -0.207200
     16 C6          6.6090    2.4980    4.8840 ca        1 15J      0.211100
     17 C11         7.4100    1.3450    4.9670 ca        1 15J     -0.159000
     18 C10         8.6170    1.2930    4.2870 ca        1 15J     -0.062000
     19 C7          7.0260    3.6090    4.1160 ca        1 15J     -0.159000
     20 C8          8.2310    3.5590    3.4370 ca        1 15J     -0.062000
     21 C9          9.0300    2.3990    3.5190 ca        1 15J     -0.139400
     22 N3         10.2800    2.3290    2.7610 n4        1 15J     -0.529400
     23 C12        11.4110    2.9940    3.4220 cc        1 15J      0.382700
     24 N5         11.4710    3.2240    4.8180 na        1 15J     -0.233300
     25 C14        12.6970    3.8560    5.0340 ca        1 15J     -0.039200
     26 C18        13.3140    4.3360    6.2010 ca        1 15J     -0.136000
     27 C17        14.5690    4.9020    6.0620 ca        1 15J     -0.067000
     28 C16        15.2140    4.9990    4.8080 ca        1 15J     -0.132000
     29 C15        14.6300    4.5350    3.6460 ca        1 15J     -0.047000
     30 C13        13.3500    3.9510    3.7370 ca        1 15J      0.056400
     31 N4         12.5250    3.4050    2.7490 nd        1 15J     -0.489100
     32 H1          2.5850    0.5970   -1.5180 ho        1 15J      0.408000
     33 H2          4.5660    0.1920   -0.2480 h1        1 15J      0.023200
     34 H3          3.3400   -1.1600   -0.3610 h1        1 15J      0.023200
     35 H4          2.2290   -0.3250    1.7340 hc        1 15J      0.073700
     36 H5          3.9360   -2.1180    1.8910 hc        1 15J      0.053200
     37 H6          5.2720   -0.8960    1.9260 hc        1 15J      0.053200
     38 H7          4.7970   -1.6870    4.2120 h1        1 15J      0.053950
     39 H8          3.0140   -1.3740    3.9980 h1        1 15J      0.053950
     40 H9          4.6100    1.6500    1.7700 hc        1 15J      0.053200
     41 H10         2.8490    2.0500    1.6250 hc        1 15J      0.053200
     42 H11         2.3490    1.1960    3.8480 h1        1 15J      0.053950
     43 H12         3.7400    2.3690    3.9670 h1        1 15J      0.053950
     44 H13         3.3120   -1.1770    8.3770 h4        1 15J      0.042100
     45 H14         4.4280    0.7700    9.5510 ha        1 15J      0.164000
     46 H15         5.4860    2.5830    8.1260 ha        1 15J      0.158000
     47 H16         7.0640    0.4760    5.5530 ha        1 15J      0.185000
     48 H17         9.2320    0.3790    4.3530 ha        1 15J      0.160000
     49 H18         6.3820    4.5020    4.0610 ha        1 15J      0.185000
     50 H19         8.5490    4.4290    2.8380 ha        1 15J      0.160000
     51 H20        10.5380    1.3410    2.6150 hn        1 15J      0.475800
     52 H21        10.7360    3.1040    5.4670 hn        1 15J      0.330700
     53 H22        12.8210    4.2630    7.1800 ha        1 15J      0.156000
     54 H23        15.0870    5.2920    6.9540 ha        1 15J      0.159000
     55 H24        16.2150    5.4610    4.7660 ha        1 15J      0.161000
     56 H25        15.1370    4.6110    2.6710 ha        1 15J      0.169000
     57 H32        10.1420    2.7790    1.8420 hn        1 15J      0.475800
@<TRIPOS>BOND
     1    1    2 1   
     2    1   32 1   
     3    2    3 1   
     4    2   33 1   
     5    2   34 1   
     6    3    4 1   
     7    3    6 1   
     8    3   35 1   
     9    4    5 1   
    10    4   36 1   
    11    4   37 1   
    12    5    8 1   
    13    5   38 1   
    14    5   39 1   
    15    6    7 1   
    16    6   40 1   
    17    6   41 1   
    18    7    8 1   
    19    7   42 1   
    20    7   43 1   
    21    8    9 1   
    22    9   10 ar  
    23    9   14 ar  
    24   10   11 ar  
    25   11   12 ar  
    26   11   44 1   
    27   12   13 ar  
    28   12   45 1   
    29   13   14 ar  
    30   13   46 1   
    31   14   15 1   
    32   15   16 1   
    33   16   17 ar  
    34   16   19 ar  
    35   17   18 ar  
    36   17   47 1   
    37   18   21 ar  
    38   18   48 1   
    39   19   20 ar  
    40   19   49 1   
    41   20   21 ar  
    42   20   50 1   
    43   21   22 1   
    44   22   23 1   
    45   22   51 1   
    46   22   57 1   
    47   23   24 1   
    48   23   31 2   
    49   24   25 1   
    50   24   52 1   
    51   25   26 ar  
    52   25   30 ar  
    53   26   27 ar  
    54   26   53 1   
    55   27   28 ar  
    56   27   54 1   
    57   28   29 ar  
    58   28   55 1   
    59   29   30 ar  
    60   29   56 1   
    61   30   31 1   
@<TRIPOS>SUBSTRUCTURE
     1 15J         1 TEMP              0 ****  ****    0 ROOT
