@<TRIPOS>MOLECULE
15J
   56    60     1     0     0
SMALL
bcc


@<TRIPOS>ATOM
      1 O2          2.4030   -0.2800   -1.1880 oh        1 15J     -0.601800
      2 C24         3.5020    0.3800   -0.5800 c3        1 15J      0.134400
      3 C21         3.4190    0.1160    0.9200 c3        1 15J     -0.069700
      4 C22         4.7270    0.5040    1.5890 c3        1 15J     -0.077400
      5 C23         4.6400    0.3130    3.1030 c3        1 15J      0.187300
      6 C20         2.2710    0.8890    1.5450 c3        1 15J     -0.077400
      7 C19         2.2320    0.6870    3.0600 c3        1 15J      0.187300
      8 N2          3.5050    1.0160    3.6920 nh        1 15J     -0.722300
      9 C4          3.5170    1.0590    5.1140 ca        1 15J      0.625200
     10 N1          2.4820    0.5170    5.8330 nb        1 15J     -0.703000
     11 C3          2.4730    0.6560    7.1640 ca        1 15J      0.415200
     12 C2          3.4700    1.3180    7.9010 ca        1 15J     -0.261300
     13 C1          4.5350    1.8740    7.1990 ca        1 15J     -0.103000
     14 C5          4.5680    1.7550    5.8050 ca        1 15J     -0.046200
     15 O1          5.5410    2.4190    5.0650 os        1 15J     -0.226200
     16 C6          6.8620    2.1610    5.4220 ca        1 15J      0.086100
     17 C11         7.2920    0.9640    6.0060 ca        1 15J     -0.144000
     18 C10         8.6450    0.7650    6.2500 ca        1 15J     -0.131000
     19 C7          7.7810    3.1680    5.0930 ca        1 15J     -0.144000
     20 C8          9.1330    2.9670    5.3410 ca        1 15J     -0.131000
     21 C9          9.5890    1.7610    5.9110 ca        1 15J      0.080600
     22 N3         10.9640    1.4710    6.1260 nh        1 15J     -0.648600
     23 C12        11.9210    2.3770    5.5960 cc        1 15J      0.574700
     24 N5         12.1040    2.5010    4.1880 na        1 15J     -0.277300
     25 C14        13.1890    3.3600    4.0100 ca        1 15J     -0.073200
     26 C18        13.8260    3.8490    2.8630 ca        1 15J     -0.133000
     27 C17        14.8950    4.7140    3.0470 ca        1 15J     -0.115000
     28 C16        15.3280    5.0930    4.3300 ca        1 15J     -0.150000
     29 C15        14.7110    4.6240    5.4800 ca        1 15J     -0.074000
     30 C13        13.6260    3.7460    5.3410 ca        1 15J      0.075400
     31 N4         12.8120    3.1280    6.3060 nd        1 15J     -0.590100
     32 H1          2.4470   -0.0740   -2.1290 ho        1 15J      0.399000
     33 H2          3.4560    1.4820   -0.7910 h1        1 15J      0.022700
     34 H3          4.4640   -0.0300   -0.9920 h1        1 15J      0.022700
     35 H4          3.2370   -0.9850    1.0730 hc        1 15J      0.066700
     36 H5          4.9710    1.5720    1.3530 hc        1 15J      0.053700
     37 H6          5.5630   -0.1360    1.2060 hc        1 15J      0.053700
     38 H7          4.5780   -0.7940    3.3200 h1        1 15J      0.046950
     39 H8          5.5850    0.7080    3.5710 h1        1 15J      0.046950
     40 H9          2.3750    1.9800    1.3080 hc        1 15J      0.053700
     41 H10         1.3010    0.5330    1.1130 hc        1 15J      0.053700
     42 H11         1.9310   -0.3800    3.2720 h1        1 15J      0.046950
     43 H12         1.4430    1.3640    3.4920 h1        1 15J      0.046950
     44 H13         1.6060    0.1950    7.6740 h4        1 15J      0.024100
     45 H14         3.4040    1.3970    8.9930 ha        1 15J      0.148000
     46 H15         5.3460    2.4080    7.7170 ha        1 15J      0.152000
     47 H16         6.5610    0.1860    6.2710 ha        1 15J      0.153000
     48 H17         8.9750   -0.1810    6.7070 ha        1 15J      0.148000
     49 H18         7.4240    4.1060    4.6410 ha        1 15J      0.153000
     50 H19         9.8420    3.7750    5.0980 ha        1 15J      0.148000
     51 H20        11.1610    1.2430    7.0850 hn        1 15J      0.429800
     52 H21        11.6090    2.0170    3.4880 hn        1 15J      0.313700
     53 H22        13.4940    3.5570    1.8580 ha        1 15J      0.136000
     54 H23        15.4210    5.1150    2.1670 ha        1 15J      0.132000
     55 H24        16.1810    5.7830    4.4190 ha        1 15J      0.133000
     56 H25        15.0550    4.9270    6.4790 ha        1 15J      0.148000
@<TRIPOS>BOND
     1    1    2 1   
     2    1   32 1   
     3    2    3 1   
     4    2   33 1   
     5    2   34 1   
     6    3    4 1   
     7    3    6 1   
     8    3   35 1   
     9    4    5 1   
    10    4   36 1   
    11    4   37 1   
    12    5    8 1   
    13    5   38 1   
    14    5   39 1   
    15    6    7 1   
    16    6   40 1   
    17    6   41 1   
    18    7    8 1   
    19    7   42 1   
    20    7   43 1   
    21    8    9 1   
    22    9   10 ar  
    23    9   14 ar  
    24   10   11 ar  
    25   11   12 ar  
    26   11   44 1   
    27   12   13 ar  
    28   12   45 1   
    29   13   14 ar  
    30   13   46 1   
    31   14   15 1   
    32   15   16 1   
    33   16   17 ar  
    34   16   19 ar  
    35   17   18 ar  
    36   17   47 1   
    37   18   21 ar  
    38   18   48 1   
    39   19   20 ar  
    40   19   49 1   
    41   20   21 ar  
    42   20   50 1   
    43   21   22 1   
    44   22   23 1   
    45   22   51 1   
    46   23   24 1   
    47   23   31 2   
    48   24   25 1   
    49   24   52 1   
    50   25   26 ar  
    51   25   30 ar  
    52   26   27 ar  
    53   26   53 1   
    54   27   28 ar  
    55   27   54 1   
    56   28   29 ar  
    57   28   55 1   
    58   29   30 ar  
    59   29   56 1   
    60   30   31 1   
@<TRIPOS>SUBSTRUCTURE
     1 15J         1 TEMP              0 ****  ****    0 ROOT
