@<TRIPOS>MOLECULE
15J
   56    60     1     0     0
SMALL
bcc


@<TRIPOS>ATOM
      1 O2          2.3980   -0.3290   -1.1810 oh        1 15J     -0.601800
      2 C24         3.4990    0.3340   -0.5790 c3        1 15J      0.134400
      3 C21         3.4150    0.0860    0.9230 c3        1 15J     -0.069700
      4 C22         4.7230    0.4760    1.5890 c3        1 15J     -0.077400
      5 C23         4.6350    0.3010    3.1040 c3        1 15J      0.187300
      6 C20         2.2690    0.8690    1.5400 c3        1 15J     -0.077400
      7 C19         2.2290    0.6820    3.0570 c3        1 15J      0.187300
      8 N2          3.5030    1.0140    3.6860 nh        1 15J     -0.722300
      9 C4          3.5150    1.0710    5.1070 ca        1 15J      0.625200
     10 N1          2.4780    0.5400    5.8310 nb        1 15J     -0.703000
     11 C3          2.4690    0.6930    7.1610 ca        1 15J      0.415200
     12 C2          3.4680    1.3590    7.8910 ca        1 15J     -0.261300
     13 C1          4.5350    1.9050    7.1840 ca        1 15J     -0.103000
     14 C5          4.5680    1.7710    5.7920 ca        1 15J     -0.046200
     15 O1          5.5430    2.4240    5.0450 os        1 15J     -0.226200
     16 C6          6.8630    2.1680    5.4080 ca        1 15J      0.086100
     17 C11         7.2900    0.9750    6.0000 ca        1 15J     -0.144000
     18 C10         8.6430    0.7770    6.2500 ca        1 15J     -0.131000
     19 C7          7.7830    3.1730    5.0740 ca        1 15J     -0.144000
     20 C8          9.1350    2.9730    5.3280 ca        1 15J     -0.131000
     21 C9          9.5890    1.7700    5.9080 ca        1 15J      0.080600
     22 N3         10.9620    1.4800    6.1280 nu        1 15J     -0.648600
     23 C12        11.9210    2.3860    5.6020 cc        1 15J      0.574700
     24 N5         12.1140    2.5050    4.1940 na        1 15J     -0.277300
     25 C14        13.1990    3.3660    4.0210 ca        1 15J     -0.073200
     26 C18        13.8430    3.8530    2.8760 ca        1 15J     -0.133000
     27 C17        14.9090    4.7200    3.0650 ca        1 15J     -0.115000
     28 C16        15.3310    5.1050    4.3500 ca        1 15J     -0.150000
     29 C15        14.7070    4.6390    5.4970 ca        1 15J     -0.074000
     30 C13        13.6250    3.7580    5.3540 ca        1 15J      0.075400
     31 N4         12.8060    3.1420    6.3150 nd        1 15J     -0.591100
     32 H1          2.4430   -0.1340   -2.1240 ho        1 15J      0.399000
     33 H2          4.4600   -0.0840   -0.9870 h1        1 15J      0.022700
     34 H3          3.4570    1.4340   -0.8020 h1        1 15J      0.022700
     35 H4          3.2290   -1.0130    1.0870 hc        1 15J      0.066700
     36 H5          4.9710    1.5400    1.3420 hc        1 15J      0.053700
     37 H6          5.5580   -0.1700    1.2120 hc        1 15J      0.053700
     38 H7          5.5820    0.6980    3.5690 h1        1 15J      0.046950
     39 H8          4.5700   -0.8040    3.3330 h1        1 15J      0.046950
     40 H9          2.3760    1.9570    1.2920 hc        1 15J      0.053700
     41 H10         1.2980    0.5110    1.1110 hc        1 15J      0.053700
     42 H11         1.4420    1.3660    3.4820 h1        1 15J      0.046950
     43 H12         1.9250   -0.3820    3.2790 h1        1 15J      0.046950
     44 H13         1.6010    0.2400    7.6760 h4        1 15J      0.025100
     45 H14         3.4010    1.4490    8.9830 ha        1 15J      0.148000
     46 H15         5.3480    2.4410    7.6970 ha        1 15J      0.152000
     47 H16         6.5580    0.2000    6.2690 ha        1 15J      0.153000
     48 H17         8.9700   -0.1670    6.7140 ha        1 15J      0.148000
     49 H18         7.4280    4.1070    4.6150 ha        1 15J      0.153000
     50 H19         9.8450    3.7790    5.0820 ha        1 15J      0.148000
     51 H20        11.1560    1.2520    7.0870 hn        1 15J      0.429800
     52 H21        11.6250    2.0180    3.4930 hn        1 15J      0.313700
     53 H22        13.5180    3.5570    1.8700 ha        1 15J      0.136000
     54 H23        15.4400    5.1190    2.1880 ha        1 15J      0.132000
     55 H24        16.1830    5.7970    4.4420 ha        1 15J      0.133000
     56 H25        15.0440    4.9460    6.4970 ha        1 15J      0.148000
@<TRIPOS>BOND
     1    1    2 1   
     2    1   32 1   
     3    2    3 1   
     4    2   33 1   
     5    2   34 1   
     6    3    4 1   
     7    3    6 1   
     8    3   35 1   
     9    4    5 1   
    10    4   36 1   
    11    4   37 1   
    12    5    8 1   
    13    5   38 1   
    14    5   39 1   
    15    6    7 1   
    16    6   40 1   
    17    6   41 1   
    18    7    8 1   
    19    7   42 1   
    20    7   43 1   
    21    8    9 1   
    22    9   10 ar  
    23    9   14 ar  
    24   10   11 ar  
    25   11   12 ar  
    26   11   44 1   
    27   12   13 ar  
    28   12   45 1   
    29   13   14 ar  
    30   13   46 1   
    31   14   15 1   
    32   15   16 1   
    33   16   17 ar  
    34   16   19 ar  
    35   17   18 ar  
    36   17   47 1   
    37   18   21 ar  
    38   18   48 1   
    39   19   20 ar  
    40   19   49 1   
    41   20   21 ar  
    42   20   50 1   
    43   21   22 1   
    44   22   23 1   
    45   22   51 1   
    46   23   24 1   
    47   23   31 2   
    48   24   25 1   
    49   24   52 1   
    50   25   26 ar  
    51   25   30 ar  
    52   26   27 ar  
    53   26   53 1   
    54   27   28 ar  
    55   27   54 1   
    56   28   29 ar  
    57   28   55 1   
    58   29   30 ar  
    59   29   56 1   
    60   30   31 1   
@<TRIPOS>SUBSTRUCTURE
     1 15J         1 TEMP              0 ****  ****    0 ROOT
