@<TRIPOS>MOLECULE
15J
   56    60     1     0     0
SMALL
bcc


@<TRIPOS>ATOM
      1 O2         -6.7310   -3.8880   -0.8230 oh        1 15J     -0.601800
      2 C24        -5.3780   -3.5040   -1.0120 c3        1 15J      0.134400
      3 C21        -5.1780   -2.1740   -0.2930 c3        1 15J     -0.069700
      4 C22        -3.6950   -1.8680   -0.1690 c3        1 15J     -0.077400
      5 C23        -3.4740   -0.5060    0.4860 c3        1 15J      0.187300
      6 C20        -5.8760   -1.0460   -1.0330 c3        1 15J     -0.077400
      7 C19        -5.6140    0.3000   -0.3570 c3        1 15J      0.187300
      8 N2         -4.1880    0.5670   -0.1980 nh        1 15J     -0.722300
      9 C4         -3.8300    1.8750    0.2300 ca        1 15J      0.625200
     10 N1         -4.7770    2.7160    0.7580 nb        1 15J     -0.703000
     11 C3         -4.4320    3.9730    1.0640 ca        1 15J      0.415200
     12 C2         -3.1430    4.5070    0.8940 ca        1 15J     -0.261300
     13 C1         -2.1600    3.6770    0.3650 ca        1 15J     -0.103000
     14 C5         -2.4920    2.3600    0.0260 ca        1 15J     -0.046200
     15 O1         -1.5730    1.5510   -0.6350 os        1 15J     -0.226200
     16 C6         -0.3360    1.4000   -0.0140 ca        1 15J      0.086100
     17 C11        -0.1410    1.4940    1.3680 ca        1 15J     -0.144500
     18 C10         1.1170    1.2440    1.9040 ca        1 15J     -0.130500
     19 C7          0.7280    1.0690   -0.8670 ca        1 15J     -0.144500
     20 C8          1.9840    0.8230   -0.3280 ca        1 15J     -0.130500
     21 C9          2.1980    0.8940    1.0640 ca        1 15J      0.080600
     22 N3          3.4420    0.5890    1.6780 nh        1 15J     -0.648600
     23 C12         4.4620    0.0300    0.8630 cc        1 15J      0.574700
     24 N5          4.3270   -1.2850    0.3270 na        1 15J     -0.277300
     25 C14         5.5380   -1.5750   -0.3040 ca        1 15J     -0.073200
     26 C18         5.9920   -2.7020   -1.0000 ca        1 15J     -0.133000
     27 C17         7.2760   -2.6540   -1.5220 ca        1 15J     -0.115000
     28 C16         8.0960   -1.5220   -1.3670 ca        1 15J     -0.150000
     29 C15         7.6670   -0.3940   -0.6850 ca        1 15J     -0.074000
     30 C13         6.3750   -0.3980   -0.1390 ca        1 15J      0.075400
     31 N4          5.6760    0.5860    0.5810 nd        1 15J     -0.591100
     32 H1         -6.8540   -4.7100   -1.3120 ho        1 15J      0.399000
     33 H2         -4.6990   -4.2860   -0.5750 h1        1 15J      0.022700
     34 H3         -5.1560   -3.4000   -2.1080 h1        1 15J      0.022700
     35 H4         -5.6260   -2.2610    0.7360 hc        1 15J      0.066700
     36 H5         -3.1910   -2.6440    0.4640 hc        1 15J      0.053700
     37 H6         -3.2180   -1.8860   -1.1830 hc        1 15J      0.053700
     38 H7         -3.7970   -0.5730    1.5670 h1        1 15J      0.046950
     39 H8         -2.3730   -0.2690    0.4650 h1        1 15J      0.046950
     40 H9         -5.5240   -1.0150   -2.0960 hc        1 15J      0.053700
     41 H10        -6.9810   -1.2320   -1.0400 hc        1 15J      0.053700
     42 H11        -6.0510    1.1150   -0.9990 h1        1 15J      0.046950
     43 H12        -6.1480    0.3130    0.6370 h1        1 15J      0.046950
     44 H13        -5.2490    4.5900    1.4830 h4        1 15J      0.025100
     45 H14        -2.9250    5.5470    1.1670 ha        1 15J      0.148000
     46 H15        -1.1320    4.0350    0.2050 ha        1 15J      0.152000
     47 H16        -0.9790    1.7660    2.0260 ha        1 15J      0.153000
     48 H17         1.2600    1.3170    2.9930 ha        1 15J      0.148000
     49 H18         0.5570    1.0060   -1.9520 ha        1 15J      0.153000
     50 H19         2.8160    0.5860   -1.0110 ha        1 15J      0.148000
     51 H20         3.7900    1.3490    2.2360 hn        1 15J      0.429800
     52 H21         3.5610   -1.8900    0.4470 hn        1 15J      0.313700
     53 H22         5.3570   -3.5880   -1.1240 ha        1 15J      0.136000
     54 H23         7.6670   -3.5230   -2.0710 ha        1 15J      0.132000
     55 H24         9.1070   -1.5370   -1.8020 ha        1 15J      0.133000
     56 H25         8.3150    0.4870   -0.5700 ha        1 15J      0.148000
@<TRIPOS>BOND
     1    1    2 1   
     2    1   32 1   
     3    2    3 1   
     4    2   33 1   
     5    2   34 1   
     6    3    4 1   
     7    3    6 1   
     8    3   35 1   
     9    4    5 1   
    10    4   36 1   
    11    4   37 1   
    12    5    8 1   
    13    5   38 1   
    14    5   39 1   
    15    6    7 1   
    16    6   40 1   
    17    6   41 1   
    18    7    8 1   
    19    7   42 1   
    20    7   43 1   
    21    8    9 1   
    22    9   10 ar  
    23    9   14 ar  
    24   10   11 ar  
    25   11   12 ar  
    26   11   44 1   
    27   12   13 ar  
    28   12   45 1   
    29   13   14 ar  
    30   13   46 1   
    31   14   15 1   
    32   15   16 1   
    33   16   17 ar  
    34   16   19 ar  
    35   17   18 ar  
    36   17   47 1   
    37   18   21 ar  
    38   18   48 1   
    39   19   20 ar  
    40   19   49 1   
    41   20   21 ar  
    42   20   50 1   
    43   21   22 1   
    44   22   23 1   
    45   22   51 1   
    46   23   24 1   
    47   23   31 2   
    48   24   25 1   
    49   24   52 1   
    50   25   26 ar  
    51   25   30 ar  
    52   26   27 ar  
    53   26   53 1   
    54   27   28 ar  
    55   27   54 1   
    56   28   29 ar  
    57   28   55 1   
    58   29   30 ar  
    59   29   56 1   
    60   30   31 1   
@<TRIPOS>SUBSTRUCTURE
     1 15J         1 TEMP              0 ****  ****    0 ROOT
