@<TRIPOS>MOLECULE
15J
   56    51     1     0     0
SMALL
bcc


@<TRIPOS>ATOM
      1 O2         -7.0260   -1.3480   -4.9690 oh        1 15J     -0.329000
      2 C24        -5.5970   -1.6670   -4.9920 c3        1 15J     -0.016000
      3 C21        -5.0430   -1.7200   -3.5190 c3        1 15J     -0.109000
      4 C22        -3.9690   -2.7510   -3.4460 c3        1 15J     -0.155000
      5 C23        -3.2520   -2.7430   -2.1110 c3        1 15J     -0.056500
      6 C20        -4.5500   -0.3620   -3.1380 c3        1 15J     -0.155000
      7 C19        -3.8320   -0.3630   -1.8070 c3        1 15J     -0.056500
      8 N2         -2.7700   -1.3910   -1.7360 n3        1 15J     -0.216000
      9 C4         -2.2210   -1.4270   -0.4030 c2        1 15J      0.094000
     10 N1         -3.0410   -1.7010    0.6710 n1        1 15J     -0.177000
     11 C3         -2.5090   -1.8140    1.9330 c1        1 15J     -0.120000
     12 C2         -1.1300   -1.6500    2.1300 c1        1 15J     -0.120000
     13 C1         -0.3100   -1.3770    1.0600 c1        1 15J     -0.079000
     14 C5         -0.8450   -1.2630   -0.2080 c2        1 15J     -0.031000
     15 O1          0.0300   -1.0230   -1.3440 os        1 15J     -0.154000
     16 C6          1.1350   -0.2870   -0.9300 c2        1 15J      0.074000
     17 C11         1.0300    1.0860   -0.7720 c2        1 15J     -0.160000
     18 C10         2.1350    1.8280   -0.4160 c1        1 15J     -0.132000
     19 C7          2.3650   -0.9210   -0.7280 c1        1 15J     -0.143000
     20 C8          3.4820   -0.1710   -0.3690 c1        1 15J     -0.108000
     21 C9          3.3720    1.1960   -0.2120 c1        1 15J     -0.022000
     22 N3          4.5180    1.9710    0.2330 n3        1 15J     -0.208000
     23 C12         4.7360    2.1950    1.6340 c2        1 15J      0.105000
     24 N5          5.0200    3.3850    2.2510 n2        1 15J     -0.239000
     25 C14         5.1270    3.1500    3.5890 c1        1 15J     -0.029000
     26 C18         5.4220    4.0170    4.7000 c1        1 15J     -0.120000
     27 C17         5.4860    3.4990    5.9900 c1        1 15J     -0.120000
     28 C16         5.2670    2.1550    6.2040 c1        1 15J     -0.120000
     29 C15         4.9750    1.2990    5.1080 c1        1 15J     -0.120000
     30 C13         4.9100    1.8240    3.8010 c1        1 15J     -0.059000
     31 N4          4.6680    1.2360    2.5840 n1        1 15J     -0.174000
     32 H1         -7.4010   -1.4910   -5.8380 ho        1 15J      0.199000
     33 H2         -5.1240   -0.9850   -5.4900 h1        1 15J      0.061500
     34 H3         -5.4640   -2.5490   -5.4280 h1        1 15J      0.061500
     35 H4         -5.7610   -1.9720   -2.9220 hc        1 15J      0.107000
     36 H5         -3.3300   -2.5830   -4.1420 hc        1 15J      0.092000
     37 H6         -4.3780   -3.6600   -3.5920 hc        1 15J      0.092000
     38 H7         -2.4730   -3.3600   -2.1600 h1        1 15J      0.089500
     39 H8         -3.8790   -3.0680   -1.4080 h1        1 15J      0.089500
     40 H9         -3.9610   -0.0540   -3.8000 hc        1 15J      0.092000
     41 H10        -5.3100    0.2460   -3.0840 hc        1 15J      0.092000
     42 H11        -4.4580   -0.5270   -1.1250 h1        1 15J      0.089500
     43 H12        -3.4100    0.5630   -1.6580 h1        1 15J      0.089500
     44 H13        -3.1230   -2.0200    2.7350 ha        1 15J      0.143000
     45 H14        -0.7530   -1.7290    3.0210 ha        1 15J      0.143000
     46 H15         0.6530   -1.2630    1.1970 ha        1 15J      0.155000
     47 H16         0.1980    1.5150   -0.9070 ha        1 15J      0.152000
     48 H17         2.0540    2.8330   -0.3000 ha        1 15J      0.149000
     49 H18         2.4410   -1.9030   -0.8400 ha        1 15J      0.152000
     50 H19         4.3500   -0.6160   -0.2260 ha        1 15J      0.146000
     51 H20         5.0720    2.3030   -0.3500 hn        1 15J      0.226000
     52 H21         5.0630    4.1880    1.8520 DU        1 15J      0.264000
     53 H22         5.5800    4.9930    4.5450 ha        1 15J      0.143000
     54 H23         5.6980    4.1210    6.7890 ha        1 15J      0.143000
     55 H24         5.3100    1.8000    7.0860 ha        1 15J      0.143000
     56 H25         4.8210    0.3540    5.2580 ha        1 15J      0.143000
@<TRIPOS>BOND
     1    1    2 1   
     2    1   32 1   
     3    2    3 1   
     4    2   33 1   
     5    2   34 1   
     6    3    4 1   
     7    3    6 1   
     8    3   35 1   
     9    4    5 1   
    10    4   36 1   
    11    4   37 1   
    12    5    8 1   
    13    5   38 1   
    14    5   39 1   
    15    6    7 1   
    16    6   40 1   
    17    6   41 1   
    18    7    8 1   
    19    7   42 1   
    20    7   43 1   
    21    8    9 1   
    22    9   10 1   
    23    9   14 1   
    24   11   12 1   
    25   11   44 1   
    26   12   45 1   
    27   13   14 1   
    28   13   46 1   
    29   14   15 1   
    30   15   16 1   
    31   16   17 1   
    32   16   19 1   
    33   17   18 1   
    34   17   47 1   
    35   18   48 1   
    36   19   49 1   
    37   20   21 1   
    38   20   50 1   
    39   21   22 1   
    40   22   23 1   
    41   22   51 1   
    42   23   24 1   
    43   23   31 1   
    44   24   25 1   
    45   25   30 1   
    46   26   27 1   
    47   26   53 1   
    48   27   54 1   
    49   28   29 1   
    50   28   55 1   
    51   29   56 1   
@<TRIPOS>SUBSTRUCTURE
     1 15J         1 TEMP              0 ****  ****    0 ROOT
