@<TRIPOS>MOLECULE
15L
   20    20     1     0     0
SMALL
bcc


@<TRIPOS>ATOM
      1 C1          1.0130   -1.3150   -0.0730 c         1 15L      0.695600
      2 O1          1.5240   -2.4410   -0.1560 o         1 15L     -0.644500
      3 C2          1.8140   -0.0470   -0.2790 c3        1 15L      0.021100
      4 O2          3.1400   -0.1840    0.2080 oh        1 15L     -0.617800
      5 C3          1.1730    1.1510    0.4320 c3        1 15L      0.140100
      6 O3          1.7720    2.3730    0.0470 oh        1 15L     -0.583800
      7 C4         -0.3180    1.1630    0.0370 c3        1 15L      0.143100
      8 O4         -0.3830    1.2380   -1.3730 oh        1 15L     -0.632800
      9 C5         -0.9440   -0.1080    0.6160 c3        1 15L     -0.038900
     10 O5         -0.3250   -1.3150    0.1360 os        1 15L     -0.355900
     11 C6         -2.4740   -0.2090    0.2850 c         1 15L      0.936600
     12 O6A        -2.8280   -0.0400   -0.9120 o         1 15L     -0.805800
     13 O6B        -3.2320   -0.4000    1.2660 o         1 15L     -0.805800
     14 H2          1.8450    0.1600   -1.3900 h1        1 15L      0.097700
     15 HO2         3.4140   -1.0950    0.0330 ho        1 15L      0.425000
     16 H3          1.2700    1.0320    1.5470 h1        1 15L      0.043700
     17 HO3         2.7260    2.2360    0.1080 ho        1 15L      0.403000
     18 H4         -0.8240    2.0640    0.4790 h1        1 15L      0.062700
     19 HO4        -1.2590    0.9010   -1.6400 ho        1 15L      0.463000
     20 H5         -0.8190   -0.1100    1.7350 h1        1 15L      0.054700
@<TRIPOS>BOND
     1    1    2 2   
     2    1    3 1   
     3    1   10 1   
     4    3    4 1   
     5    3    5 1   
     6    3   14 1   
     7    4   15 1   
     8    5    6 1   
     9    5    7 1   
    10    5   16 1   
    11    6   17 1   
    12    7    8 1   
    13    7    9 1   
    14    7   18 1   
    15    8   19 1   
    16    9   10 1   
    17    9   11 1   
    18    9   20 1   
    19   11   12 1   
    20   11   13 1   
@<TRIPOS>SUBSTRUCTURE
     1 15L         1 TEMP              0 ****  ****    0 ROOT
