@<TRIPOS>MOLECULE
15L
   20    19     1     0     0
SMALL
bcc


@<TRIPOS>ATOM
      1 C1         -1.1200   -0.6820   -1.4150 c1        1 15L      0.280000
      2 O1         -1.7290   -1.7160   -1.6250 o         1 15L     -0.369000
      3 C2          0.4380   -0.6820   -1.4150 c2        1 15L     -0.040000
      4 O2          0.9650   -1.8020   -2.2010 oh        1 15L     -0.345000
      5 C3          0.9390   -0.6820   -0.0350 c3        1 15L      0.029000
      6 O3          2.3850   -0.4940   -0.0650 oh        1 15L     -0.311000
      7 C4          0.3300    0.3990    0.8190 c3        1 15L      0.032000
      8 O4          0.7650    1.6750    0.3240 oh        1 15L     -0.360000
      9 C5         -1.1820    0.3750    0.8290 c3        1 15L     -0.100000
     10 O5         -1.7080    0.3510   -0.5820 os        1 15L     -0.194000
     11 C6         -1.7720    1.5250    1.6450 c2        1 15L      0.356000
     12 O6A        -2.2410    2.5370    1.0600 o         1 15L     -0.540500
     13 O6B        -1.8440    1.4340    2.9000 o         1 15L     -0.540500
     14 H2          0.7940    0.0800   -1.9110 h4        1 15L      0.137000
     15 HO2         1.0240   -1.5640   -3.0540 ho        1 15L      0.224000
     16 H3          0.7440   -1.5490    0.3690 h1        1 15L      0.083000
     17 HO3         2.7790   -1.1610    0.3690 ho        1 15L      0.202000
     18 H4          0.6500    0.2920    1.7350 h1        1 15L      0.102000
     19 HO4         1.2910    2.0610    0.9250 ho        1 15L      0.262000
     20 H5         -1.5090   -0.3960    1.3300 h1        1 15L      0.094000
@<TRIPOS>BOND
     1    1    2 1   
     2    1   10 1   
     3    3    4 1   
     4    3    5 1   
     5    3   14 1   
     6    4   15 1   
     7    5    6 1   
     8    5    7 1   
     9    5   16 1   
    10    6   17 1   
    11    7    8 1   
    12    7    9 1   
    13    7   18 1   
    14    8   19 1   
    15    9   10 1   
    16    9   11 1   
    17    9   20 1   
    18   11   12 1   
    19   11   13 1   
@<TRIPOS>SUBSTRUCTURE
     1 15L         1 TEMP              0 ****  ****    0 ROOT
