@<TRIPOS>MOLECULE
15M
   68    69     1     0     0
SMALL
bcc


@<TRIPOS>ATOM
      1 C1          1.3550   -1.6150    1.1850 c         1 15M      0.562100
      2 C2          1.1170   -0.1490    1.4210 c3        1 15M     -0.141400
      3 C3          1.7810    0.2780    2.7250 c3        1 15M     -0.082400
      4 C4          2.3170    1.7020    2.6680 c3        1 15M     -0.048200
      5 C5          3.7270    1.7760    3.1320 c2        1 15M     -0.165200
      6 C6          4.7920    1.3640    2.4350 c2        1 15M     -0.165200
      7 C7          4.7300    0.7840    1.0730 c3        1 15M     -0.030200
      8 C8          5.7230   -0.3370    0.8390 c3        1 15M     -0.063700
      9 C9          5.5150   -1.5920    1.7060 c3        1 15M      0.144100
     10 C10         6.0130   -2.7670    0.8600 c3        1 15M     -0.144400
     11 C11         5.8590   -2.3440   -0.6040 c3        1 15M      0.144100
     12 C12         5.6790   -0.8130   -0.6260 c3        1 15M     -0.022500
     13 C13         6.6110   -0.0540   -1.4960 c2        1 15M     -0.168200
     14 C14         7.9030   -0.2030   -1.7920 c2        1 15M     -0.176200
     15 C15         8.9330   -1.1890   -1.3500 c3        1 15M      0.165300
     16 C16         9.0820   -2.3320   -2.3600 c3        1 15M     -0.074400
     17 C17        10.0940   -1.9810   -3.4330 c3        1 15M     -0.034100
     18 C18        10.2060   -3.0670   -4.4460 ca        1 15M     -0.092300
     19 C19        10.8370   -4.2720   -4.1160 ca        1 15M     -0.127000
     20 C20        10.9570   -5.2860   -5.0650 ca        1 15M     -0.125000
     21 C21        10.4490   -5.1030   -6.3510 ca        1 15M     -0.124000
     22 C22         9.8220   -3.9040   -6.6860 ca        1 15M     -0.125000
     23 C23         9.7000   -2.8890   -5.7380 ca        1 15M     -0.127000
     24 C24         2.2170   -2.1950   -2.5170 c3        1 15M     -0.125100
     25 C25         1.4350   -1.7650   -1.2940 c3        1 15M      0.118800
     26 N           2.1800   -1.9960   -0.0220 n4        1 15M     -0.673800
     27 O1          0.9730   -2.5540    1.8680 o         1 15M     -0.428100
     28 O9          4.1260   -1.7690    1.9860 oh        1 15M     -0.662800
     29 O11         4.6570   -2.9070   -1.1400 oh        1 15M     -0.669800
     30 O15         8.6490   -1.7910   -0.0930 oh        1 15M     -0.609800
     31 H21A        0.0030   -0.0030    1.4910 hc        1 15M      0.094700
     32 H22A        1.4860    0.4700    0.5620 hc        1 15M      0.094700
     33 H31         1.0340    0.1870    3.5570 hc        1 15M      0.076200
     34 H32         2.6240   -0.4250    2.9670 hc        1 15M      0.076200
     35 H41         2.2450    2.1180    1.6270 hc        1 15M      0.057700
     36 H42         1.6770    2.3600    3.3170 hc        1 15M      0.057700
     37 H5          3.8650    2.2220    4.1320 ha        1 15M      0.140000
     38 H6          5.8060    1.4700    2.8560 ha        1 15M      0.135000
     39 H71         3.6920    0.4050    0.8640 hc        1 15M      0.040200
     40 H72         4.9430    1.6030    0.3280 hc        1 15M      0.040200
     41 H8          6.7590    0.0410    1.0650 hc        1 15M      0.075700
     42 H9          6.0790   -1.5000    2.6720 h1        1 15M      0.065700
     43 H101        7.0930   -2.9670    1.0810 hc        1 15M      0.078700
     44 H102        5.4260   -3.6940    1.0730 hc        1 15M      0.078700
     45 H11         6.7470   -2.6620   -1.2130 h1        1 15M      0.091700
     46 H12         4.6410   -0.6160   -1.0340 hc        1 15M      0.034700
     47 H13         6.0960    0.8060   -1.9750 ha        1 15M      0.120000
     48 H14         8.3360    0.5170   -2.5180 ha        1 15M      0.135000
     49 H15         9.9200   -0.6400   -1.2640 h1        1 15M      0.054700
     50 H161        9.4120   -3.2540   -1.8120 hc        1 15M      0.058700
     51 H162        8.0920   -2.5540   -2.8340 hc        1 15M      0.058700
     52 H171       11.1000   -1.8120   -2.9600 hc        1 15M      0.052200
     53 H172        9.7940   -1.0190   -3.9290 hc        1 15M      0.052200
     54 H19        11.2450   -4.4150   -3.1040 ha        1 15M      0.130500
     55 H20        11.4580   -6.2290   -4.8000 ha        1 15M      0.136500
     56 H21        10.5490   -5.9020   -7.1010 ha        1 15M      0.138000
     57 H22         9.4270   -3.7540   -7.7020 ha        1 15M      0.136500
     58 H23         9.2110   -1.9410   -6.0110 ha        1 15M      0.130500
     59 H241        1.5990   -1.9800   -3.4240 hc        1 15M      0.078033
     60 H242        2.4470   -3.2890   -2.4890 hc        1 15M      0.078033
     61 H243        3.1870   -1.6430   -2.5990 hc        1 15M      0.078033
     62 H251        0.4690   -2.3430   -1.2300 hx        1 15M      0.094700
     63 H252        1.1940   -0.6650   -1.3570 hx        1 15M      0.094700
     64 HN          2.4560   -2.9880    0.0380 hn        1 15M      0.476300
     65 HO9         4.0740   -2.3760    2.7350 ho        1 15M      0.425000
     66 H1          4.8930   -3.7590   -1.5240 ho        1 15M      0.424000
     67 H2          8.7280   -1.0970    0.5720 ho        1 15M      0.404000
     68 HN3         3.0670   -1.4610   -0.0120 hn        1 15M      0.476300
@<TRIPOS>BOND
     1    1    2 1   
     2    1   26 1   
     3    1   27 2   
     4    2    3 1   
     5    2   31 1   
     6    2   32 1   
     7    3    4 1   
     8    3   33 1   
     9    3   34 1   
    10    4    5 1   
    11    4   35 1   
    12    4   36 1   
    13    5    6 2   
    14    5   37 1   
    15    6    7 1   
    16    6   38 1   
    17    7    8 1   
    18    7   39 1   
    19    7   40 1   
    20    8    9 1   
    21    8   12 1   
    22    8   41 1   
    23    9   10 1   
    24    9   28 1   
    25    9   42 1   
    26   10   11 1   
    27   10   43 1   
    28   10   44 1   
    29   11   12 1   
    30   11   29 1   
    31   11   45 1   
    32   12   13 1   
    33   12   46 1   
    34   13   14 2   
    35   13   47 1   
    36   14   15 1   
    37   14   48 1   
    38   15   16 1   
    39   15   30 1   
    40   15   49 1   
    41   16   17 1   
    42   16   50 1   
    43   16   51 1   
    44   17   18 1   
    45   17   52 1   
    46   17   53 1   
    47   18   19 ar  
    48   18   23 ar  
    49   19   20 ar  
    50   19   54 1   
    51   20   21 ar  
    52   20   55 1   
    53   21   22 ar  
    54   21   56 1   
    55   22   23 ar  
    56   22   57 1   
    57   23   58 1   
    58   24   25 1   
    59   24   59 1   
    60   24   60 1   
    61   24   61 1   
    62   25   26 1   
    63   25   62 1   
    64   25   63 1   
    65   26   64 1   
    66   26   68 1   
    67   28   65 1   
    68   29   66 1   
    69   30   67 1   
@<TRIPOS>SUBSTRUCTURE
     1 15M         1 TEMP              0 ****  ****    0 ROOT
