@<TRIPOS>MOLECULE
15M
   67    63     1     0     0
SMALL
bcc


@<TRIPOS>ATOM
      1 C1         -1.2550   -3.3230   -4.1520 c1        1 15M      0.297000
      2 C2         -0.8520   -2.3280   -3.0850 c2        1 15M     -0.180000
      3 C3         -1.6130   -1.0360   -3.2860 c3        1 15M     -0.150000
      4 C4         -2.0700   -0.5050   -1.9450 c3        1 15M     -0.132000
      5 C5         -2.0070    1.0070   -1.9520 c2        1 15M     -0.170000
      6 C6         -2.3090    1.6990   -0.8350 c1        1 15M     -0.168000
      7 C7         -2.7120    0.9650    0.4250 c2        1 15M     -0.118000
      8 C8         -2.8440    1.9400    1.5490 c3        1 15M     -0.090000
      9 C9         -3.8110    1.5440    2.3870 c3        1 15M      0.032000
     10 C10        -3.3470    2.0160    3.8300 c3        1 15M     -0.236000
     11 C11        -1.8060    2.4590    3.6890 c3        1 15M      0.036000
     12 C12        -1.3890    1.9920    2.4540 c3        1 15M     -0.079000
     13 C13        -0.6520    0.6660    2.5130 c2        1 15M     -0.117000
     14 C14         0.6970    0.6440    2.5440 c1        1 15M     -0.208000
     15 C15         1.4750    1.9410    2.5200 c2        1 15M      0.061000
     16 C16         2.9260    1.6530    2.2060 c3        1 15M     -0.178000
     17 C17         3.2910    2.2850    0.8810 c3        1 15M     -0.124000
     18 C18         4.6020    1.7100    0.3910 c2        1 15M     -0.068000
     19 C19         5.7600    1.8990    1.1300 c2        1 15M     -0.127000
     20 C20         6.9740    1.4360    0.6460 c1        1 15M     -0.130000
     21 C21         7.0300    0.7850   -0.5760 c1        1 15M     -0.132000
     22 C22         5.8730    0.5960   -1.3150 c1        1 15M     -0.132000
     23 C23         4.6590    1.0590   -0.8310 c1        1 15M     -0.130000
     24 C24        -2.2800   -6.7930   -4.0420 c3        1 15M     -0.239000
     25 C25        -1.6640   -5.6540   -4.8240 c3        1 15M     -0.032000
     26 N          -1.0950   -4.7130   -3.9210 n3        1 15M     -0.383000
     27 O1         -1.6930   -2.9290   -5.2140 o         1 15M     -0.367000
     28 O9         -3.9420    0.1050    2.3520 oh        1 15M     -0.323000
     29 O11        -1.0370    1.8740    4.7140 oh        1 15M     -0.323000
     30 O15         1.3820    2.5670    3.7770 oh        1 15M     -0.340000
     31 H21A        0.1090   -2.1530   -3.1480 ha        1 15M      0.100000
     32 H22A       -1.0590   -2.6940   -2.2020 ha        1 15M      0.100000
     33 H31        -1.0310   -0.3780   -3.7160 hc        1 15M      0.100500
     34 H32        -2.3920   -1.2020   -3.8540 hc        1 15M      0.100500
     35 H41        -2.9900   -0.7930   -1.7770 hc        1 15M      0.085500
     36 H42        -1.4870   -0.8530   -1.2410 hc        1 15M      0.085500
     37 H5         -1.7470    1.4800   -2.7650 ha        1 15M      0.126000
     38 H6         -2.2690    2.6740   -0.8400 ha        1 15M      0.124000
     39 H71        -3.5690    0.5150    0.2810 ha        1 15M      0.100500
     40 H72        -2.0290    0.3010    0.6480 ha        1 15M      0.100500
     41 H8         -3.0510    2.8290    1.1970 hc        1 15M      0.093000
     42 H9         -4.6590    1.9680    2.1490 h1        1 15M      0.075000
     43 H101       -3.4270    1.2780    4.4670 hc        1 15M      0.096000
     44 H102       -3.8880    2.7750    4.1250 hc        1 15M      0.096000
     45 H11        -1.7310    3.4350    3.7240 h1        1 15M      0.078000
     46 H12        -0.7200    2.5760    2.0450 hc        1 15M      0.127000
     47 H13        -1.1540   -0.1710    2.5290 ha        1 15M      0.135000
     48 H14         1.1710   -0.2080    2.5820 ha        1 15M      0.125000
     49 H15         1.1050    2.5300    1.8340 h4        1 15M      0.111000
     50 H161        3.4920    2.0250    2.9120 hc        1 15M      0.087500
     51 H162        3.0620    0.6850    2.1550 hc        1 15M      0.087500
     52 H171        3.3810    3.2520    0.9950 hc        1 15M      0.096000
     53 H172        2.5880    2.0990    0.2260 hc        1 15M      0.096000
     54 H19         5.7200    2.3570    1.9910 ha        1 15M      0.132000
     55 H20         7.7890    1.5690    1.1660 ha        1 15M      0.129000
     56 H21         7.8850    0.4600   -0.9170 ha        1 15M      0.129000
     57 H22         5.9130    0.1380   -2.1760 ha        1 15M      0.129000
     58 H23         3.8440    0.9260   -1.3520 ha        1 15M      0.130000
     59 H241       -2.7120   -7.4180   -4.6620 hc        1 15M      0.079667
     60 H242       -2.9480   -6.4380   -3.4180 hc        1 15M      0.079667
     61 H243       -1.5800   -7.2610   -3.5400 hc        1 15M      0.079667
     62 H251       -2.3560   -5.2140   -5.3600 h1        1 15M      0.100500
     63 H252       -0.9660   -6.0030   -5.4150 h1        1 15M      0.100500
     64 HN         -0.6230   -5.0040   -3.1970 hn        1 15M      0.215000
     65 HO9        -4.7240   -0.1300    2.7040 ho        1 15M      0.198000
     66 H1         -1.1960    2.2960    5.4810 ho        1 15M      0.201000
     67 H2          1.9610    2.1930    4.3380 ho        1 15M      0.218000
@<TRIPOS>BOND
     1    1   26 1   
     2    1   27 1   
     3    2    3 1   
     4    2   31 1   
     5    2   32 1   
     6    3    4 1   
     7    3   33 1   
     8    3   34 1   
     9    4    5 1   
    10    4   35 1   
    11    4   36 1   
    12    5    6 1   
    13    5   37 1   
    14    6   38 1   
    15    7    8 1   
    16    7   39 1   
    17    7   40 1   
    18    8    9 1   
    19    8   12 1   
    20    8   41 1   
    21    9   10 1   
    22    9   28 1   
    23    9   42 1   
    24   10   11 1   
    25   10   43 1   
    26   10   44 1   
    27   11   12 1   
    28   11   29 1   
    29   11   45 1   
    30   12   13 1   
    31   12   46 1   
    32   13   14 1   
    33   13   47 1   
    34   14   48 1   
    35   15   16 1   
    36   15   30 1   
    37   15   49 1   
    38   16   17 1   
    39   16   50 1   
    40   16   51 1   
    41   17   18 1   
    42   17   52 1   
    43   17   53 1   
    44   18   19 1   
    45   18   23 1   
    46   19   20 1   
    47   19   54 1   
    48   20   55 1   
    49   21   22 1   
    50   21   56 1   
    51   22   57 1   
    52   23   58 1   
    53   24   25 1   
    54   24   59 1   
    55   24   60 1   
    56   24   61 1   
    57   25   26 1   
    58   25   62 1   
    59   25   63 1   
    60   26   64 1   
    61   28   65 1   
    62   29   66 1   
    63   30   67 1   
@<TRIPOS>SUBSTRUCTURE
     1 15M         1 TEMP              0 ****  ****    0 ROOT
