@<TRIPOS>MOLECULE
15M
   68    69     1     0     0
SMALL
bcc


@<TRIPOS>ATOM
      1 C1          1.1740   -1.5140   -2.8930 c         1 15M      0.550100
      2 C2          2.5660   -1.5180   -2.3410 c3        1 15M     -0.176400
      3 C3          2.6940   -0.8670   -0.9800 c3        1 15M     -0.088400
      4 C4          4.1630   -0.7390   -0.6130 c3        1 15M     -0.043200
      5 C5          4.3350   -0.1840    0.7500 c2        1 15M     -0.224200
      6 C6          5.4130   -0.4180    1.5080 c2        1 15M     -0.108200
      7 C7          6.5450   -1.2710    1.0770 c3        1 15M     -0.051200
      8 C8          7.7100   -1.2600    2.0450 c3        1 15M     -0.090700
      9 C9          7.4670   -2.0960    3.3210 c3        1 15M      0.145100
     10 C10         8.8680   -2.5010    3.7900 c3        1 15M     -0.118400
     11 C11         9.7130   -2.6300    2.5180 c3        1 15M      0.145100
     12 C12         8.9770   -1.8490    1.4010 c3        1 15M     -0.087500
     13 C13         9.8410   -0.7990    0.8080 c2        1 15M     -0.130200
     14 C14        10.3950   -0.8350   -0.4070 c2        1 15M     -0.219200
     15 C15        10.2840   -1.9290   -1.4220 c3        1 15M      0.176300
     16 C16         8.9290   -1.9360   -2.1310 c3        1 15M     -0.073400
     17 C17         8.7850   -0.7260   -3.0330 c3        1 15M     -0.044100
     18 C18         7.4400   -0.6680   -3.6690 ca        1 15M     -0.066300
     19 C19         7.0910   -1.5850   -4.6690 ca        1 15M     -0.124500
     20 C20         5.8470   -1.5090   -5.2920 ca        1 15M     -0.138000
     21 C21         4.9370   -0.5180   -4.9210 ca        1 15M     -0.159000
     22 C22         5.2760    0.3950   -3.9230 ca        1 15M     -0.138000
     23 C23         6.5200    0.3200   -3.2970 ca        1 15M     -0.124500
     24 C24        -2.3450   -2.3280   -1.4930 c3        1 15M     -0.137100
     25 C25        -1.2730   -2.0150   -2.5130 c3        1 15M      0.107800
     26 N           0.0740   -1.8380   -1.8920 ny        1 15M     -0.685800
     27 O1          0.8170   -1.3000   -4.0390 o         1 15M     -0.401100
     28 O9          6.6570   -3.2310    3.0790 oh        1 15M     -0.601800
     29 O11         9.7720   -4.0140    2.2060 oh        1 15M     -0.606800
     30 O15        10.4290   -3.2210   -0.8350 oh        1 15M     -0.609800
     31 H21A        2.9230   -2.5860   -2.3010 hc        1 15M      0.130700
     32 H22A        3.2250   -0.9780   -3.0900 hc        1 15M      0.130700
     33 H31         2.1810   -1.4810   -0.1940 hc        1 15M      0.046700
     34 H32         2.2240    0.1520   -0.9890 hc        1 15M      0.046700
     35 H41         4.6820   -0.0740   -1.3610 hc        1 15M      0.065200
     36 H42         4.6490   -1.7510   -0.6840 hc        1 15M      0.065200
     37 H5          3.5230    0.4650    1.1150 ha        1 15M      0.122000
     38 H6          5.4920    0.0250    2.5150 ha        1 15M      0.137000
     39 H71         6.1820   -2.3300    0.9510 hc        1 15M      0.060200
     40 H72         6.9060   -0.9190    0.0700 hc        1 15M      0.060200
     41 H8          7.9130   -0.2030    2.3670 hc        1 15M      0.060700
     42 H9          6.9040   -1.5070    4.0930 h1        1 15M      0.078700
     43 H101        9.2990   -1.7150    4.4550 hc        1 15M      0.076200
     44 H102        8.8390   -3.4710    4.3470 hc        1 15M      0.076200
     45 H11        10.7540   -2.2380    2.6740 h1        1 15M      0.049700
     46 H12         8.6750   -2.5910    0.6050 hc        1 15M      0.083700
     47 H13        10.0220    0.0730    1.4620 ha        1 15M      0.127000
     48 H14        11.0090    0.0190   -0.7450 ha        1 15M      0.130000
     49 H15        11.0980   -1.7900   -2.1930 h1        1 15M      0.044700
     50 H161        8.8450   -2.8790   -2.7320 hc        1 15M      0.055700
     51 H162        8.1090   -1.9500   -1.3680 hc        1 15M      0.055700
     52 H171        9.5690   -0.7640   -3.8380 hc        1 15M      0.059200
     53 H172        8.9700    0.2060   -2.4350 hc        1 15M      0.059200
     54 H19         7.8120   -2.3600   -4.9700 ha        1 15M      0.141500
     55 H20         5.5890   -2.2230   -6.0890 ha        1 15M      0.132500
     56 H21         3.9710   -0.4380   -5.4400 ha        1 15M      0.128000
     57 H22         4.5740    1.1960   -3.6460 ha        1 15M      0.132500
     58 H23         6.7870    1.0520   -2.5190 ha        1 15M      0.141500
     59 H241       -3.3160   -2.4460   -2.0400 hc        1 15M      0.080367
     60 H242       -2.4660   -1.5020   -0.7490 hc        1 15M      0.080367
     61 H243       -2.1370   -3.2810   -0.9480 hc        1 15M      0.080367
     62 H251       -1.1900   -2.8480   -3.2700 hx        1 15M      0.114700
     63 H252       -1.5200   -1.0640   -3.0690 hx        1 15M      0.114700
     64 HN          0.0360   -1.0740   -1.2060 hn        1 15M      0.458800
     65 HO9         7.2000   -3.8680    2.5930 ho        1 15M      0.415000
     66 H1         10.1900   -4.0940    1.3370 ho        1 15M      0.415000
     67 H2         11.3440   -3.2840   -0.5340 ho        1 15M      0.408000
     68 HN3         0.3350   -2.6930   -1.3890 hn        1 15M      0.458800
@<TRIPOS>BOND
     1    1    2 1   
     2    1   26 1   
     3    1   27 2   
     4    2    3 1   
     5    2   31 1   
     6    2   32 1   
     7    3    4 1   
     8    3   33 1   
     9    3   34 1   
    10    4    5 1   
    11    4   35 1   
    12    4   36 1   
    13    5    6 2   
    14    5   37 1   
    15    6    7 1   
    16    6   38 1   
    17    7    8 1   
    18    7   39 1   
    19    7   40 1   
    20    8    9 1   
    21    8   12 1   
    22    8   41 1   
    23    9   10 1   
    24    9   28 1   
    25    9   42 1   
    26   10   11 1   
    27   10   43 1   
    28   10   44 1   
    29   11   12 1   
    30   11   29 1   
    31   11   45 1   
    32   12   13 1   
    33   12   46 1   
    34   13   14 2   
    35   13   47 1   
    36   14   15 1   
    37   14   48 1   
    38   15   16 1   
    39   15   30 1   
    40   15   49 1   
    41   16   17 1   
    42   16   50 1   
    43   16   51 1   
    44   17   18 1   
    45   17   52 1   
    46   17   53 1   
    47   18   19 ar  
    48   18   23 ar  
    49   19   20 ar  
    50   19   54 1   
    51   20   21 ar  
    52   20   55 1   
    53   21   22 ar  
    54   21   56 1   
    55   22   23 ar  
    56   22   57 1   
    57   23   58 1   
    58   24   25 1   
    59   24   59 1   
    60   24   60 1   
    61   24   61 1   
    62   25   26 1   
    63   25   62 1   
    64   25   63 1   
    65   26   64 1   
    66   26   68 1   
    67   28   65 1   
    68   29   66 1   
    69   30   67 1   
@<TRIPOS>SUBSTRUCTURE
     1 15M         1 TEMP              0 ****  ****    0 ROOT
