@<TRIPOS>MOLECULE
15M
   68    69     1     0     0
SMALL
bcc


@<TRIPOS>ATOM
      1 C1          0.2330   -1.2360    2.3260 c         1 15M      0.550100
      2 C2          0.6770    0.1700    2.0470 c3        1 15M     -0.151400
      3 C3          2.1040    0.4030    2.5050 c3        1 15M     -0.093400
      4 C4          2.5410    1.8240    2.1840 c3        1 15M     -0.041200
      5 C5          4.0000    1.9740    2.4100 c2        1 15M     -0.181200
      6 C6          4.9630    1.6060    1.5600 c2        1 15M     -0.151200
      7 C7          4.7690    1.0120    0.2150 c3        1 15M     -0.049200
      8 C8          5.5450   -0.2790    0.0350 c3        1 15M     -0.081700
      9 C9          4.7950   -1.5440    0.5020 c3        1 15M      0.145100
     10 C10         5.4920   -2.6870   -0.2400 c3        1 15M     -0.119400
     11 C11         5.8900   -2.0970   -1.6010 c3        1 15M      0.138100
     12 C12         5.8840   -0.5570   -1.4430 c3        1 15M     -0.062500
     13 C13         7.1030    0.1530   -1.8950 c2        1 15M     -0.159200
     14 C14         8.4020   -0.1400   -1.8100 c2        1 15M     -0.186200
     15 C15         9.1400   -1.2910   -1.2110 c3        1 15M      0.168300
     16 C16         9.4770   -2.3490   -2.2660 c3        1 15M     -0.074400
     17 C17        10.8120   -2.0540   -2.9250 c3        1 15M     -0.034100
     18 C18        11.1240   -3.0510   -3.9850 ca        1 15M     -0.090300
     19 C19        11.4930   -4.3550   -3.6360 ca        1 15M     -0.126500
     20 C20        11.7990   -5.2880   -4.6250 ca        1 15M     -0.125500
     21 C21        11.7400   -4.9250   -5.9710 ca        1 15M     -0.125000
     22 C22        11.3750   -3.6270   -6.3250 ca        1 15M     -0.125500
     23 C23        11.0680   -2.6920   -5.3370 ca        1 15M     -0.126500
     24 C24         0.8500   -3.6120   -0.6320 c3        1 15M     -0.137100
     25 C25         0.1800   -2.5530    0.2180 c3        1 15M      0.120800
     26 N           0.8980   -2.3240    1.5110 n4        1 15M     -0.693800
     27 O1         -0.5950   -1.6210    3.1360 o         1 15M     -0.411100
     28 O9          3.4130   -1.5160    0.1490 oh        1 15M     -0.684800
     29 O11         4.8710   -2.4820   -2.5180 oh        1 15M     -0.628800
     30 O15         8.4260   -1.9600   -0.1770 oh        1 15M     -0.607800
     31 H21A        0.5800    0.3860    0.9480 hc        1 15M      0.108700
     32 H22A       -0.0230    0.8580    2.6000 hc        1 15M      0.108700
     33 H31         2.8070   -0.3050    1.9860 hc        1 15M      0.066700
     34 H32         2.1850    0.2270    3.6090 hc        1 15M      0.066700
     35 H41         1.9780    2.5460    2.8340 hc        1 15M      0.058200
     36 H42         2.2830    2.0700    1.1190 hc        1 15M      0.058200
     37 H5          4.2710    2.4380    3.3750 ha        1 15M      0.137000
     38 H6          6.0210    1.7720    1.8350 ha        1 15M      0.133000
     39 H71         5.1330    1.7600   -0.5460 hc        1 15M      0.056200
     40 H72         3.6820    0.8260    0.0030 hc        1 15M      0.056200
     41 H8          6.5040   -0.2260    0.6200 hc        1 15M      0.070700
     42 H9          4.8020   -1.6570    1.6160 h1        1 15M      0.073700
     43 H101        6.4130   -3.0050    0.3100 hc        1 15M      0.081700
     44 H102        4.8150   -3.5650   -0.3680 hc        1 15M      0.081700
     45 H11         6.8910   -2.4780   -1.9300 h1        1 15M      0.086700
     46 H12         5.0240   -0.1730   -2.0700 hc        1 15M      0.059700
     47 H13         6.8480    1.1110   -2.3970 ha        1 15M      0.121000
     48 H14         9.1090    0.5760   -2.2790 ha        1 15M      0.132000
     49 H15        10.1020   -0.8890   -0.7690 h1        1 15M      0.049700
     50 H161        8.6730   -2.3830   -3.0460 hc        1 15M      0.060200
     51 H162        9.5110   -3.3550   -1.7700 hc        1 15M      0.060200
     52 H171       11.6250   -2.0720   -2.1490 hc        1 15M      0.050700
     53 H172       10.7910   -1.0190   -3.3610 hc        1 15M      0.050700
     54 H19        11.5460   -4.6410   -2.5750 ha        1 15M      0.130000
     55 H20        12.0920   -6.3100   -4.3430 ha        1 15M      0.136000
     56 H21        11.9860   -5.6610   -6.7510 ha        1 15M      0.137000
     57 H22        11.3330   -3.3370   -7.3850 ha        1 15M      0.136000
     58 H23        10.7870   -1.6680   -5.6220 ha        1 15M      0.130000
     59 H241        0.8330   -4.6120   -0.1340 hc        1 15M      0.082033
     60 H242        1.9120   -3.3400   -0.8640 hc        1 15M      0.082033
     61 H243        0.2880   -3.6920   -1.5970 hc        1 15M      0.082033
     62 H251       -0.8780   -2.8550    0.4640 hx        1 15M      0.101200
     63 H252        0.1610   -1.5710   -0.3360 hx        1 15M      0.101200
     64 HN          0.8990   -3.2010    2.0450 hn        1 15M      0.472300
     65 HO9         3.3740   -1.4980   -0.8190 ho        1 15M      0.437000
     66 H1          5.2230   -2.3510   -3.4060 ho        1 15M      0.417000
     67 H2          8.3740   -1.3450    0.5640 ho        1 15M      0.400000
     68 HN3         1.8780   -2.0590    1.3110 hn        1 15M      0.472300
@<TRIPOS>BOND
     1    1    2 1   
     2    1   26 1   
     3    1   27 2   
     4    2    3 1   
     5    2   31 1   
     6    2   32 1   
     7    3    4 1   
     8    3   33 1   
     9    3   34 1   
    10    4    5 1   
    11    4   35 1   
    12    4   36 1   
    13    5    6 2   
    14    5   37 1   
    15    6    7 1   
    16    6   38 1   
    17    7    8 1   
    18    7   39 1   
    19    7   40 1   
    20    8    9 1   
    21    8   12 1   
    22    8   41 1   
    23    9   10 1   
    24    9   28 1   
    25    9   42 1   
    26   10   11 1   
    27   10   43 1   
    28   10   44 1   
    29   11   12 1   
    30   11   29 1   
    31   11   45 1   
    32   12   13 1   
    33   12   46 1   
    34   13   14 2   
    35   13   47 1   
    36   14   15 1   
    37   14   48 1   
    38   15   16 1   
    39   15   30 1   
    40   15   49 1   
    41   16   17 1   
    42   16   50 1   
    43   16   51 1   
    44   17   18 1   
    45   17   52 1   
    46   17   53 1   
    47   18   19 ar  
    48   18   23 ar  
    49   19   20 ar  
    50   19   54 1   
    51   20   21 ar  
    52   20   55 1   
    53   21   22 ar  
    54   21   56 1   
    55   22   23 ar  
    56   22   57 1   
    57   23   58 1   
    58   24   25 1   
    59   24   59 1   
    60   24   60 1   
    61   24   61 1   
    62   25   26 1   
    63   25   62 1   
    64   25   63 1   
    65   26   64 1   
    66   26   68 1   
    67   28   65 1   
    68   29   66 1   
    69   30   67 1   
@<TRIPOS>SUBSTRUCTURE
     1 15M         1 TEMP              0 ****  ****    0 ROOT
