@<TRIPOS>MOLECULE
15M
   67    68     1     0     0
SMALL
bcc


@<TRIPOS>ATOM
      1 C1          5.1850    3.4140   -0.5820 c         1 15M      0.656100
      2 C2          4.1130    2.4220   -0.1680 c3        1 15M     -0.155400
      3 C3          4.5440    0.9890   -0.3900 c3        1 15M     -0.074400
      4 C4          3.4010    0.0350   -0.0960 c3        1 15M     -0.048200
      5 C5          3.8040   -1.3810   -0.2690 c2        1 15M     -0.181200
      6 C6          3.0350   -2.4320    0.0290 c2        1 15M     -0.158200
      7 C7          1.6710   -2.3620    0.6050 c3        1 15M     -0.037200
      8 C8          0.7240   -3.3450   -0.0610 c3        1 15M     -0.046700
      9 C9          1.0270   -4.8250    0.2370 c3        1 15M      0.147100
     10 C10        -0.3180   -5.5360    0.4270 c3        1 15M     -0.155400
     11 C11        -1.4200   -4.4770    0.3340 c3        1 15M      0.150100
     12 C12        -0.7290   -3.0990    0.3770 c3        1 15M     -0.034500
     13 C13        -1.4090   -2.1230   -0.5130 c2        1 15M     -0.149200
     14 C14        -1.8960   -0.9540   -0.0890 c2        1 15M     -0.204200
     15 C15        -2.5650    0.0370   -0.9870 c3        1 15M      0.167300
     16 C16        -3.7440    0.6950   -0.2700 c3        1 15M     -0.103400
     17 C17        -4.3350    1.8100   -1.1110 c3        1 15M     -0.039100
     18 C18        -5.5550    2.3860   -0.4840 ca        1 15M     -0.077300
     19 C19        -6.7570    1.6670   -0.4890 ca        1 15M     -0.128000
     20 C20        -7.9030    2.2070    0.0900 ca        1 15M     -0.128000
     21 C21        -7.8620    3.4710    0.6780 ca        1 15M     -0.133000
     22 C22        -6.6690    4.1930    0.6850 ca        1 15M     -0.128000
     23 C23        -5.5200    3.6540    0.1070 ca        1 15M     -0.128000
     24 C24         7.7750    5.1920    1.0550 c3        1 15M     -0.119100
     25 C25         7.4510    4.3090   -0.1410 c3        1 15M      0.085000
     26 N           6.3940    3.3620    0.0840 n         1 15M     -0.572900
     27 O1          4.9830    4.2330   -1.5010 o         1 15M     -0.610100
     28 O9          1.8330   -4.9140    1.4030 oh        1 15M     -0.592800
     29 O11        -2.3060   -4.5400    1.4400 oh        1 15M     -0.591800
     30 O15        -2.9710   -0.5320   -2.2240 oh        1 15M     -0.595800
     31 H21A        3.8500    2.5870    0.9090 hc        1 15M      0.069700
     32 H22A        3.1980    2.6440   -0.7810 hc        1 15M      0.069700
     33 H31         4.8810    0.8570   -1.4520 hc        1 15M      0.048700
     34 H32         5.4150    0.7390    0.2710 hc        1 15M      0.048700
     35 H41         3.0390    0.2020    0.9550 hc        1 15M      0.049700
     36 H42         2.5380    0.2660   -0.7790 hc        1 15M      0.049700
     37 H5          4.8160   -1.5410   -0.6780 ha        1 15M      0.120000
     38 H6          3.4090   -3.4590   -0.1220 ha        1 15M      0.126000
     39 H71         1.7340   -2.5910    1.7050 hc        1 15M      0.060200
     40 H72         1.2430   -1.3290    0.4960 hc        1 15M      0.060200
     41 H8          0.7960   -3.2120   -1.1770 hc        1 15M      0.058700
     42 H9          1.5950   -5.2790   -0.6230 h1        1 15M      0.034700
     43 H101       -0.4600   -6.3170   -0.3590 hc        1 15M      0.056200
     44 H102       -0.3540   -6.0360    1.4280 hc        1 15M      0.056200
     45 H11        -2.0050   -4.6020   -0.6190 h1        1 15M      0.037700
     46 H12        -0.7420   -2.7370    1.4430 hc        1 15M      0.084700
     47 H13        -1.4890   -2.4180   -1.5740 ha        1 15M      0.131000
     48 H14        -1.8160   -0.6410    0.9640 ha        1 15M      0.132000
     49 H15        -1.8150    0.8250   -1.2950 h1        1 15M      0.082700
     50 H161       -4.5290   -0.0760   -0.0590 hc        1 15M      0.051700
     51 H162       -3.3940    1.1030    0.7130 hc        1 15M      0.051700
     52 H171       -3.5630    2.6110   -1.2620 hc        1 15M      0.057200
     53 H172       -4.5890    1.4020   -2.1280 hc        1 15M      0.057200
     54 H19        -6.7920    0.6710   -0.9550 ha        1 15M      0.130500
     55 H20        -8.8430    1.6350    0.0810 ha        1 15M      0.130000
     56 H21        -8.7670    3.8970    1.1340 ha        1 15M      0.130000
     57 H22        -6.6330    5.1910    1.1470 ha        1 15M      0.130000
     58 H23        -4.5820    4.2300    0.1140 ha        1 15M      0.130500
     59 H241        8.6260    5.8620    0.7850 hc        1 15M      0.040367
     60 H242        6.9000    5.8260    1.3360 hc        1 15M      0.040367
     61 H243        8.0710    4.5830    1.9420 hc        1 15M      0.040367
     62 H251        7.1690    4.9610   -1.0180 h1        1 15M      0.060200
     63 H252        8.3800    3.7310   -0.4230 h1        1 15M      0.060200
     64 HN          6.4790    2.7660    0.8720 hn        1 15M      0.304500
     65 HO9         1.9330   -5.8530    1.5990 ho        1 15M      0.399000
     66 H1         -2.7250   -5.4080    1.4100 ho        1 15M      0.399000
     67 H2         -3.6200   -1.2160   -2.0230 ho        1 15M      0.398000
@<TRIPOS>BOND
     1    1    2 1   
     2    1   26 1   
     3    1   27 2   
     4    2    3 1   
     5    2   31 1   
     6    2   32 1   
     7    3    4 1   
     8    3   33 1   
     9    3   34 1   
    10    4    5 1   
    11    4   35 1   
    12    4   36 1   
    13    5    6 2   
    14    5   37 1   
    15    6    7 1   
    16    6   38 1   
    17    7    8 1   
    18    7   39 1   
    19    7   40 1   
    20    8    9 1   
    21    8   12 1   
    22    8   41 1   
    23    9   10 1   
    24    9   28 1   
    25    9   42 1   
    26   10   11 1   
    27   10   43 1   
    28   10   44 1   
    29   11   12 1   
    30   11   29 1   
    31   11   45 1   
    32   12   13 1   
    33   12   46 1   
    34   13   14 2   
    35   13   47 1   
    36   14   15 1   
    37   14   48 1   
    38   15   16 1   
    39   15   30 1   
    40   15   49 1   
    41   16   17 1   
    42   16   50 1   
    43   16   51 1   
    44   17   18 1   
    45   17   52 1   
    46   17   53 1   
    47   18   19 ar  
    48   18   23 ar  
    49   19   20 ar  
    50   19   54 1   
    51   20   21 ar  
    52   20   55 1   
    53   21   22 ar  
    54   21   56 1   
    55   22   23 ar  
    56   22   57 1   
    57   23   58 1   
    58   24   25 1   
    59   24   59 1   
    60   24   60 1   
    61   24   61 1   
    62   25   26 1   
    63   25   62 1   
    64   25   63 1   
    65   26   64 1   
    66   28   65 1   
    67   29   66 1   
    68   30   67 1   
@<TRIPOS>SUBSTRUCTURE
     1 15M         1 TEMP              0 ****  ****    0 ROOT
