@<TRIPOS>MOLECULE
15N
   20    21     1     0     0
SMALL
bcc


@<TRIPOS>ATOM
      1 OAA         1.1450    1.2210    0.5270 o         1 15N     -0.812300
      2 CAJ         1.4190    0.0540    0.1460 c         1 15N      0.934600
      3 OAB         1.0830   -1.0150    0.7150 o         1 15N     -0.812300
      4 CAM         2.1960   -0.1000   -1.2070 c3        1 15N     -0.032900
      5 OAI         3.5920    0.1040   -0.9230 os        1 15N     -0.284900
      6 CAL         4.3550    0.3470   -2.0400 ca        1 15N      0.086100
      7 CAF         5.7460    0.2300   -1.9170 ca        1 15N     -0.146000
      8 CAD         6.5560    0.4860   -3.0210 ca        1 15N     -0.146000
      9 CAC         5.9970    0.8520   -4.2450 ca        1 15N     -0.162000
     10 CAE         4.6160    0.9830   -4.3810 ca        1 15N     -0.140000
     11 CAK         3.7930    0.7370   -3.2770 ca        1 15N      0.061100
     12 OAH         2.4300    0.8680   -3.4540 os        1 15N     -0.346900
     13 CAG         1.6940    0.9160   -2.2170 c3        1 15N      0.103400
     14 H2          2.0820   -1.1450   -1.6000 h1        1 15N      0.049700
     15 H3          6.1740   -0.0610   -0.9480 ha        1 15N      0.142000
     16 H4          7.6470    0.3950   -2.9230 ha        1 15N      0.114000
     17 H5          6.6460    1.0440   -5.1090 ha        1 15N      0.113000
     18 H6          4.1640    1.2770   -5.3370 ha        1 15N      0.131000
     19 H7          1.7690    1.9510   -1.7920 h1        1 15N      0.073700
     20 H8          0.6410    0.6910   -2.5240 h1        1 15N      0.073700
@<TRIPOS>BOND
     1    1    2 1   
     2    2    3 1   
     3    2    4 1   
     4    4    5 1   
     5    4   13 1   
     6    4   14 1   
     7    5    6 1   
     8    6    7 ar  
     9    6   11 ar  
    10    7    8 ar  
    11    7   15 1   
    12    8    9 ar  
    13    8   16 1   
    14    9   10 ar  
    15    9   17 1   
    16   10   11 ar  
    17   10   18 1   
    18   11   12 1   
    19   12   13 1   
    20   13   19 1   
    21   13   20 1   
@<TRIPOS>SUBSTRUCTURE
     1 15N         1 TEMP              0 ****  ****    0 ROOT
