@<TRIPOS>MOLECULE
15N
   20    17     1     0     0
SMALL
bcc


@<TRIPOS>ATOM
      1 OAA        -3.3170   -0.6130    2.8450 o         1 15N     -0.547000
      2 CAJ        -2.3180    0.0680    2.4950 c1        1 15N      0.354000
      3 OAB        -1.9720    1.0730    3.1700 o         1 15N     -0.547000
      4 CAM        -1.4910   -0.3390    1.1870 c2        1 15N     -0.094000
      5 OAI        -0.1370   -0.2230    1.4150 os        1 15N     -0.168000
      6 CAL         0.7530   -0.1050    0.2360 c1        1 15N      0.041000
      7 CAF         2.1280   -0.2410    0.3400 c1        1 15N     -0.148500
      8 CAD         2.9270   -0.2270   -0.8200 c1        1 15N     -0.148500
      9 CAC         2.3210   -0.0730   -2.1050 c1        1 15N     -0.148500
     10 CAE         0.9240    0.0660   -2.2150 c1        1 15N     -0.148500
     11 CAK         0.1340    0.0520   -1.0760 c1        1 15N      0.016000
     12 OAH        -1.3160    0.2720   -1.1310 os        1 15N     -0.230000
     13 CAG        -1.9490    0.4610    0.0060 c3        1 15N     -0.047000
     14 H2         -1.7460   -1.2770    1.0890 h4        1 15N      0.089000
     15 H3          2.5430   -0.3500    1.2160 ha        1 15N      0.125000
     16 H4          3.8950   -0.3270   -0.7460 ha        1 15N      0.125000
     17 H5          2.8760   -0.0580   -2.9080 ha        1 15N      0.125000
     18 H6          0.5120    0.1710   -3.0930 ha        1 15N      0.125000
     19 H7         -2.8970    0.2610   -0.1420 h1        1 15N      0.113000
     20 H8         -1.8710    1.4090    0.2380 h1        1 15N      0.113000
@<TRIPOS>BOND
     1    1    2 1   
     2    2    3 1   
     3    4    5 1   
     4    4   13 1   
     5    4   14 1   
     6    5    6 1   
     7    6   11 1   
     8    7    8 1   
     9    7   15 1   
    10    8   16 1   
    11    9   10 1   
    12    9   17 1   
    13   10   18 1   
    14   11   12 1   
    15   12   13 1   
    16   13   19 1   
    17   13   20 1   
@<TRIPOS>SUBSTRUCTURE
     1 15N         1 TEMP              0 ****  ****    0 ROOT
