@<TRIPOS>MOLECULE
15N
   20    21     1     0     0
SMALL
bcc


@<TRIPOS>ATOM
      1 OAA         1.2340    1.2070    0.6190 o         1 15N     -0.812300
      2 CAJ         1.3690    0.0640    0.1120 c         1 15N      0.934600
      3 OAB         0.9070   -1.0130    0.5660 o         1 15N     -0.812300
      4 CAM         2.1270   -0.0340   -1.2570 c3        1 15N     -0.032900
      5 OAI         3.5370   -0.0270   -0.9650 os        1 15N     -0.284900
      6 CAL         4.3270    0.2440   -2.0570 ca        1 15N      0.086100
      7 CAF         5.6940   -0.0480   -1.9590 ca        1 15N     -0.146000
      8 CAD         6.5330    0.2280   -3.0370 ca        1 15N     -0.146000
      9 CAC         6.0250    0.7860   -4.2090 ca        1 15N     -0.162000
     10 CAE         4.6690    1.0920   -4.3180 ca        1 15N     -0.140000
     11 CAK         3.8190    0.8270   -3.2390 ca        1 15N      0.061100
     12 OAH         2.4820    1.1350   -3.3890 os        1 15N     -0.346900
     13 CAG         1.7520    1.1360   -2.1470 c3        1 15N      0.103400
     14 H2          1.8930   -1.0110   -1.7580 h1        1 15N      0.049700
     15 H3          6.0820   -0.4900   -1.0310 ha        1 15N      0.142000
     16 H4          7.6050   -0.0010   -2.9590 ha        1 15N      0.114000
     17 H5          6.6950    0.9930   -5.0540 ha        1 15N      0.113000
     18 H6          4.2580    1.5380   -5.2330 ha        1 15N      0.131000
     19 H7          0.6810    1.0710   -2.4670 h1        1 15N      0.073700
     20 H8          1.9460    2.1040   -1.6140 h1        1 15N      0.073700
@<TRIPOS>BOND
     1    1    2 1   
     2    2    3 1   
     3    2    4 1   
     4    4    5 1   
     5    4   13 1   
     6    4   14 1   
     7    5    6 1   
     8    6    7 ar  
     9    6   11 ar  
    10    7    8 ar  
    11    7   15 1   
    12    8    9 ar  
    13    8   16 1   
    14    9   10 ar  
    15    9   17 1   
    16   10   11 ar  
    17   10   18 1   
    18   11   12 1   
    19   12   13 1   
    20   13   19 1   
    21   13   20 1   
@<TRIPOS>SUBSTRUCTURE
     1 15N         1 TEMP              0 ****  ****    0 ROOT
