@<TRIPOS>MOLECULE
15O
   18    13     1     0     0
SMALL
bcc


@<TRIPOS>ATOM
      1 C01        -0.7320    0.0310   -2.4370 c1        1 15O     -0.122000
      2 C02         0.6590    0.0310   -2.4370 c1        1 15O     -0.119000
      3 C03         1.3540    0.0310   -1.2350 c1        1 15O     -0.119000
      4 C04         0.6510    0.0310   -0.0150 c1        1 15O     -0.030000
      5 C05        -0.7240    0.0310   -0.0150 c1        1 15O     -0.031000
      6 C06        -1.4270    0.0310   -1.2350 c2        1 15O     -0.120000
      7 C07        -1.4270    0.0310    1.2040 c1        1 15O     -0.119000
      8 C08        -0.7320    0.0310    2.4070 c1        1 15O     -0.119000
      9 C09         0.6590    0.0310    2.4070 c1        1 15O     -0.123000
     10 C10         1.3540    0.0310    1.2040 c1        1 15O     -0.049000
     11 CL1         2.9860   -0.5200    1.4790 cl        1 15O     -0.018000
     12 H1         -1.2200    0.0310   -3.2830 ha        1 15O      0.134000
     13 H2          1.1470    0.0310   -3.2830 ha        1 15O      0.138500
     14 H3          2.3300    0.0310   -1.2350 ha        1 15O      0.138500
     15 H4         -2.4030    0.0310   -1.2350 ha        1 15O      0.134000
     16 H5         -2.4030    0.0310    1.2050 ha        1 15O      0.138500
     17 H6         -1.2200    0.0310    3.2520 ha        1 15O      0.138500
     18 H7          1.1470    0.0310    3.2520 ha        1 15O      0.147000
@<TRIPOS>BOND
     1    1    6 1   
     2    1   12 1   
     3    2    3 1   
     4    2   13 1   
     5    3   14 1   
     6    4    5 1   
     7    5    6 1   
     8    6   15 1   
     9    7    8 1   
    10    7   16 1   
    11    8   17 1   
    12    9   10 1   
    13    9   18 1   
@<TRIPOS>SUBSTRUCTURE
     1 15O         1 TEMP              0 ****  ****    0 ROOT
