@<TRIPOS>MOLECULE
15O
   18    19     1     0     0
SMALL
bcc


@<TRIPOS>ATOM
      1 C01         2.9040    0.8550   -0.0010 ca        1 15O     -0.122000
      2 C02         1.9350    1.8870   -0.0010 ca        1 15O     -0.125000
      3 C03         0.5950    1.5840    0.0000 ca        1 15O     -0.112000
      4 C04         0.1570    0.2310    0.0000 ca        1 15O     -0.030000
      5 C05         1.1300   -0.8040   -0.0010 ca        1 15O     -0.031000
      6 C06         2.5100   -0.4600   -0.0010 ca        1 15O     -0.120000
      7 C07         0.7140   -2.1630   -0.0010 ca        1 15O     -0.116000
      8 C08        -0.6200   -2.4840   -0.0000 ca        1 15O     -0.123000
      9 C09        -1.6010   -1.4660    0.0010 ca        1 15O     -0.123000
     10 C10        -1.2210   -0.1410    0.0010 ca        1 15O      0.029400
     11 CL1        -2.4310    1.0580    0.0010 cl        1 15O     -0.096400
     12 H1          3.9710    1.1220   -0.0020 ha        1 15O      0.134000
     13 H2          2.2700    2.9340   -0.0000 ha        1 15O      0.135000
     14 H3         -0.1560    2.3890    0.0010 ha        1 15O      0.145000
     15 H4          3.2530   -1.2720   -0.0020 ha        1 15O      0.134000
     16 H5          1.4840   -2.9500   -0.0010 ha        1 15O      0.136000
     17 H6         -0.9470   -3.5350   -0.0000 ha        1 15O      0.138000
     18 H7         -2.6650   -1.7480    0.0010 ha        1 15O      0.147000
@<TRIPOS>BOND
     1    1    2 ar  
     2    1    6 ar  
     3    1   12 1   
     4    2    3 ar  
     5    2   13 1   
     6    3    4 ar  
     7    3   14 1   
     8    4    5 ar  
     9    4   10 ar  
    10    5    6 ar  
    11    5    7 ar  
    12    6   15 1   
    13    7    8 ar  
    14    7   16 1   
    15    8    9 ar  
    16    8   17 1   
    17    9   10 ar  
    18    9   18 1   
    19   10   11 1   
@<TRIPOS>SUBSTRUCTURE
     1 15O         1 TEMP              0 ****  ****    0 ROOT
