@<TRIPOS>MOLECULE
15Q
   28    29     1     0     0
SMALL
bcc


@<TRIPOS>ATOM
      1 CAK        -0.0050   -0.1180    0.0760 ca        1 15Q     -0.109000
      2 CAO         1.3960   -0.1380    0.1280 ca        1 15Q      0.031900
      3 FAD         2.1290   -0.2060   -1.0120 f         1 15Q     -0.145900
      4 CAM         2.0560   -0.0870    1.3780 ca        1 15Q      0.104100
      5 OAB         3.4230   -0.1010    1.4960 oh        1 15Q     -0.487100
      6 CAG         1.3070   -0.0170    2.5620 ca        1 15Q     -0.140000
      7 CAI        -0.0810   -0.0000    2.4960 ca        1 15Q     -0.084000
      8 CAR        -0.7440   -0.0520    1.2620 cp        1 15Q     -0.052000
      9 CAS        -2.2060   -0.0080    1.1960 cp        1 15Q     -0.071000
     10 CAP        -3.0150   -0.9940    1.7860 ca        1 15Q      0.075400
     11 CL         -2.3080   -2.3120    2.5940 cl        1 15Q     -0.069400
     12 CAJ        -2.8180    1.0560    0.5190 ca        1 15Q     -0.065000
     13 CAH        -4.2000    1.1510    0.4330 ca        1 15Q     -0.218000
     14 CAN        -5.0000    0.1660    1.0320 ca        1 15Q      0.162100
     15 OAC        -6.3710    0.1970    0.9620 oh        1 15Q     -0.478100
     16 CAQ        -4.4150   -0.9190    1.7140 ca        1 15Q     -0.152900
     17 CAF        -5.2450   -1.9750    2.3080 ce        1 15Q      0.408800
     18 NAL        -6.0810   -1.7190    3.2750 n2        1 15Q     -0.413200
     19 OAA        -6.7690   -2.7520    3.7090 oh        1 15Q     -0.357500
     20 H1         -0.5120   -0.1600   -0.9000 ha        1 15Q      0.154000
     21 H2          3.8000   -0.1660    0.6050 ho        1 15Q      0.431000
     22 H3          1.8330    0.0230    3.5270 ha        1 15Q      0.159000
     23 H4         -0.6680    0.0520    3.4270 ha        1 15Q      0.149000
     24 H5         -2.1860    1.8280    0.0520 ha        1 15Q      0.146000
     25 H6         -4.6680    1.9930   -0.0970 ha        1 15Q      0.142000
     26 H7         -6.6270    1.0110    0.5020 ho        1 15Q      0.423000
     27 H8         -5.1020   -2.9860    1.8720 h4        1 15Q      0.016800
     28 H11        -7.3410   -2.3870    4.4140 ho        1 15Q      0.440000
@<TRIPOS>BOND
     1    1    2 ar  
     2    1    8 ar  
     3    1   20 1   
     4    2    3 1   
     5    2    4 ar  
     6    4    5 1   
     7    4    6 ar  
     8    5   21 1   
     9    6    7 ar  
    10    6   22 1   
    11    7    8 ar  
    12    7   23 1   
    13    8    9 1   
    14    9   10 ar  
    15    9   12 ar  
    16   10   11 1   
    17   10   16 ar  
    18   12   13 ar  
    19   12   24 1   
    20   13   14 ar  
    21   13   25 1   
    22   14   15 1   
    23   14   16 ar  
    24   15   26 1   
    25   16   17 1   
    26   17   18 2   
    27   17   27 1   
    28   18   19 1   
    29   19   28 1   
@<TRIPOS>SUBSTRUCTURE
     1 15Q         1 TEMP              0 ****  ****    0 ROOT
