@<TRIPOS>MOLECULE
15Q
   28    21     1     0     0
SMALL
bcc


@<TRIPOS>ATOM
      1 CAK         2.0360    1.1130    0.7600 c1        1 15Q     -0.123000
      2 CAO         3.4270    1.0940    0.7570 c1        1 15Q      0.065000
      3 FAD         4.1160    1.8200    1.6700 f         1 15Q     -0.090000
      4 CAM         4.1100    0.3130   -0.1650 c1        1 15Q      0.052000
      5 OAB         5.5180    0.3200   -0.1850 o         1 15Q     -0.239500
      6 CAG         3.4000   -0.4550   -1.0920 c2        1 15Q     -0.193000
      7 CAI         2.0070   -0.4370   -1.0910 c1        1 15Q     -0.082000
      8 CAR         1.3240    0.3470   -0.1660 c1        1 15Q     -0.049000
      9 CAS        -0.2160    0.3860   -0.1750 c1        1 15Q     -0.072000
     10 CAP        -0.9320   -0.4440    0.6570 c1        1 15Q      0.000000
     11 CL         -0.1010   -1.4890    1.7640 cl        1 15Q      0.005000
     12 CAJ        -0.8800    1.2660   -1.0120 c2        1 15Q     -0.064000
     13 CAH        -2.2580    1.3100   -1.0130 c1        1 15Q     -0.218000
     14 CAN        -2.9770    0.4770   -0.1780 c1        1 15Q      0.120000
     15 OAC        -4.3920    0.4680   -0.2320 oh        1 15Q     -0.234000
     16 CAQ        -2.3170   -0.3990    0.6560 c2        1 15Q     -0.099000
     17 CAF        -3.1000   -1.2550    1.6190 c2        1 15Q     -0.083000
     18 NAL        -3.5450   -2.4320    1.2400 n1        1 15Q     -0.038000
     19 OAA        -3.2970   -2.8820   -0.0300 o         1 15Q     -0.239500
     20 H1          1.5470    1.6750    1.4210 ha        1 15Q      0.155000
     21 H2          5.8020    0.7730   -0.8990 ho        1 15Q      0.228000
     22 H3          3.8810   -1.0070   -1.7430 ha        1 15Q      0.141000
     23 H4          1.5070   -0.9760   -1.7430 ha        1 15Q      0.148000
     24 H5         -0.3710    1.8570   -1.6050 ha        1 15Q      0.146000
     25 H6         -2.7260    1.9300   -1.6040 ha        1 15Q      0.142000
     26 H7         -4.7070    1.2940   -0.0380 ho        1 15Q      0.223000
     27 H8         -3.2800   -0.9300    2.5340 h4        1 15Q      0.170000
     28 H11        -3.5760   -3.7340   -0.1070 ho        1 15Q      0.228000
@<TRIPOS>BOND
     1    1    8 1   
     2    1   20 1   
     3    2    4 1   
     4    4    6 1   
     5    5   21 1   
     6    6    7 1   
     7    6   22 1   
     8    7   23 1   
     9    9   10 1   
    10    9   12 1   
    11   10   16 1   
    12   12   13 1   
    13   12   24 1   
    14   13   25 1   
    15   14   15 1   
    16   14   16 1   
    17   15   26 1   
    18   16   17 1   
    19   17   18 1   
    20   17   27 1   
    21   19   28 1   
@<TRIPOS>SUBSTRUCTURE
     1 15Q         1 TEMP              0 ****  ****    0 ROOT
