@<TRIPOS>MOLECULE
15Q
   28    29     1     0     0
SMALL
bcc


@<TRIPOS>ATOM
      1 CAK        -0.0070   -0.1150    0.0730 ca        1 15Q     -0.109000
      2 CAO         1.3940   -0.1370    0.1230 ca        1 15Q      0.031900
      3 FAD         2.1250   -0.2000   -1.0190 f         1 15Q     -0.145900
      4 CAM         2.0560   -0.0950    1.3720 ca        1 15Q      0.104100
      5 OAB         3.4240   -0.1110    1.4880 oh        1 15Q     -0.487100
      6 CAG         1.3100   -0.0300    2.5570 ca        1 15Q     -0.140000
      7 CAI        -0.0790   -0.0100    2.4940 ca        1 15Q     -0.084000
      8 CAR        -0.7440   -0.0540    1.2600 cp        1 15Q     -0.052000
      9 CAS        -2.2060   -0.0070    1.1980 cp        1 15Q     -0.071000
     10 CAP        -3.0160   -0.9940    1.7840 ca        1 15Q      0.075400
     11 Cl         -2.3090   -2.3180    2.5840 cl        1 15Q     -0.069400
     12 CAJ        -2.8170    1.0620    0.5270 ca        1 15Q     -0.065000
     13 CAH        -4.1990    1.1600    0.4440 ca        1 15Q     -0.218000
     14 CAN        -5.0000    0.1730    1.0400 ca        1 15Q      0.162100
     15 OAC        -6.3710    0.2070    0.9720 oh        1 15Q     -0.478100
     16 CAQ        -4.4160   -0.9160    1.7160 ca        1 15Q     -0.152900
     17 CAF        -5.2470   -1.9730    2.3050 ce        1 15Q      0.408800
     18 NAL        -6.0800   -1.7200    3.2750 n2        1 15Q     -0.413200
     19 OAA        -6.7700   -2.7540    3.7050 oh        1 15Q     -0.357500
     20 H1         -0.5160   -0.1500   -0.9020 ha        1 15Q      0.154000
     21 H2          3.7990   -0.1720    0.5950 ho        1 15Q      0.431000
     22 H3          1.8370    0.0040    3.5220 ha        1 15Q      0.159000
     23 H4         -0.6640    0.0380    3.4260 ha        1 15Q      0.149000
     24 H5         -2.1840    1.8350    0.0620 ha        1 15Q      0.146000
     25 H6         -4.6670    2.0050   -0.0820 ha        1 15Q      0.142000
     26 H7         -6.6260    1.0240    0.5160 ho        1 15Q      0.423000
     27 H8         -5.1060   -2.9820    1.8640 h4        1 15Q      0.016800
     28 H11        -7.3400   -2.3910    4.4130 ho        1 15Q      0.440000
@<TRIPOS>BOND
     1    1    2 ar  
     2    1    8 ar  
     3    1   20 1   
     4    2    3 1   
     5    2    4 ar  
     6    4    5 1   
     7    4    6 ar  
     8    5   21 1   
     9    6    7 ar  
    10    6   22 1   
    11    7    8 ar  
    12    7   23 1   
    13    8    9 1   
    14    9   10 ar  
    15    9   12 ar  
    16   10   11 1   
    17   10   16 ar  
    18   12   13 ar  
    19   12   24 1   
    20   13   14 ar  
    21   13   25 1   
    22   14   15 1   
    23   14   16 ar  
    24   15   26 1   
    25   16   17 1   
    26   17   18 2   
    27   17   27 1   
    28   18   19 1   
    29   19   28 1   
@<TRIPOS>SUBSTRUCTURE
     1 15Q         1 TEMP              0 ****  ****    0 ROOT
