@<TRIPOS>MOLECULE
15Q
   28    29     1     0     0
SMALL
bcc


@<TRIPOS>ATOM
      1 CAK        -2.2780    0.8270    0.5950 ca        1 15Q     -0.107000
      2 CAO        -3.6240    0.4340    0.6260 ca        1 15Q      0.032900
      3 FAD        -4.4890    0.9990    1.5070 f         1 15Q     -0.145900
      4 CAM        -4.0880   -0.5610   -0.2660 ca        1 15Q      0.104100
      5 OAB        -5.3930   -0.9880   -0.2860 oh        1 15Q     -0.487100
      6 CAG        -3.2030   -1.1510   -1.1790 ca        1 15Q     -0.140000
      7 CAI        -1.8710   -0.7530   -1.1980 ca        1 15Q     -0.085000
      8 CAR        -1.4010    0.2310   -0.3160 cp        1 15Q     -0.052000
      9 CAS        -0.0030    0.6650   -0.3570 cp        1 15Q     -0.071000
     10 CAP         1.0630   -0.2060   -0.1030 ca        1 15Q      0.080400
     11 CL          0.7620   -1.8310    0.3040 cl        1 15Q     -0.073400
     12 CAJ         0.2750    2.0110   -0.6560 ca        1 15Q     -0.071000
     13 CAH         1.5770    2.4770   -0.7170 ca        1 15Q     -0.162000
     14 CAN         2.6440    1.5910   -0.4670 ca        1 15Q      0.171100
     15 OAC         3.8920    2.1490   -0.5660 oh        1 15Q     -0.488100
     16 CAQ         2.3980    0.2430   -0.1570 ca        1 15Q     -0.212900
     17 CAF         3.4820   -0.7180    0.0830 ce        1 15Q      0.398800
     18 NAL         4.3540   -0.5470    1.0380 n2        1 15Q     -0.435200
     19 OAA         5.2640   -1.4890    1.1450 oh        1 15Q     -0.353500
     20 H1         -1.9230    1.6000    1.2930 ha        1 15Q      0.155000
     21 H2         -5.8770   -0.5040    0.4020 ho        1 15Q      0.432000
     22 H3         -3.5780   -1.9210   -1.8680 ha        1 15Q      0.158000
     23 H4         -1.1760   -1.2180   -1.9140 ha        1 15Q      0.147000
     24 H5         -0.5640    2.6990   -0.8470 ha        1 15Q      0.148000
     25 H6          1.7990    3.5280   -0.9550 ha        1 15Q      0.159000
     26 H7          4.5620    1.4700   -0.4050 ho        1 15Q      0.434000
     27 H8          3.4770   -1.6070   -0.5830 h4        1 15Q      0.020800
     28 H11         5.8010   -1.2270    1.9210 ho        1 15Q      0.444000
@<TRIPOS>BOND
     1    1    2 ar  
     2    1    8 ar  
     3    1   20 1   
     4    2    3 1   
     5    2    4 ar  
     6    4    5 1   
     7    4    6 ar  
     8    5   21 1   
     9    6    7 ar  
    10    6   22 1   
    11    7    8 ar  
    12    7   23 1   
    13    8    9 1   
    14    9   10 ar  
    15    9   12 ar  
    16   10   11 1   
    17   10   16 ar  
    18   12   13 ar  
    19   12   24 1   
    20   13   14 ar  
    21   13   25 1   
    22   14   15 1   
    23   14   16 ar  
    24   15   26 1   
    25   16   17 1   
    26   17   18 2   
    27   17   27 1   
    28   18   19 1   
    29   19   28 1   
@<TRIPOS>SUBSTRUCTURE
     1 15Q         1 TEMP              0 ****  ****    0 ROOT
