@<TRIPOS>MOLECULE
15R
   73    79     1     0     0
SMALL
bcc


@<TRIPOS>ATOM
      1 OAA        -0.3710    1.0030    1.7130 o         1 15R     -0.642500
      2 CBA         0.7970    0.7470    1.3550 c         1 15R      0.705100
      3 NAY         1.7750    0.4990    2.2990 ns        1 15R     -0.572900
      4 CAV         3.1570    0.3860    1.9270 c3        1 15R      0.101000
      5 CBO         3.3290   -0.4630    0.6370 c3        1 15R      0.135000
      6 CBJ         2.4360    0.1110   -0.4440 ca        1 15R     -0.070300
      7 CBG         1.1980    0.6630   -0.0770 ca        1 15R     -0.129600
      8 CAJ         0.3220    1.1480   -1.0510 ca        1 15R     -0.071000
      9 CAH         0.6820    1.0910   -2.3970 ca        1 15R     -0.137000
     10 CAI         1.9090    0.5480   -2.7680 ca        1 15R     -0.105000
     11 CBF         2.7900    0.0520   -1.7990 ca        1 15R     -0.086300
     12 CAP         4.0970   -0.5190   -2.2200 c3        1 15R     -0.062100
     13 CAS         4.7410   -1.3330   -1.0950 c3        1 15R      0.080000
     14 NBQ         4.7050   -0.6750    0.1950 n         1 15R     -0.453800
     15 CBC         5.7910    0.0550    0.6770 c         1 15R      0.663100
     16 OAC         5.7290    0.6460    1.7730 o         1 15R     -0.597100
     17 CBN         7.1100    0.0580   -0.0990 c3        1 15R     -0.128700
     18 CAR         7.9230   -1.1750    0.2640 c3        1 15R     -0.099900
     19 CAU         9.2900   -1.1380   -0.4280 c3        1 15R      0.085500
     20 CAQ         7.8980    1.3170    0.2420 c3        1 15R     -0.099900
     21 CAT         9.2650    1.2980   -0.4430 c3        1 15R      0.085500
     22 NBP        10.0250    0.0850   -0.2110 n         1 15R     -0.456800
     23 CBB        11.1970    0.1420    0.5370 c         1 15R      0.675700
     24 OAB        11.7170    1.2390    0.8170 o         1 15R     -0.580100
     25 CBH        11.8830   -1.1320    0.9140 ca        1 15R     -0.166600
     26 CAO        13.0560   -1.4840    0.2430 ca        1 15R     -0.061000
     27 CBE        11.4250   -1.9350    1.9780 ca        1 15R      0.149900
     28 FAE        10.2930   -1.6160    2.6480 f         1 15R     -0.132900
     29 CAL        12.1480   -3.0850    2.3490 ca        1 15R     -0.169000
     30 CAK        13.3060   -3.4240    1.6620 ca        1 15R     -0.074000
     31 CBD        13.7680   -2.6310    0.6040 ca        1 15R     -0.089300
     32 CAW        14.9990   -3.0140   -0.1410 c3        1 15R     -0.049400
     33 CBI        16.2900   -2.7510    0.5820 cc        1 15R      0.341900
     34 NAX        16.2850   -2.2460    1.8070 nd        1 15R     -0.412300
     35 NAZ        17.4240   -2.0190    2.4320 ns        1 15R     -0.298900
     36 CBK        18.7150   -2.2530    1.9050 c         1 15R      0.685100
     37 OAD        19.7080   -1.9820    2.6000 o         1 15R     -0.613500
     38 CBM        18.7490   -2.8210    0.5430 ca        1 15R     -0.141600
     39 CBL        17.5320   -3.0740   -0.1280 ca        1 15R     -0.104900
     40 CAM        17.5700   -3.6150   -1.4210 ca        1 15R     -0.131000
     41 CAF        18.7910   -3.8910   -2.0260 ca        1 15R     -0.097000
     42 CAG        19.9930   -3.6360   -1.3560 ca        1 15R     -0.137000
     43 CAN        19.9750   -3.1010   -0.0730 ca        1 15R     -0.066000
     44 H1          3.5960    1.4120    1.7570 h1        1 15R      0.073200
     45 H2          2.9280   -1.5050    0.8610 h1        1 15R      0.073700
     46 H3         -0.6490    1.5680   -0.7390 ha        1 15R      0.163000
     47 H4         -0.0070    1.4740   -3.1650 ha        1 15R      0.140000
     48 H5          2.1930    0.5030   -3.8310 ha        1 15R      0.135000
     49 H6          4.7810    0.3170   -2.5290 hc        1 15R      0.059700
     50 H7          3.9590   -1.1880   -3.1100 hc        1 15R      0.059700
     51 H8          4.1740   -2.3040   -0.9870 h1        1 15R      0.059700
     52 H9          5.7950   -1.5990   -1.3790 h1        1 15R      0.059700
     53 H10         6.9100    0.0700   -1.2060 hc        1 15R      0.059700
     54 H11         8.0620   -1.2190    1.3770 hc        1 15R      0.068700
     55 H12         7.3910   -2.1070   -0.0540 hc        1 15R      0.068700
     56 H13         9.1320   -1.2400   -1.5420 h1        1 15R      0.059700
     57 H14         9.8910   -2.0230   -0.0800 h1        1 15R      0.059700
     58 H15         8.0170    1.3950    1.3550 hc        1 15R      0.068700
     59 H16         7.3370    2.2230   -0.1020 hc        1 15R      0.068700
     60 H17         9.8610    2.1880   -0.0910 h1        1 15R      0.059700
     61 H18         9.1170    1.3900   -1.5580 h1        1 15R      0.059700
     62 H19        13.4230   -0.8360   -0.5700 ha        1 15R      0.152000
     63 H20        11.7890   -3.7000    3.1880 ha        1 15R      0.154000
     64 H21        13.8730   -4.3200    1.9590 ha        1 15R      0.144000
     65 H22        14.9590   -4.1140   -0.3760 hc        1 15R      0.064200
     66 H23        15.0390   -2.4550   -1.1170 hc        1 15R      0.064200
     67 H24        17.3280   -1.6120    3.3450 hn        1 15R      0.362500
     68 H25        16.6340   -3.8220   -1.9610 ha        1 15R      0.140000
     69 H26        18.8140   -4.3150   -3.0420 ha        1 15R      0.139000
     70 H27        20.9520   -3.8590   -1.8470 ha        1 15R      0.143000
     71 H28        20.9100   -2.8920    0.4730 ha        1 15R      0.163000
     72 H29         1.5570    0.6230    3.2600 hn        1 15R      0.329500
     73 H30         3.7230   -0.1030    2.7700 h1        1 15R      0.073200
@<TRIPOS>BOND
     1    1    2 2   
     2    2    3 1   
     3    2    7 1   
     4    3    4 1   
     5    3   72 1   
     6    4    5 1   
     7    4   44 1   
     8    4   73 1   
     9    5    6 1   
    10    5   14 1   
    11    5   45 1   
    12    6    7 ar  
    13    6   11 ar  
    14    7    8 ar  
    15    8    9 ar  
    16    8   46 1   
    17    9   10 ar  
    18    9   47 1   
    19   10   11 ar  
    20   10   48 1   
    21   11   12 1   
    22   12   13 1   
    23   12   49 1   
    24   12   50 1   
    25   13   14 1   
    26   13   51 1   
    27   13   52 1   
    28   14   15 1   
    29   15   16 2   
    30   15   17 1   
    31   17   18 1   
    32   17   20 1   
    33   17   53 1   
    34   18   19 1   
    35   18   54 1   
    36   18   55 1   
    37   19   22 1   
    38   19   56 1   
    39   19   57 1   
    40   20   21 1   
    41   20   58 1   
    42   20   59 1   
    43   21   22 1   
    44   21   60 1   
    45   21   61 1   
    46   22   23 1   
    47   23   24 2   
    48   23   25 1   
    49   25   26 ar  
    50   25   27 ar  
    51   26   31 ar  
    52   26   62 1   
    53   27   28 1   
    54   27   29 ar  
    55   29   30 ar  
    56   29   63 1   
    57   30   31 ar  
    58   30   64 1   
    59   31   32 1   
    60   32   33 1   
    61   32   65 1   
    62   32   66 1   
    63   33   34 2   
    64   33   39 1   
    65   34   35 1   
    66   35   36 1   
    67   35   67 1   
    68   36   37 2   
    69   36   38 1   
    70   38   39 ar  
    71   38   43 ar  
    72   39   40 ar  
    73   40   41 ar  
    74   40   68 1   
    75   41   42 ar  
    76   41   69 1   
    77   42   43 ar  
    78   42   70 1   
    79   43   71 1   
@<TRIPOS>SUBSTRUCTURE
     1 15R         1 TEMP              0 ****  ****    0 ROOT
