@<TRIPOS>MOLECULE
15R
   73    79     1     0     0
SMALL
bcc


@<TRIPOS>ATOM
      1 OAA        -0.3620    1.0280    1.7200 o         1 15R     -0.642500
      2 CBA         0.8050    0.7660    1.3620 c         1 15R      0.705100
      3 NAY         1.7860    0.5300    2.3060 n         1 15R     -0.571900
      4 CAV         3.1670    0.4110    1.9300 c3        1 15R      0.101000
      5 CBO         3.3340   -0.4540    0.6510 c3        1 15R      0.135000
      6 CBJ         2.4370    0.1070   -0.4350 ca        1 15R     -0.070300
      7 CBG         1.2010    0.6640   -0.0700 ca        1 15R     -0.129600
      8 CAJ         0.3220    1.1370   -1.0470 ca        1 15R     -0.071000
      9 CAH         0.6770    1.0620   -2.3940 ca        1 15R     -0.137000
     10 CAI         1.9030    0.5130   -2.7620 ca        1 15R     -0.105000
     11 CBF         2.7870    0.0300   -1.7900 ca        1 15R     -0.086300
     12 CAP         4.0920   -0.5480   -2.2080 c3        1 15R     -0.062100
     13 CAS         4.7390   -1.3470   -1.0750 c3        1 15R      0.080000
     14 NBQ         4.7080   -0.6730    0.2070 n         1 15R     -0.453800
     15 CBC         5.7970    0.0630    0.6770 c         1 15R      0.663100
     16 OAC         5.7380    0.6670    1.7650 o         1 15R     -0.597100
     17 CBN         7.1120    0.0550   -0.1030 c3        1 15R     -0.128700
     18 CAR         7.9260   -1.1740    0.2720 c3        1 15R     -0.099900
     19 CAU         9.2900   -1.1470   -0.4240 c3        1 15R      0.085500
     20 CAQ         7.9030    1.3170    0.2180 c3        1 15R     -0.099900
     21 CAT         9.2680    1.2880   -0.4700 c3        1 15R      0.085500
     22 NBP        10.0280    0.0780   -0.2250 n         1 15R     -0.456800
     23 CBB        11.2010    0.1440    0.5200 c         1 15R      0.675700
     24 OAB        11.7230    1.2440    0.7840 o         1 15R     -0.580100
     25 CBH        11.8870   -1.1250    0.9110 ca        1 15R     -0.166600
     26 CAO        13.0590   -1.4860    0.2420 ca        1 15R     -0.061000
     27 CBE        11.4310   -1.9140    1.9860 ca        1 15R      0.149900
     28 FAE        10.3010   -1.5870    2.6550 f         1 15R     -0.132900
     29 CAL        12.1550   -3.0600    2.3710 ca        1 15R     -0.169000
     30 CAK        13.3120   -3.4080    1.6850 ca        1 15R     -0.074000
     31 CBD        13.7710   -2.6290    0.6150 ca        1 15R     -0.089300
     32 CAW        15.0010   -3.0220   -0.1270 c3        1 15R     -0.049400
     33 CBI        16.2930   -2.7490    0.5890 cc        1 15R      0.341900
     34 NAX        16.2910   -2.2270    1.8070 nd        1 15R     -0.412300
     35 NAZ        17.4310   -1.9920    2.4260 n         1 15R     -0.298900
     36 CBK        18.7210   -2.2330    1.8990 c         1 15R      0.685100
     37 OAD        19.7160   -1.9520    2.5880 o         1 15R     -0.613500
     38 CBM        18.7520   -2.8180    0.5440 ca        1 15R     -0.141600
     39 CBL        17.5330   -3.0810   -0.1190 ca        1 15R     -0.104900
     40 CAM        17.5680   -3.6390   -1.4060 ca        1 15R     -0.131000
     41 CAF        18.7870   -3.9230   -2.0100 ca        1 15R     -0.097000
     42 CAG        19.9910   -3.6580   -1.3470 ca        1 15R     -0.137000
     43 CAN        19.9760   -3.1060   -0.0710 ca        1 15R     -0.066000
     44 H1          3.7350   -0.0670    2.7770 h1        1 15R      0.073200
     45 H2          2.9330   -1.4930    0.8900 h1        1 15R      0.073700
     46 H3         -0.6470    1.5620   -0.7380 ha        1 15R      0.163000
     47 H4         -0.0140    1.4350   -3.1640 ha        1 15R      0.140000
     48 H5          2.1830    0.4550   -3.8250 ha        1 15R      0.135000
     49 H6          3.9510   -1.2280   -3.0880 hc        1 15R      0.059700
     50 H7          4.7760    0.2830   -2.5300 hc        1 15R      0.059700
     51 H8          4.1720   -2.3170   -0.9520 h1        1 15R      0.059700
     52 H9          5.7920   -1.6180   -1.3580 h1        1 15R      0.059700
     53 H10         6.9090    0.0530   -1.2110 hc        1 15R      0.059700
     54 H11         8.0680   -1.2040    1.3850 hc        1 15R      0.068700
     55 H12         7.3920   -2.1100   -0.0320 hc        1 15R      0.068700
     56 H13         9.8930   -2.0280   -0.0660 h1        1 15R      0.059700
     57 H14         9.1300   -1.2630   -1.5360 h1        1 15R      0.059700
     58 H15         8.0250    1.4100    1.3300 hc        1 15R      0.068700
     59 H16         7.3410    2.2190   -0.1360 hc        1 15R      0.068700
     60 H17         9.1160    1.3660   -1.5860 h1        1 15R      0.059700
     61 H18         9.8660    2.1830   -0.1320 h1        1 15R      0.059700
     62 H19        13.4240   -0.8490   -0.5800 ha        1 15R      0.152000
     63 H20        11.7970   -3.6640    3.2180 ha        1 15R      0.154000
     64 H21        13.8790   -4.3010    1.9920 ha        1 15R      0.144000
     65 H22        15.0380   -2.4770   -1.1110 hc        1 15R      0.064200
     66 H23        14.9600   -4.1250   -0.3470 hc        1 15R      0.064200
     67 H24        17.3370   -1.5730    3.3330 hn        1 15R      0.362500
     68 H25        16.6310   -3.8540   -1.9400 ha        1 15R      0.140000
     69 H26        18.8080   -4.3600   -3.0200 ha        1 15R      0.139000
     70 H27        20.9490   -3.8870   -1.8370 ha        1 15R      0.143000
     71 H28        20.9120   -2.8890    0.4690 ha        1 15R      0.163000
     72 H29         1.5710    0.6670    3.2650 hn        1 15R      0.329500
     73 H30         3.6060    1.4350    1.7460 h1        1 15R      0.073200
@<TRIPOS>BOND
     1    1    2 2   
     2    2    3 1   
     3    2    7 1   
     4    3    4 1   
     5    3   72 1   
     6    4    5 1   
     7    4   44 1   
     8    4   73 1   
     9    5    6 1   
    10    5   14 1   
    11    5   45 1   
    12    6    7 ar  
    13    6   11 ar  
    14    7    8 ar  
    15    8    9 ar  
    16    8   46 1   
    17    9   10 ar  
    18    9   47 1   
    19   10   11 ar  
    20   10   48 1   
    21   11   12 1   
    22   12   13 1   
    23   12   49 1   
    24   12   50 1   
    25   13   14 1   
    26   13   51 1   
    27   13   52 1   
    28   14   15 1   
    29   15   16 2   
    30   15   17 1   
    31   17   18 1   
    32   17   20 1   
    33   17   53 1   
    34   18   19 1   
    35   18   54 1   
    36   18   55 1   
    37   19   22 1   
    38   19   56 1   
    39   19   57 1   
    40   20   21 1   
    41   20   58 1   
    42   20   59 1   
    43   21   22 1   
    44   21   60 1   
    45   21   61 1   
    46   22   23 1   
    47   23   24 2   
    48   23   25 1   
    49   25   26 ar  
    50   25   27 ar  
    51   26   31 ar  
    52   26   62 1   
    53   27   28 1   
    54   27   29 ar  
    55   29   30 ar  
    56   29   63 1   
    57   30   31 ar  
    58   30   64 1   
    59   31   32 1   
    60   32   33 1   
    61   32   65 1   
    62   32   66 1   
    63   33   34 2   
    64   33   39 1   
    65   34   35 1   
    66   35   36 1   
    67   35   67 1   
    68   36   37 2   
    69   36   38 1   
    70   38   39 ar  
    71   38   43 ar  
    72   39   40 ar  
    73   40   41 ar  
    74   40   68 1   
    75   41   42 ar  
    76   41   69 1   
    77   42   43 ar  
    78   42   70 1   
    79   43   71 1   
@<TRIPOS>SUBSTRUCTURE
     1 15R         1 TEMP              0 ****  ****    0 ROOT
