@<TRIPOS>MOLECULE
15R
   73    67     1     0     0
SMALL
bcc


@<TRIPOS>ATOM
      1 OAA        -8.4760   -2.3420   -1.5660 o         1 15R     -0.367000
      2 CBA        -7.6410   -1.4510   -1.5990 c1        1 15R      0.342000
      3 NAY        -6.2950   -1.7670   -1.6730 n2        1 15R     -0.382000
      4 CAV        -5.5740   -1.2880   -2.7630 c3        1 15R     -0.015000
      5 CBO        -5.6590    0.1960   -3.0410 c3        1 15R      0.051000
      6 CBJ        -7.0450    0.9190   -2.5670 c1        1 15R     -0.063000
      7 CBG        -8.0760    0.0540   -2.0290 c1        1 15R     -0.109000
      8 CAJ        -9.1210    0.6050   -1.2440 c1        1 15R     -0.071000
      9 CAH        -9.0810    2.0040   -0.8600 c1        1 15R     -0.118750
     10 CAI        -7.9750    2.8380   -1.2780 c1        1 15R     -0.118750
     11 CBF        -6.9340    2.2910   -2.0600 c1        1 15R     -0.079000
     12 CAP        -5.4600    2.9290   -1.9500 c3        1 15R     -0.148000
     13 CAS        -4.3630    2.1640   -2.5660 c3        1 15R     -0.036000
     14 NBQ        -4.4730    0.7700   -2.5420 n         1 15R     -0.312000
     15 CBC        -3.2870   -0.0550   -2.3560 c2        1 15R      0.308000
     16 OAC        -3.3920   -1.2640   -2.3390 o         1 15R     -0.361000
     17 CBN        -1.9420    0.6080   -1.9480 c3        1 15R     -0.118000
     18 CAR        -1.0090    0.7590   -3.1410 c3        1 15R     -0.178000
     19 CAU         0.3560    1.2890   -2.7570 c3        1 15R     -0.030500
     20 CAQ        -1.2290   -0.1920   -0.8720 c3        1 15R     -0.178000
     21 CAT         0.1410    0.3610   -0.5400 c3        1 15R     -0.030500
     22 NBP         0.9650    0.5390   -1.7020 n         1 15R     -0.314000
     23 CBB         2.3100   -0.0010   -1.7990 c2        1 15R      0.351000
     24 OAB         2.9650    0.1780   -2.8050 o         1 15R     -0.349000
     25 CBH         2.9270   -0.7600   -0.5980 c2        1 15R     -0.146000
     26 CAO         4.0500   -0.2430    0.0440 c2        1 15R     -0.058000
     27 CBE         2.4860   -2.0450   -0.2980 c1        1 15R      0.117000
     28 FAE         1.4880   -2.5950   -1.0160 f         1 15R     -0.096000
     29 CAL         3.1680   -2.8150    0.6470 c2        1 15R     -0.168000
     30 CAK         4.2930   -2.2970    1.2900 c1        1 15R     -0.077000
     31 CBD         4.7350   -1.0170    0.9920 c1        1 15R     -0.082000
     32 CAW         6.0360   -0.4730    1.6430 c2        1 15R     -0.063000
     33 CBI         6.0660   -0.8620    3.1560 c2        1 15R     -0.099000
     34 NAX         5.0040   -1.6630    3.7160 n1        1 15R      0.001000
     35 NAZ         5.0700   -2.0960    5.0780 n2        1 15R     -0.281000
     36 CBK         6.2050   -1.7320    5.9020 c1        1 15R      0.323000
     37 OAD         6.3000   -2.1730    7.0420 o         1 15R     -0.339000
     38 CBM         7.3310   -0.8860    5.3170 c1        1 15R     -0.121000
     39 CBL         7.2670   -0.4740    4.0200 c1        1 15R     -0.023000
     40 CAM         8.2970    0.3340    3.4840 c1        1 15R     -0.129000
     41 CAF         9.3740    0.7060    4.2790 c1        1 15R     -0.118750
     42 CAG         9.4400    0.2860    5.6000 c1        1 15R     -0.118750
     43 CAN         8.4280   -0.5070    6.1270 c1        1 15R     -0.067000
     44 H1         -5.8860   -1.7630   -3.5630 h1        1 15R      0.112000
     45 H2         -5.6240    0.2950   -4.0070 h1        1 15R      0.113000
     46 H3         -9.8700    0.0400   -0.9600 ha        1 15R      0.163000
     47 H4         -9.8220    2.3930   -0.3640 ha        1 15R      0.139750
     48 H5         -7.9490    3.7750   -1.0210 ha        1 15R      0.139750
     49 H6         -5.2510    3.0460   -1.0030 hc        1 15R      0.099000
     50 H7         -5.4820    3.8180   -2.3700 hc        1 15R      0.099000
     51 H8         -3.5290    2.4090   -2.1080 h1        1 15R      0.100000
     52 H9         -4.2900    2.4430   -3.4980 h1        1 15R      0.100000
     53 H10        -2.2450    1.4730   -1.6140 hc        1 15R      0.100000
     54 H11        -1.4170    1.3750   -3.7820 hc        1 15R      0.107500
     55 H12        -0.8980   -0.1180   -3.5700 hc        1 15R      0.107500
     56 H13         0.2630    2.2230   -2.4690 h1        1 15R      0.100250
     57 H14         0.9410    1.2560   -3.5470 h1        1 15R      0.100250
     58 H15        -1.1300   -1.1140   -1.1790 hc        1 15R      0.107500
     59 H16        -1.7770   -0.1860   -0.0590 hc        1 15R      0.107500
     60 H17         0.5880   -0.2540    0.0730 h1        1 15R      0.100250
     61 H18         0.0310    1.2310   -0.0930 h1        1 15R      0.100250
     62 H19         4.3610    0.6580   -0.1660 ha        1 15R      0.151000
     63 H20         2.8550   -3.7240    0.8590 ha        1 15R      0.155000
     64 H21         4.7670   -2.8340    1.9470 ha        1 15R      0.143000
     65 H22         6.8180   -0.8610    1.1880 ha        1 15R      0.106500
     66 H23         6.0600    0.5120    1.5560 ha        1 15R      0.106500
     67 H24         4.3890   -2.6080    5.4330 hn        1 15R      0.273000
     68 H25         8.2510    0.6300    2.5520 ha        1 15R      0.142000
     69 H26        10.0910    1.2700    3.9050 ha        1 15R      0.139750
     70 H27        10.2020    0.5490    6.1630 ha        1 15R      0.139750
     71 H28         8.4740   -0.8040    7.0600 ha        1 15R      0.163000
     72 H29        -5.9550   -2.4480   -1.1610 hn        1 15R      0.243000
     73 H30        -4.6390   -1.5130   -2.6240 h1        1 15R      0.112000
@<TRIPOS>BOND
     1    1    2 1   
     2    2    7 1   
     3    3    4 1   
     4    3   72 1   
     5    4    5 1   
     6    4   44 1   
     7    4   73 1   
     8    5    6 1   
     9    5   14 1   
    10    5   45 1   
    11    6   11 1   
    12    7    8 1   
    13    8   46 1   
    14    9   10 1   
    15    9   47 1   
    16   10   48 1   
    17   11   12 1   
    18   12   13 1   
    19   12   49 1   
    20   12   50 1   
    21   13   14 1   
    22   13   51 1   
    23   13   52 1   
    24   14   15 1   
    25   15   16 1   
    26   15   17 1   
    27   17   18 1   
    28   17   20 1   
    29   17   53 1   
    30   18   19 1   
    31   18   54 1   
    32   18   55 1   
    33   19   22 1   
    34   19   56 1   
    35   19   57 1   
    36   20   21 1   
    37   20   58 1   
    38   20   59 1   
    39   21   22 1   
    40   21   60 1   
    41   21   61 1   
    42   22   23 1   
    43   23   24 1   
    44   23   25 1   
    45   25   26 1   
    46   25   27 1   
    47   26   31 1   
    48   26   62 1   
    49   27   29 1   
    50   29   30 1   
    51   29   63 1   
    52   30   64 1   
    53   32   33 1   
    54   32   65 1   
    55   32   66 1   
    56   33   34 1   
    57   33   39 1   
    58   35   36 1   
    59   35   67 1   
    60   36   37 1   
    61   38   43 1   
    62   39   40 1   
    63   40   68 1   
    64   41   42 1   
    65   41   69 1   
    66   42   70 1   
    67   43   71 1   
@<TRIPOS>SUBSTRUCTURE
     1 15R         1 TEMP              0 ****  ****    0 ROOT
