@<TRIPOS>MOLECULE
15R
   73    79     1     0     0
SMALL
bcc


@<TRIPOS>ATOM
      1 OAA        -0.3500    1.0940    1.7220 o         1 15R     -0.642500
      2 CBA         0.8140    0.8220    1.3640 c         1 15R      0.705100
      3 NAY         1.7980    0.6000    2.3070 n         1 15R     -0.572900
      4 CAV         3.1780    0.4700    1.9290 c3        1 15R      0.101000
      5 CBO         3.3370   -0.4190    0.6650 c3        1 15R      0.135000
      6 CBJ         2.4370    0.1250   -0.4270 ca        1 15R     -0.070300
      7 CBG         1.2040    0.6930   -0.0680 ca        1 15R     -0.129600
      8 CAJ         0.3230    1.1500   -1.0500 ca        1 15R     -0.071000
      9 CAH         0.6720    1.0490   -2.3970 ca        1 15R     -0.137000
     10 CAI         1.8950    0.4910   -2.7600 ca        1 15R     -0.105000
     11 CBF         2.7810    0.0220   -1.7820 ca        1 15R     -0.086300
     12 CAP         4.0830   -0.5670   -2.1950 c3        1 15R     -0.062100
     13 CAS         4.7320   -1.3480   -1.0500 c3        1 15R      0.080000
     14 NBQ         4.7080   -0.6510    0.2200 n         1 15R     -0.453800
     15 CBC         5.8010    0.0900    0.6710 c         1 15R      0.663100
     16 OAC         5.7490    0.7150    1.7480 o         1 15R     -0.597100
     17 CBN         7.1140    0.0630   -0.1140 c3        1 15R     -0.128700
     18 CAR         7.9250   -1.1630    0.2810 c3        1 15R     -0.099900
     19 CAU         9.2860   -1.1530   -0.4210 c3        1 15R      0.085500
     20 CAQ         7.9100    1.3270    0.1820 c3        1 15R     -0.099900
     21 CAT         9.2720    1.2810   -0.5110 c3        1 15R      0.085500
     22 NBP        10.0280    0.0730   -0.2470 n         1 15R     -0.456800
     23 CBB        11.2060    0.1470    0.4910 c         1 15R      0.675700
     24 OAB        11.7330    1.2500    0.7320 o         1 15R     -0.580100
     25 CBH        11.8890   -1.1170    0.9020 ca        1 15R     -0.166600
     26 CAO        13.0560   -1.4960    0.2350 ca        1 15R     -0.061000
     27 CBE        11.4350   -1.8850    1.9940 ca        1 15R      0.149900
     28 FAE        10.3080   -1.5400    2.6610 f         1 15R     -0.132900
     29 CAL        12.1550   -3.0260    2.3960 ca        1 15R     -0.169000
     30 CAK        13.3070   -3.3920    1.7110 ca        1 15R     -0.074000
     31 CBD        13.7650   -2.6340    0.6260 ca        1 15R     -0.089300
     32 CAW        14.9900   -3.0460   -0.1150 c3        1 15R     -0.049400
     33 CBI        16.2860   -2.7680    0.5910 cc        1 15R      0.341900
     34 NAX        16.2920   -2.2260    1.8010 nd        1 15R     -0.412300
     35 NAZ        17.4360   -1.9860    2.4110 n         1 15R     -0.298900
     36 CBK        18.7220   -2.2430    1.8830 c         1 15R      0.685100
     37 OAD        19.7220   -1.9570    2.5630 o         1 15R     -0.613500
     38 CBM        18.7440   -2.8520    0.5390 ca        1 15R     -0.141600
     39 CBL        17.5220   -3.1190   -0.1160 ca        1 15R     -0.104900
     40 CAM        17.5490   -3.6990   -1.3930 ca        1 15R     -0.131000
     41 CAF        18.7640   -4.0000   -1.9970 ca        1 15R     -0.097000
     42 CAG        19.9720   -3.7300   -1.3430 ca        1 15R     -0.137000
     43 CAN        19.9650   -3.1570   -0.0770 ca        1 15R     -0.066000
     44 H1          3.6190    1.4890    1.7240 h1        1 15R      0.073200
     45 H2          2.9330   -1.4520    0.9240 h1        1 15R      0.073700
     46 H3         -0.6440    1.5830   -0.7450 ha        1 15R      0.163000
     47 H4         -0.0210    1.4110   -3.1710 ha        1 15R      0.140000
     48 H5          2.1710    0.4120   -3.8230 ha        1 15R      0.135000
     49 H6          3.9360   -1.2630   -3.0630 hc        1 15R      0.059700
     50 H7          4.7680    0.2560   -2.5350 hc        1 15R      0.059700
     51 H8          5.7830   -1.6280   -1.3330 h1        1 15R      0.059700
     52 H9          4.1620   -2.3140   -0.9080 h1        1 15R      0.059700
     53 H10         6.9060    0.0420   -1.2200 hc        1 15R      0.059700
     54 H11         7.3850   -2.1020   -0.0040 hc        1 15R      0.068700
     55 H12         8.0710   -1.1720    1.3940 hc        1 15R      0.068700
     56 H13         9.1200   -1.2890   -1.5300 h1        1 15R      0.059700
     57 H14         9.8860   -2.0300   -0.0500 h1        1 15R      0.059700
     58 H15         7.3510    2.2250   -0.1870 hc        1 15R      0.068700
     59 H16         8.0370    1.4400    1.2910 hc        1 15R      0.068700
     60 H17         9.8750    2.1790   -0.1920 h1        1 15R      0.059700
     61 H18         9.1170    1.3390   -1.6280 h1        1 15R      0.059700
     62 H19        13.4190   -0.8750   -0.6000 ha        1 15R      0.152000
     63 H20        11.7990   -3.6130    3.2560 ha        1 15R      0.154000
     64 H21        13.8720   -4.2810    2.0330 ha        1 15R      0.144000
     65 H22        15.0260   -2.5170   -1.1080 hc        1 15R      0.064200
     66 H23        14.9420   -4.1530   -0.3160 hc        1 15R      0.064200
     67 H24        17.3480   -1.5520    3.3120 hn        1 15R      0.362500
     68 H25        16.6080   -3.9170   -1.9200 ha        1 15R      0.140000
     69 H26        18.7780   -4.4540   -2.9990 ha        1 15R      0.139000
     70 H27        20.9270   -3.9730   -1.8330 ha        1 15R      0.143000
     71 H28        20.9040   -2.9370    0.4570 ha        1 15R      0.163000
     72 H29         1.5880    0.7550    3.2650 hn        1 15R      0.329500
     73 H30         3.7470    0.0060    2.7820 h1        1 15R      0.073200
@<TRIPOS>BOND
     1    1    2 2   
     2    2    3 1   
     3    2    7 1   
     4    3    4 1   
     5    3   72 1   
     6    4    5 1   
     7    4   44 1   
     8    4   73 1   
     9    5    6 1   
    10    5   14 1   
    11    5   45 1   
    12    6    7 ar  
    13    6   11 ar  
    14    7    8 ar  
    15    8    9 ar  
    16    8   46 1   
    17    9   10 ar  
    18    9   47 1   
    19   10   11 ar  
    20   10   48 1   
    21   11   12 1   
    22   12   13 1   
    23   12   49 1   
    24   12   50 1   
    25   13   14 1   
    26   13   51 1   
    27   13   52 1   
    28   14   15 1   
    29   15   16 2   
    30   15   17 1   
    31   17   18 1   
    32   17   20 1   
    33   17   53 1   
    34   18   19 1   
    35   18   54 1   
    36   18   55 1   
    37   19   22 1   
    38   19   56 1   
    39   19   57 1   
    40   20   21 1   
    41   20   58 1   
    42   20   59 1   
    43   21   22 1   
    44   21   60 1   
    45   21   61 1   
    46   22   23 1   
    47   23   24 2   
    48   23   25 1   
    49   25   26 ar  
    50   25   27 ar  
    51   26   31 ar  
    52   26   62 1   
    53   27   28 1   
    54   27   29 ar  
    55   29   30 ar  
    56   29   63 1   
    57   30   31 ar  
    58   30   64 1   
    59   31   32 1   
    60   32   33 1   
    61   32   65 1   
    62   32   66 1   
    63   33   34 2   
    64   33   39 1   
    65   34   35 1   
    66   35   36 1   
    67   35   67 1   
    68   36   37 2   
    69   36   38 1   
    70   38   39 ar  
    71   38   43 ar  
    72   39   40 ar  
    73   40   41 ar  
    74   40   68 1   
    75   41   42 ar  
    76   41   69 1   
    77   42   43 ar  
    78   42   70 1   
    79   43   71 1   
@<TRIPOS>SUBSTRUCTURE
     1 15R         1 TEMP              0 ****  ****    0 ROOT
