@<TRIPOS>MOLECULE
15R
   73    79     1     0     0
SMALL
bcc


@<TRIPOS>ATOM
      1 OAA       -10.1520    1.9170    0.4370 o         1 15R     -0.642500
      2 CBA        -8.9800    1.4960    0.3570 c         1 15R      0.705100
      3 NAY        -7.9190    2.3320    0.6440 n         1 15R     -0.572900
      4 CAV        -6.5640    1.9330    0.3830 c3        1 15R      0.101000
      5 CBO        -6.3120    0.4630    0.8170 c3        1 15R      0.135000
      6 CBJ        -7.3600   -0.4200    0.1690 ca        1 15R     -0.070300
      7 CBG        -8.6550    0.0900   -0.0150 ca        1 15R     -0.129600
      8 CAJ        -9.6630   -0.7140   -0.5540 ca        1 15R     -0.071000
      9 CAH        -9.3790   -2.0290   -0.9200 ca        1 15R     -0.137000
     10 CAI        -8.0960   -2.5400   -0.7440 ca        1 15R     -0.105000
     11 CBF        -7.0820   -1.7440   -0.1970 ca        1 15R     -0.086300
     12 CAP        -5.7180   -2.3110   -0.0220 c3        1 15R     -0.062100
     13 CAS        -4.8680   -1.4480    0.9130 c3        1 15R      0.080000
     14 NBQ        -4.9500   -0.0290    0.6340 n         1 15R     -0.453800
     15 CBC        -3.9930    0.6230   -0.1450 c         1 15R      0.663100
     16 OAC        -4.1010    1.8360   -0.4070 o         1 15R     -0.597100
     17 CBN        -2.7460   -0.1340   -0.6070 c3        1 15R     -0.128700
     18 CAR        -1.6970   -0.1190    0.4940 c3        1 15R     -0.099900
     19 CAU        -0.4050   -0.7850    0.0130 c3        1 15R      0.085500
     20 CAQ        -2.1880    0.5240   -1.8630 c3        1 15R     -0.099900
     21 CAT        -0.8840   -0.1500   -2.2900 c3        1 15R      0.085500
     22 NBP         0.1020   -0.2550   -1.2310 n         1 15R     -0.456800
     23 CBB         1.2840    0.4730   -1.3190 c         1 15R      0.675700
     24 OAB         1.6060    1.0310   -2.3860 o         1 15R     -0.580100
     25 CBH         2.2160    0.4920   -0.1500 ca        1 15R     -0.166600
     26 CAO         3.3930   -0.2560   -0.2210 ca        1 15R     -0.061000
     27 CBE         1.9790    1.3070    0.9750 ca        1 15R      0.149900
     28 FAE         0.8480    2.0460    1.0690 f         1 15R     -0.132900
     29 CAL         2.9240    1.3540    2.0180 ca        1 15R     -0.169000
     30 CAK         4.0830    0.5930    1.9330 ca        1 15R     -0.074000
     31 CBD         4.3260   -0.2190    0.8190 ca        1 15R     -0.089300
     32 CAW         5.5610   -1.0470    0.7470 c3        1 15R     -0.049400
     33 CBI         6.8210   -0.2890    0.4360 cc        1 15R      0.341900
     34 NAX         6.7930    1.0260    0.2780 nd        1 15R     -0.412300
     35 NAZ         7.9050    1.6820    0.0050 n         1 15R     -0.298900
     36 CBK         9.1840    1.1020   -0.1620 c         1 15R      0.685100
     37 OAD        10.1490    1.8380   -0.4300 o         1 15R     -0.613500
     38 CBM         9.2430   -0.3620    0.0130 ca        1 15R     -0.141600
     39 CBL         8.0570   -1.0680    0.3140 ca        1 15R     -0.104900
     40 CAM         8.1200   -2.4590    0.4810 ca        1 15R     -0.131000
     41 CAF         9.3330   -3.1240    0.3480 ca        1 15R     -0.097000
     42 CAG        10.5040   -2.4180    0.0470 ca        1 15R     -0.137000
     43 CAN        10.4620   -1.0400   -0.1210 ca        1 15R     -0.066000
     44 H1         -6.3370    2.0400   -0.7180 h1        1 15R      0.073200
     45 H2         -6.4980    0.4050    1.9400 h1        1 15R      0.073700
     46 H3        -10.6750   -0.2950   -0.6800 ha        1 15R      0.163000
     47 H4        -10.1710   -2.6630   -1.3460 ha        1 15R      0.140000
     48 H5         -7.8710   -3.5780   -1.0340 ha        1 15R      0.135000
     49 H6         -5.7800   -3.3460    0.4060 hc        1 15R      0.059700
     50 H7         -5.2220   -2.3910   -1.0270 hc        1 15R      0.059700
     51 H8         -5.2360   -1.5990    1.9710 h1        1 15R      0.059700
     52 H9         -3.8010   -1.8000    0.8850 h1        1 15R      0.059700
     53 H10        -3.0090   -1.1970   -0.8680 hc        1 15R      0.059700
     54 H11        -1.4880    0.9420    0.7980 hc        1 15R      0.068700
     55 H12        -2.0640   -0.6690    1.3980 hc        1 15R      0.068700
     56 H13         0.3710   -0.6890    0.8230 h1        1 15R      0.059700
     57 H14        -0.6050   -1.8840   -0.1490 h1        1 15R      0.059700
     58 H15        -2.9270    0.4370   -2.6990 hc        1 15R      0.068700
     59 H16        -2.0210    1.6170   -1.6710 hc        1 15R      0.068700
     60 H17        -1.1110   -1.1990   -2.6380 h1        1 15R      0.059700
     61 H18        -0.4440    0.4210   -3.1570 h1        1 15R      0.059700
     62 H19         3.5840   -0.8700   -1.1170 ha        1 15R      0.152000
     63 H20         2.7350    2.0010    2.8870 ha        1 15R      0.154000
     64 H21         4.8240    0.6380    2.7470 ha        1 15R      0.144000
     65 H22         5.7130   -1.5670    1.7340 hc        1 15R      0.064200
     66 H23         5.4400   -1.8390   -0.0440 hc        1 15R      0.064200
     67 H24         7.7890    2.6700   -0.1230 hn        1 15R      0.362500
     68 H25         7.2080   -3.0280    0.7190 ha        1 15R      0.140000
     69 H26         9.3750   -4.2160    0.4800 ha        1 15R      0.139000
     70 H27        11.4570   -2.9570   -0.0570 ha        1 15R      0.143000
     71 H28        11.3720   -0.4640   -0.3580 ha        1 15R      0.163000
     72 H29        -8.0990    3.2930    0.8190 hn        1 15R      0.329500
     73 H30        -5.8690    2.6120    0.9530 h1        1 15R      0.073200
@<TRIPOS>BOND
     1    1    2 2   
     2    2    3 1   
     3    2    7 1   
     4    3    4 1   
     5    3   72 1   
     6    4    5 1   
     7    4   44 1   
     8    4   73 1   
     9    5    6 1   
    10    5   14 1   
    11    5   45 1   
    12    6    7 ar  
    13    6   11 ar  
    14    7    8 ar  
    15    8    9 ar  
    16    8   46 1   
    17    9   10 ar  
    18    9   47 1   
    19   10   11 ar  
    20   10   48 1   
    21   11   12 1   
    22   12   13 1   
    23   12   49 1   
    24   12   50 1   
    25   13   14 1   
    26   13   51 1   
    27   13   52 1   
    28   14   15 1   
    29   15   16 2   
    30   15   17 1   
    31   17   18 1   
    32   17   20 1   
    33   17   53 1   
    34   18   19 1   
    35   18   54 1   
    36   18   55 1   
    37   19   22 1   
    38   19   56 1   
    39   19   57 1   
    40   20   21 1   
    41   20   58 1   
    42   20   59 1   
    43   21   22 1   
    44   21   60 1   
    45   21   61 1   
    46   22   23 1   
    47   23   24 2   
    48   23   25 1   
    49   25   26 ar  
    50   25   27 ar  
    51   26   31 ar  
    52   26   62 1   
    53   27   28 1   
    54   27   29 ar  
    55   29   30 ar  
    56   29   63 1   
    57   30   31 ar  
    58   30   64 1   
    59   31   32 1   
    60   32   33 1   
    61   32   65 1   
    62   32   66 1   
    63   33   34 2   
    64   33   39 1   
    65   34   35 1   
    66   35   36 1   
    67   35   67 1   
    68   36   37 2   
    69   36   38 1   
    70   38   39 ar  
    71   38   43 ar  
    72   39   40 ar  
    73   40   41 ar  
    74   40   68 1   
    75   41   42 ar  
    76   41   69 1   
    77   42   43 ar  
    78   42   70 1   
    79   43   71 1   
@<TRIPOS>SUBSTRUCTURE
     1 15R         1 TEMP              0 ****  ****    0 ROOT
