@<TRIPOS>MOLECULE
15S
   65    69     1     0     0
SMALL
bcc


@<TRIPOS>ATOM
      1 OAC         3.1060   -1.5280    3.2330 o         1 15S     -0.600500
      2 CAX         3.7690   -1.1790    2.2410 c         1 15S      0.708100
      3 NAU         5.1520   -1.3110    2.2560 n         1 15S     -0.579900
      4 CAS         5.9530   -0.8060    1.1860 c3        1 15S      0.108000
      5 CBG         5.2920   -1.0980   -0.1990 c3        1 15S      0.202800
      6 CBE         3.9070   -0.5010   -0.1770 ca        1 15S     -0.065300
      7 CBD         3.1580   -0.6170    1.0070 ca        1 15S     -0.132600
      8 CAI         1.8340   -0.1770    1.0470 ca        1 15S     -0.060000
      9 CAG         1.2610    0.4040   -0.0870 ca        1 15S     -0.121000
     10 CAH         2.0130    0.5570   -1.2480 ca        1 15S     -0.096000
     11 CBC         3.3410    0.1100   -1.2990 ca        1 15S     -0.086300
     12 CAP         4.1470    0.3270   -2.5260 c3        1 15S     -0.033100
     13 CAR         5.3770   -0.5740   -2.5820 c3        1 15S      0.169800
     14 NBI         6.1170   -0.6230   -1.3210 n3        1 15S     -0.769600
     15 CAT         7.3740   -1.3210   -1.4520 c3        1 15S      0.106800
     16 CAW         8.5810   -0.3830   -1.4190 c         1 15S      0.541100
     17 OAB         9.6530   -0.5860   -1.9660 o         1 15S     -0.426100
     18 N           8.4320    0.8860   -0.6170 n4        1 15S     -0.667800
     19 CA          9.7110    1.3960   -0.0060 c3        1 15S      0.047500
     20 CB          9.6680    2.9080    0.1670 c3        1 15S     -0.131100
     21 C           9.9220    0.7190    1.3780 c         1 15S      0.648100
     22 O           8.9330    0.1380    1.8910 o         1 15S     -0.645100
     23 NBH        11.1270    0.8100    2.0050 n         1 15S     -0.419800
     24 CAQ        12.3220    1.3790    1.4070 c3        1 15S      0.126200
     25 CAO        13.5910    0.6770    1.7650 c2        1 15S     -0.218200
     26 CAN        11.3140    0.1910    3.3120 c3        1 15S      0.079000
     27 CAF        12.4460   -0.8360    3.3370 c3        1 15S     -0.070200
     28 CAY        13.6700   -0.3300    2.6520 ce        1 15S     -0.008400
     29 CBB        14.9340   -0.9820    2.9840 ca        1 15S     -0.097800
     30 CAL        16.1250   -0.2430    3.0250 ca        1 15S     -0.086500
     31 CAJ        17.3340   -0.8540    3.3370 ca        1 15S     -0.164000
     32 CBA        17.3620   -2.2340    3.6140 ca        1 15S      0.150900
     33 FAE        18.5320   -2.8380    3.9160 f         1 15S     -0.124900
     34 CAK        16.1710   -2.9860    3.5780 ca        1 15S     -0.164000
     35 CAM        14.9730   -2.3560    3.2680 ca        1 15S     -0.086500
     36 H3          5.6020   -1.5940    3.0950 hn        1 15S      0.340500
     37 H5          6.9730   -1.2820    1.2490 h1        1 15S      0.037700
     38 H6          6.0880    0.3120    1.2940 h1        1 15S      0.037700
     39 H7          5.1560   -2.2240   -0.2880 h1        1 15S      0.070700
     40 H8          1.2530   -0.2950    1.9780 ha        1 15S      0.174000
     41 H9          0.2140    0.7440   -0.0580 ha        1 15S      0.156000
     42 H10         1.5660    1.0300   -2.1370 ha        1 15S      0.147000
     43 H11         4.4600    1.4050   -2.5670 hc        1 15S      0.069200
     44 H12         3.5290    0.1230   -3.4420 hc        1 15S      0.069200
     45 H13         5.0510   -1.6100   -2.8930 h1        1 15S      0.051200
     46 H14         6.0740   -0.1800   -3.3740 h1        1 15S      0.051200
     47 H16         7.4660   -1.8830   -2.4320 h1        1 15S      0.116700
     48 H17         7.5510   -2.0660   -0.6170 h1        1 15S      0.116700
     49 H18         8.0330    1.6090   -1.2270 hn        1 15S      0.480300
     50 H19        10.5470    1.1080   -0.7140 hx        1 15S      0.135700
     51 H20         9.5110    3.4230   -0.8120 hc        1 15S      0.083033
     52 H21         8.8630    3.2150    0.8780 hc        1 15S      0.083033
     53 H22        10.6510    3.2490    0.5820 hc        1 15S      0.083033
     54 H23        12.2330    1.3810    0.2830 h1        1 15S      0.057200
     55 H24        12.4040    2.4550    1.7520 h1        1 15S      0.057200
     56 H25        14.4760    1.0650    1.2380 ha        1 15S      0.155000
     57 H27        10.3550   -0.3020    3.6380 h1        1 15S      0.083200
     58 H28        11.5520    1.0230    4.0370 h1        1 15S      0.083200
     59 H29        12.1140   -1.7890    2.8430 hc        1 15S      0.078200
     60 H30        12.6720   -1.0730    4.4120 hc        1 15S      0.078200
     61 H32        16.1070    0.8390    2.8180 ha        1 15S      0.137500
     62 H33        18.2670   -0.2720    3.3730 ha        1 15S      0.159500
     63 H34        16.2020   -4.0640    3.7960 ha        1 15S      0.159500
     64 H35        14.0450   -2.9490    3.2420 ha        1 15S      0.137500
     65 H2          7.7610    0.7020    0.1550 hn        1 15S      0.480300
@<TRIPOS>BOND
     1    1    2 2   
     2    2    3 1   
     3    2    7 1   
     4    3    4 1   
     5    3   36 1   
     6    4    5 1   
     7    4   37 1   
     8    4   38 1   
     9    5    6 1   
    10    5   14 1   
    11    5   39 1   
    12    6    7 ar  
    13    6   11 ar  
    14    7    8 ar  
    15    8    9 ar  
    16    8   40 1   
    17    9   10 ar  
    18    9   41 1   
    19   10   11 ar  
    20   10   42 1   
    21   11   12 1   
    22   12   13 1   
    23   12   43 1   
    24   12   44 1   
    25   13   14 1   
    26   13   45 1   
    27   13   46 1   
    28   14   15 1   
    29   15   16 1   
    30   15   47 1   
    31   15   48 1   
    32   16   17 2   
    33   16   18 1   
    34   18   19 1   
    35   18   49 1   
    36   18   65 1   
    37   19   20 1   
    38   19   21 1   
    39   19   50 1   
    40   20   51 1   
    41   20   52 1   
    42   20   53 1   
    43   21   22 2   
    44   21   23 1   
    45   23   24 1   
    46   23   26 1   
    47   24   25 1   
    48   24   54 1   
    49   24   55 1   
    50   25   28 2   
    51   25   56 1   
    52   26   27 1   
    53   26   57 1   
    54   26   58 1   
    55   27   28 1   
    56   27   59 1   
    57   27   60 1   
    58   28   29 1   
    59   29   30 ar  
    60   29   35 ar  
    61   30   31 ar  
    62   30   61 1   
    63   31   32 ar  
    64   31   62 1   
    65   32   33 1   
    66   32   34 ar  
    67   34   35 ar  
    68   34   63 1   
    69   35   64 1   
@<TRIPOS>SUBSTRUCTURE
     1 15S         1 TEMP              0 ****  ****    0 ROOT
