@<TRIPOS>MOLECULE
15S
   65    69     1     0     0
SMALL
bcc


@<TRIPOS>ATOM
      1 OAC         3.1060   -1.6780    3.1350 o         1 15S     -0.600500
      2 CAX         3.7720   -1.2850    2.1610 c         1 15S      0.708100
      3 NAU         5.1560   -1.4040    2.1810 ns        1 15S     -0.579900
      4 CAS         5.9600   -0.8510    1.1370 c3        1 15S      0.108000
      5 CBG         5.3110   -1.0960   -0.2630 c3        1 15S      0.202800
      6 CBE         3.9200   -0.5140   -0.2290 ca        1 15S     -0.065300
      7 CBD         3.1640   -0.6820    0.9450 ca        1 15S     -0.132600
      8 CAI         1.8350   -0.2570    0.9920 ca        1 15S     -0.060000
      9 CAG         1.2650    0.3600   -0.1240 ca        1 15S     -0.121000
     10 CAH         2.0220    0.5650   -1.2730 ca        1 15S     -0.096000
     11 CBC         3.3550    0.1340   -1.3300 ca        1 15S     -0.086300
     12 CAP         4.1680    0.4040   -2.5420 c3        1 15S     -0.033100
     13 CAR         5.4070   -0.4810   -2.6230 c3        1 15S      0.169800
     14 NBI         6.1380   -0.5710   -1.3590 n3        1 15S     -0.769600
     15 CAT         7.4040   -1.2510   -1.5080 c3        1 15S      0.106800
     16 CAW         8.6010   -0.3020   -1.4290 c         1 15S      0.541100
     17 OAB         9.6800   -0.4730   -1.9740 o         1 15S     -0.426100
     18 N           8.4320    0.9350   -0.5830 ny        1 15S     -0.667800
     19 CA          9.7000    1.4350    0.0570 c3        1 15S      0.047500
     20 CB          9.6400    2.9390    0.2860 c3        1 15S     -0.131100
     21 C           9.9080    0.7100    1.4170 c         1 15S      0.648100
     22 O           8.9210    0.1000    1.9010 o         1 15S     -0.645100
     23 NBH        11.1070    0.7910    2.0570 n         1 15S     -0.419800
     24 CAQ        12.3000    1.3940    1.4910 c3        1 15S      0.126200
     25 CAO        13.5740    0.6920    1.8330 c2        1 15S     -0.218200
     26 CAN        11.2900    0.1260    3.3420 c3        1 15S      0.079000
     27 CAF        12.4330   -0.8890    3.3390 c3        1 15S     -0.070200
     28 CAY        13.6570   -0.3460    2.6830 ce        1 15S     -0.008400
     29 CBB        14.9250   -0.9970    3.0010 ca        1 15S     -0.097800
     30 CAL        16.1080   -0.2460    3.0790 ca        1 15S     -0.086500
     31 CAJ        17.3200   -0.8560    3.3790 ca        1 15S     -0.164000
     32 CBA        17.3620   -2.2450    3.6050 ca        1 15S      0.150900
     33 FAE        18.5360   -2.8480    3.8940 f         1 15S     -0.124900
     34 CAK        16.1800   -3.0070    3.5320 ca        1 15S     -0.164000
     35 CAM        14.9760   -2.3790    3.2360 ca        1 15S     -0.086500
     36 H3          5.6040   -1.7140    3.0120 hn        1 15S      0.340500
     37 H5          6.9830   -1.3190    1.1890 h1        1 15S      0.037700
     38 H6          6.0820    0.2630    1.2880 h1        1 15S      0.037700
     39 H7          5.1870   -2.2200   -0.3960 h1        1 15S      0.070700
     40 H8          1.2490   -0.4170    1.9130 ha        1 15S      0.174000
     41 H9          0.2140    0.6880   -0.0900 ha        1 15S      0.156000
     42 H10         1.5770    1.0670   -2.1460 ha        1 15S      0.147000
     43 H11         4.4700    1.4870   -2.5410 hc        1 15S      0.069200
     44 H12         3.5590    0.2290   -3.4700 hc        1 15S      0.069200
     45 H13         5.0950   -1.5090   -2.9760 h1        1 15S      0.051200
     46 H14         6.1060   -0.0510   -3.3950 h1        1 15S      0.051200
     47 H16         7.5100   -1.7730   -2.5080 h1        1 15S      0.116700
     48 H17         7.5830   -2.0250   -0.7010 h1        1 15S      0.116700
     49 H18         8.0300    1.6760   -1.1680 hn        1 15S      0.480300
     50 H19        10.5460    1.1830   -0.6540 hx        1 15S      0.135700
     51 H20        10.6160    3.2760    0.7210 hc        1 15S      0.083033
     52 H21         9.4850    3.4890   -0.6750 hc        1 15S      0.083033
     53 H22         8.8260    3.2120    1.0020 hc        1 15S      0.083033
     54 H23        12.2200    1.4360    0.3660 h1        1 15S      0.057200
     55 H24        12.3680    2.4570    1.8750 h1        1 15S      0.057200
     56 H25        14.4590    1.1090    1.3280 ha        1 15S      0.155000
     57 H27        11.5130    0.9320    4.0990 h1        1 15S      0.083200
     58 H28        10.3340   -0.3900    3.6420 h1        1 15S      0.083200
     59 H29        12.6530   -1.1640    4.4050 hc        1 15S      0.078200
     60 H30        12.1160   -1.8270    2.8070 hc        1 15S      0.078200
     61 H32        16.0790    0.8420    2.9120 ha        1 15S      0.137500
     62 H33        18.2470   -0.2660    3.4440 ha        1 15S      0.159500
     63 H34        16.2200   -4.0920    3.7110 ha        1 15S      0.159500
     64 H35        14.0560   -2.9810    3.1800 ha        1 15S      0.137500
     65 H2          7.7560    0.7160    0.1770 hn        1 15S      0.480300
@<TRIPOS>BOND
     1    1    2 2   
     2    2    3 1   
     3    2    7 1   
     4    3    4 1   
     5    3   36 1   
     6    4    5 1   
     7    4   37 1   
     8    4   38 1   
     9    5    6 1   
    10    5   14 1   
    11    5   39 1   
    12    6    7 ar  
    13    6   11 ar  
    14    7    8 ar  
    15    8    9 ar  
    16    8   40 1   
    17    9   10 ar  
    18    9   41 1   
    19   10   11 ar  
    20   10   42 1   
    21   11   12 1   
    22   12   13 1   
    23   12   43 1   
    24   12   44 1   
    25   13   14 1   
    26   13   45 1   
    27   13   46 1   
    28   14   15 1   
    29   15   16 1   
    30   15   47 1   
    31   15   48 1   
    32   16   17 2   
    33   16   18 1   
    34   18   19 1   
    35   18   49 1   
    36   18   65 1   
    37   19   20 1   
    38   19   21 1   
    39   19   50 1   
    40   20   51 1   
    41   20   52 1   
    42   20   53 1   
    43   21   22 2   
    44   21   23 1   
    45   23   24 1   
    46   23   26 1   
    47   24   25 1   
    48   24   54 1   
    49   24   55 1   
    50   25   28 2   
    51   25   56 1   
    52   26   27 1   
    53   26   57 1   
    54   26   58 1   
    55   27   28 1   
    56   27   59 1   
    57   27   60 1   
    58   28   29 1   
    59   29   30 ar  
    60   29   35 ar  
    61   30   31 ar  
    62   30   61 1   
    63   31   32 ar  
    64   31   62 1   
    65   32   33 1   
    66   32   34 ar  
    67   34   35 ar  
    68   34   63 1   
    69   35   64 1   
@<TRIPOS>SUBSTRUCTURE
     1 15S         1 TEMP              0 ****  ****    0 ROOT
