@<TRIPOS>MOLECULE
15S
   64    68     1     0     0
SMALL
bcc


@<TRIPOS>ATOM
      1 OAC        -6.3670   -0.4490   -3.8690 o         1 15S     -0.638500
      2 CAX        -5.6200   -0.3150   -2.8790 c         1 15S      0.711100
      3 NAU        -4.2640   -0.5510   -3.0020 n         1 15S     -0.580900
      4 CAS        -3.3740   -0.4630   -1.8810 c3        1 15S      0.106000
      5 CBG        -3.7680    0.6990   -0.9180 c3        1 15S      0.209800
      6 CBE        -5.2180    0.5120   -0.5410 ca        1 15S     -0.046300
      7 CBD        -6.1160    0.0870   -1.5350 ca        1 15S     -0.135600
      8 CAI        -7.4830   -0.0030   -1.2630 ca        1 15S     -0.072000
      9 CAG        -7.9570    0.3050    0.0120 ca        1 15S     -0.137000
     10 CAH        -7.0670    0.6830    1.0140 ca        1 15S     -0.105000
     11 CBC        -5.6960    0.7830    0.7460 ca        1 15S     -0.077300
     12 CAP        -4.7500    1.1270    1.8380 c3        1 15S     -0.035100
     13 CAR        -3.4120    1.6220    1.3020 c3        1 15S      0.162800
     14 NBI        -2.8650    0.7810    0.2380 n3        1 15S     -0.723600
     15 CAT        -1.5280    1.2250   -0.1290 c3        1 15S      0.089800
     16 CAW        -0.4720    0.9270    0.9460 c         1 15S      0.660100
     17 OAB         0.3670    1.8020    1.2440 o         1 15S     -0.626100
     18 N          -0.4510   -0.3260    1.5090 n         1 15S     -0.551900
     19 CA          0.5180   -0.7180    2.5010 c3        1 15S      0.042700
     20 CB         -0.1090   -1.4000    3.7190 c3        1 15S     -0.107100
     21 C           1.5180   -1.7350    1.8850 c         1 15S      0.641100
     22 O           1.1390   -2.9080    1.6850 o         1 15S     -0.614100
     23 NBH         2.8180   -1.3510    1.6180 n         1 15S     -0.465800
     24 CAQ         3.2280    0.0360    1.5960 c3        1 15S      0.114200
     25 CAO         4.3350    0.3600    0.6460 c2        1 15S     -0.171200
     26 CAN         3.7810   -2.3230    1.1480 c3        1 15S      0.087000
     27 CAF         4.4440   -1.9530   -0.1810 c3        1 15S     -0.062200
     28 CAY         4.9050   -0.5350   -0.1780 ce        1 15S     -0.060400
     29 CBB         5.9760   -0.1790   -1.1060 ca        1 15S     -0.062800
     30 CAL         6.9290    0.7890   -0.7570 ca        1 15S     -0.097000
     31 CAJ         7.9500    1.1360   -1.6350 ca        1 15S     -0.165000
     32 CBA         8.0260    0.5090   -2.8920 ca        1 15S      0.125900
     33 FAE         9.0150    0.8410   -3.7550 f         1 15S     -0.139900
     34 CAK         7.0760   -0.4660   -3.2530 ca        1 15S     -0.165000
     35 CAM         6.0660   -0.8010   -2.3600 ca        1 15S     -0.097000
     36 H3         -3.9080   -0.8800   -3.8680 hn        1 15S      0.329500
     37 H5         -3.3790   -1.4310   -1.3020 h1        1 15S      0.051200
     38 H6         -2.3350   -0.2980   -2.2810 h1        1 15S      0.051200
     39 H7         -3.7170    1.6700   -1.5100 h1        1 15S      0.049700
     40 H8         -8.1710   -0.3200   -2.0640 ha        1 15S      0.162000
     41 H9         -9.0340    0.2410    0.2260 ha        1 15S      0.141000
     42 H10        -7.4380    0.9050    2.0260 ha        1 15S      0.137000
     43 H11        -5.1830    1.9260    2.4960 hc        1 15S      0.062200
     44 H12        -4.5910    0.2140    2.4740 hc        1 15S      0.062200
     45 H13        -3.5360    2.6900    0.9540 h1        1 15S      0.045200
     46 H14        -2.6630    1.6240    2.1450 h1        1 15S      0.045200
     47 H16        -1.1900    0.6980   -1.0640 h1        1 15S      0.070700
     48 H17        -1.4800    2.3380   -0.3230 h1        1 15S      0.070700
     49 H18        -1.1410   -0.9970    1.2610 hn        1 15S      0.338500
     50 H19         1.0560    0.2100    2.8600 h1        1 15S      0.094700
     51 H20         0.6990   -1.6450    4.4480 hc        1 15S      0.055033
     52 H21        -0.8470   -0.7210    4.2090 hc        1 15S      0.055033
     53 H22        -0.6200   -2.3490    3.4240 hc        1 15S      0.055033
     54 H23         2.3490    0.6970    1.3200 h1        1 15S      0.069700
     55 H24         3.5640    0.3260    2.6370 h1        1 15S      0.069700
     56 H25         4.6410    1.4180    0.6650 ha        1 15S      0.140000
     57 H27         4.5850   -2.4140    1.9360 h1        1 15S      0.065200
     58 H28         3.2790   -3.3260    1.0400 h1        1 15S      0.065200
     59 H29         5.3090   -2.6470   -0.3460 hc        1 15S      0.061700
     60 H30         3.7200   -2.1040   -1.0260 hc        1 15S      0.061700
     61 H32         6.8760    1.2780    0.2290 ha        1 15S      0.140000
     62 H33         8.6970    1.8940   -1.3590 ha        1 15S      0.149500
     63 H34         7.1420   -0.9510   -4.2370 ha        1 15S      0.149500
     64 H35         5.3240   -1.5630   -2.6450 ha        1 15S      0.140000
@<TRIPOS>BOND
     1    1    2 2   
     2    2    3 1   
     3    2    7 1   
     4    3    4 1   
     5    3   36 1   
     6    4    5 1   
     7    4   37 1   
     8    4   38 1   
     9    5    6 1   
    10    5   14 1   
    11    5   39 1   
    12    6    7 ar  
    13    6   11 ar  
    14    7    8 ar  
    15    8    9 ar  
    16    8   40 1   
    17    9   10 ar  
    18    9   41 1   
    19   10   11 ar  
    20   10   42 1   
    21   11   12 1   
    22   12   13 1   
    23   12   43 1   
    24   12   44 1   
    25   13   14 1   
    26   13   45 1   
    27   13   46 1   
    28   14   15 1   
    29   15   16 1   
    30   15   47 1   
    31   15   48 1   
    32   16   17 2   
    33   16   18 1   
    34   18   19 1   
    35   18   49 1   
    36   19   20 1   
    37   19   21 1   
    38   19   50 1   
    39   20   51 1   
    40   20   52 1   
    41   20   53 1   
    42   21   22 2   
    43   21   23 1   
    44   23   24 1   
    45   23   26 1   
    46   24   25 1   
    47   24   54 1   
    48   24   55 1   
    49   25   28 2   
    50   25   56 1   
    51   26   27 1   
    52   26   57 1   
    53   26   58 1   
    54   27   28 1   
    55   27   59 1   
    56   27   60 1   
    57   28   29 1   
    58   29   30 ar  
    59   29   35 ar  
    60   30   31 ar  
    61   30   61 1   
    62   31   32 ar  
    63   31   62 1   
    64   32   33 1   
    65   32   34 ar  
    66   34   35 ar  
    67   34   63 1   
    68   35   64 1   
@<TRIPOS>SUBSTRUCTURE
     1 15S         1 TEMP              0 ****  ****    0 ROOT
