@<TRIPOS>MOLECULE
15S
   64    59     1     0     0
SMALL
bcc


@<TRIPOS>ATOM
      1 OAC        -6.4840    5.0380    1.6650 o         1 15S     -0.366000
      2 CAX        -6.0760    3.9820    1.1250 c1        1 15S      0.346000
      3 NAU        -5.1880    4.0430    0.0450 n2        1 15S     -0.388000
      4 CAS        -3.9470    3.4100    0.1860 c3        1 15S     -0.011000
      5 CBG        -3.9660    1.9400    0.6320 c3        1 15S      0.012000
      6 CBE        -5.2800    1.4850    1.4970 c2        1 15S     -0.057000
      7 CBD        -6.1800    2.5660    1.9210 c2        1 15S     -0.111000
      8 CAI        -7.5570    2.3110    2.1100 c1        1 15S     -0.072000
      9 CAG        -8.1020    0.9980    1.8280 c1        1 15S     -0.119500
     10 CAH        -7.2340   -0.0700    1.3470 c1        1 15S     -0.119500
     11 CBC        -5.8670    0.1650    1.1540 c1        1 15S     -0.077000
     12 CAP        -5.5380   -0.4220   -0.2590 c2        1 15S     -0.155000
     13 CAR        -4.7260    0.4220   -1.1400 c3        1 15S     -0.067000
     14 NBI        -3.6680    1.1150   -0.5520 n3        1 15S     -0.264000
     15 CAT        -2.6090    0.1840   -0.2310 c3        1 15S     -0.089000
     16 CAW        -1.3300    0.5890   -0.9650 c2        1 15S      0.300000
     17 OAB        -1.3500    0.7620   -2.2000 o         1 15S     -0.378000
     18 N          -0.1070    0.8670   -0.2060 n         1 15S     -0.351000
     19 CA          1.1480    0.7740   -0.8370 c3        1 15S      0.014000
     20 CB          1.3180    1.9340   -1.7900 c3        1 15S     -0.223000
     21 C           2.2570    0.8130    0.2160 c1        1 15S      0.278000
     22 O           2.2940    1.7150    1.0190 o         1 15S     -0.379000
     23 NBH         3.2100   -0.2840    0.3130 n2        1 15S     -0.327000
     24 CAQ         4.2980   -0.3240    1.4520 c3        1 15S      0.004000
     25 CAO         5.6150   -0.5500    0.9400 c2        1 15S     -0.160000
     26 CAN         3.2000   -1.1620   -0.4410 c3        1 15S     -0.018000
     27 CAF         4.5970   -1.4160   -1.2550 c3        1 15S     -0.136000
     28 CAY         5.7050   -1.4910   -0.3750 c1        1 15S     -0.071000
     29 CBB         6.6270   -2.7870   -0.3660 c1        1 15S     -0.053000
     30 CAL         7.7960   -2.8170   -1.1310 c2        1 15S     -0.097000
     31 CAJ         8.6180   -3.9450   -1.1070 c1        1 15S     -0.165000
     32 CBA         8.2710   -5.0500   -0.3160 c1        1 15S      0.093000
     33 FAE         9.1250   -6.0840   -0.1970 f         1 15S     -0.104000
     34 CAK         7.1090   -5.0220    0.4460 c1        1 15S     -0.165000
     35 CAM         6.2820   -3.8860    0.4220 c1        1 15S     -0.096000
     36 H3         -5.3100    4.6810   -0.6210 hn        1 15S      0.242000
     37 H5         -3.4070    3.9330    0.8640 h1        1 15S      0.092000
     38 H6         -3.4710    3.4590   -0.6960 h1        1 15S      0.092000
     39 H7         -3.1920    1.8290    1.2410 h1        1 15S      0.105000
     40 H8         -8.1400    3.0180    2.4290 ha        1 15S      0.162000
     41 H9         -9.0590    0.8460    1.9030 ha        1 15S      0.138500
     42 H10        -7.6140   -0.9690    1.1550 ha        1 15S      0.138500
     43 H11        -6.4000   -0.6120   -0.7210 ha        1 15S      0.102000
     44 H12        -5.0560   -1.2910   -0.1300 ha        1 15S      0.102000
     45 H13        -4.3560   -0.1480   -1.8500 h1        1 15S      0.102500
     46 H14        -5.3270    1.0870   -1.5620 h1        1 15S      0.102500
     47 H16        -2.4470    0.1950    0.7380 h1        1 15S      0.108000
     48 H17        -2.8740   -0.7230   -0.5090 h1        1 15S      0.108000
     49 H18        -0.1600    1.1300    0.6590 hn        1 15S      0.251000
     50 H19         1.2000   -0.0660   -1.3330 h1        1 15S      0.140000
     51 H20         0.7400    1.8040   -2.5680 hc        1 15S      0.091000
     52 H21         2.2560    1.9850   -2.0830 hc        1 15S      0.091000
     53 H22         1.0750    2.7590   -1.3410 hc        1 15S      0.091000
     54 H23         4.2230    0.4940    1.9770 h1        1 15S      0.106000
     55 H24         4.0950   -1.0000    2.1320 h1        1 15S      0.106000
     56 H25         6.3930   -0.4460    1.5230 ha        1 15S      0.140000
     57 H27         2.4970   -0.9960   -1.0910 h1        1 15S      0.088000
     58 H28         2.9800   -1.9780    0.0470 h1        1 15S      0.088000
     59 H29         4.7990   -0.8440   -2.0380 hc        1 15S      0.101500
     60 H30         4.4800   -2.2780   -1.7010 hc        1 15S      0.101500
     61 H32         8.0410   -2.0390   -1.6890 ha        1 15S      0.138000
     62 H33         9.4360   -3.9660   -1.6440 ha        1 15S      0.150000
     63 H34         6.8630   -5.8050    1.0060 ha        1 15S      0.151000
     64 H35         5.4730   -3.8650    0.9520 ha        1 15S      0.140000
@<TRIPOS>BOND
     1    1    2 1   
     2    2    7 1   
     3    3    4 1   
     4    3   36 1   
     5    4    5 1   
     6    4   37 1   
     7    4   38 1   
     8    5    6 1   
     9    5   14 1   
    10    5   39 1   
    11    6    7 1   
    12    6   11 1   
    13    7    8 1   
    14    8   40 1   
    15    9   10 1   
    16    9   41 1   
    17   10   42 1   
    18   12   13 1   
    19   12   43 1   
    20   12   44 1   
    21   13   14 1   
    22   13   45 1   
    23   13   46 1   
    24   14   15 1   
    25   15   16 1   
    26   15   47 1   
    27   15   48 1   
    28   16   17 1   
    29   16   18 1   
    30   18   19 1   
    31   18   49 1   
    32   19   20 1   
    33   19   21 1   
    34   19   50 1   
    35   20   51 1   
    36   20   52 1   
    37   20   53 1   
    38   21   22 1   
    39   23   24 1   
    40   23   26 1   
    41   24   25 1   
    42   24   54 1   
    43   24   55 1   
    44   25   28 1   
    45   25   56 1   
    46   26   27 1   
    47   26   57 1   
    48   26   58 1   
    49   27   28 1   
    50   27   59 1   
    51   27   60 1   
    52   29   30 1   
    53   29   35 1   
    54   30   31 1   
    55   30   61 1   
    56   31   62 1   
    57   32   34 1   
    58   34   63 1   
    59   35   64 1   
@<TRIPOS>SUBSTRUCTURE
     1 15S         1 TEMP              0 ****  ****    0 ROOT
