@<TRIPOS>MOLECULE
15S
   65    69     1     0     0
SMALL
bcc


@<TRIPOS>ATOM
      1 OAC         3.0740   -1.6530    3.0760 o         1 15S     -0.600500
      2 CAX         3.7520   -1.2630    2.1100 c         1 15S      0.708100
      3 NAU         5.1360   -1.3860    2.1440 n         1 15S     -0.579900
      4 CAS         5.9520   -0.8360    1.1090 c3        1 15S      0.108000
      5 CBG         5.3180   -1.0790   -0.2980 c3        1 15S      0.202800
      6 CBE         3.9280   -0.4920   -0.2790 ca        1 15S     -0.065300
      7 CBD         3.1590   -0.6580    0.8860 ca        1 15S     -0.132600
      8 CAI         1.8310   -0.2280    0.9190 ca        1 15S     -0.060000
      9 CAG         1.2750    0.3920   -0.2030 ca        1 15S     -0.121000
     10 CAH         2.0460    0.5940   -1.3430 ca        1 15S     -0.096000
     11 CBC         3.3780    0.1580   -1.3860 ca        1 15S     -0.086300
     12 CAP         4.2040    0.4260   -2.5890 c3        1 15S     -0.033100
     13 CAR         5.4410   -0.4640   -2.6570 c3        1 15S      0.169800
     14 NBI         6.1590   -0.5560   -1.3850 n3        1 15S     -0.769600
     15 CAT         7.4230   -1.2410   -1.5200 c3        1 15S      0.106800
     16 CAW         8.6230   -0.2960   -1.4300 c         1 15S      0.541100
     17 OAB         9.7060   -0.4710   -1.9650 o         1 15S     -0.426100
     18 N           8.4500    0.9400   -0.5830 n4        1 15S     -0.667800
     19 CA          9.7140    1.4350    0.0700 c3        1 15S      0.047500
     20 CB          9.6570    2.9380    0.3010 c3        1 15S     -0.131100
     21 C           9.9070    0.7050    1.4300 c         1 15S      0.648100
     22 O           8.9140    0.0980    1.9020 o         1 15S     -0.645100
     23 NBH        11.1000    0.7800    2.0810 n         1 15S     -0.419800
     24 CAQ        12.3000    1.3810    1.5270 c3        1 15S      0.126200
     25 CAO        13.5680    0.6730    1.8790 c2        1 15S     -0.218200
     26 CAN        11.2700    0.1120    3.3650 c3        1 15S      0.079000
     27 CAF        12.4080   -0.9080    3.3700 c3        1 15S     -0.070200
     28 CAY        13.6400   -0.3680    2.7270 ce        1 15S     -0.008400
     29 CBB        14.9020   -1.0240    3.0540 ca        1 15S     -0.097800
     30 CAL        16.0880   -0.2790    3.1440 ca        1 15S     -0.086500
     31 CAJ        17.2950   -0.8940    3.4540 ca        1 15S     -0.164000
     32 CBA        17.3290   -2.2840    3.6760 ca        1 15S      0.150900
     33 FAE        18.4980   -2.8920    3.9740 f         1 15S     -0.124900
     34 CAK        16.1450   -3.0410    3.5900 ca        1 15S     -0.164000
     35 CAM        14.9470   -2.4070    3.2850 ca        1 15S     -0.086500
     36 H3          5.5730   -1.6980    2.9800 hn        1 15S      0.340500
     37 H5          6.9730   -1.3070    1.1720 h1        1 15S      0.037700
     38 H6          6.0760    0.2780    1.2620 h1        1 15S      0.037700
     39 H7          5.1910   -2.2020   -0.4320 h1        1 15S      0.070700
     40 H8          1.2350   -0.3860    1.8350 ha        1 15S      0.174000
     41 H9          0.2250    0.7230   -0.1790 ha        1 15S      0.156000
     42 H10         1.6120    1.0970   -2.2210 ha        1 15S      0.147000
     43 H11         4.5110    1.5070   -2.5840 hc        1 15S      0.069200
     44 H12         3.6050    0.2530   -3.5240 hc        1 15S      0.069200
     45 H13         5.1290   -1.4900   -3.0130 h1        1 15S      0.051200
     46 H14         6.1500   -0.0360   -3.4210 h1        1 15S      0.051200
     47 H16         7.5370   -1.7640   -2.5190 h1        1 15S      0.116700
     48 H17         7.5910   -2.0150   -0.7110 h1        1 15S      0.116700
     49 H18         7.7670    0.7220    0.1700 hn        1 15S      0.480300
     50 H19        10.5650    1.1800   -0.6340 hx        1 15S      0.135700
     51 H20         9.5120    3.4910   -0.6600 hc        1 15S      0.083033
     52 H21        10.6290    3.2700    0.7460 hc        1 15S      0.083033
     53 H22         8.8370    3.2120    1.0100 hc        1 15S      0.083033
     54 H23        12.3690    2.4430    1.9150 h1        1 15S      0.057200
     55 H24        12.2310    1.4260    0.4020 h1        1 15S      0.057200
     56 H25        14.4600    1.0880    1.3820 ha        1 15S      0.155000
     57 H27        10.3080   -0.4010    3.6560 h1        1 15S      0.083200
     58 H28        11.4890    0.9150    4.1270 h1        1 15S      0.083200
     59 H29        12.0920   -1.8430    2.8330 hc        1 15S      0.078200
     60 H30        12.6180   -1.1860    4.4380 hc        1 15S      0.078200
     61 H32        16.0650    0.8100    2.9800 ha        1 15S      0.137500
     62 H33        18.2230   -0.3080    3.5280 ha        1 15S      0.159500
     63 H34        16.1800   -4.1270    3.7660 ha        1 15S      0.159500
     64 H35        14.0240   -3.0050    3.2200 ha        1 15S      0.137500
     65 H2          8.0570    1.6830   -1.1720 hn        1 15S      0.480300
@<TRIPOS>BOND
     1    1    2 2   
     2    2    3 1   
     3    2    7 1   
     4    3    4 1   
     5    3   36 1   
     6    4    5 1   
     7    4   37 1   
     8    4   38 1   
     9    5    6 1   
    10    5   14 1   
    11    5   39 1   
    12    6    7 ar  
    13    6   11 ar  
    14    7    8 ar  
    15    8    9 ar  
    16    8   40 1   
    17    9   10 ar  
    18    9   41 1   
    19   10   11 ar  
    20   10   42 1   
    21   11   12 1   
    22   12   13 1   
    23   12   43 1   
    24   12   44 1   
    25   13   14 1   
    26   13   45 1   
    27   13   46 1   
    28   14   15 1   
    29   15   16 1   
    30   15   47 1   
    31   15   48 1   
    32   16   17 2   
    33   16   18 1   
    34   18   19 1   
    35   18   49 1   
    36   18   65 1   
    37   19   20 1   
    38   19   21 1   
    39   19   50 1   
    40   20   51 1   
    41   20   52 1   
    42   20   53 1   
    43   21   22 2   
    44   21   23 1   
    45   23   24 1   
    46   23   26 1   
    47   24   25 1   
    48   24   54 1   
    49   24   55 1   
    50   25   28 2   
    51   25   56 1   
    52   26   27 1   
    53   26   57 1   
    54   26   58 1   
    55   27   28 1   
    56   27   59 1   
    57   27   60 1   
    58   28   29 1   
    59   29   30 ar  
    60   29   35 ar  
    61   30   31 ar  
    62   30   61 1   
    63   31   32 ar  
    64   31   62 1   
    65   32   33 1   
    66   32   34 ar  
    67   34   35 ar  
    68   34   63 1   
    69   35   64 1   
@<TRIPOS>SUBSTRUCTURE
     1 15S         1 TEMP              0 ****  ****    0 ROOT
