@<TRIPOS>MOLECULE
15T
   48    51     1     0     0
SMALL
bcc


@<TRIPOS>ATOM
      1 C1          0.3150    0.3780   -0.3440 c3        1 15T     -0.132100
      2 C2          1.7790    0.0990   -0.0460 c3        1 15T      0.143800
      3 O4          2.0300    0.0880    1.3440 oh        1 15T     -0.580800
      4 C5          2.1870   -1.2010   -0.7050 cc        1 15T      0.356800
      5 N6          2.6510   -1.2800   -2.0500 na        1 15T     -0.140300
      6 C7          2.9170   -2.6300   -2.2900 ca        1 15T      0.000800
      7 C8          2.5960   -3.3250   -1.0560 ca        1 15T     -0.084900
      8 N9          2.1440   -2.4060   -0.1020 nd        1 15T     -0.546100
      9 C10         2.7630   -4.7360   -0.9640 ca        1 15T      0.483200
     10 N11         3.2080   -5.4820   -1.9650 nb        1 15T     -0.683000
     11 C12         3.5130   -4.8170   -3.1330 ca        1 15T      0.418800
     12 C13         3.3930   -3.3840   -3.3740 ca        1 15T     -0.188100
     13 C14         3.8260   -3.1590   -4.7250 cc        1 15T     -0.183200
     14 C15         4.1840   -4.3980   -5.2580 cd        1 15T     -0.118100
     15 N16         3.9980   -5.4020   -4.3120 na        1 15T     -0.270100
     16 C18         2.7490   -0.1700   -2.9730 c3        1 15T      0.061000
     17 C20         4.1950    0.1020   -3.4210 c3        1 15T     -0.097400
     18 C21         4.2540    1.3010   -4.3410 c3        1 15T     -0.074900
     19 C22         3.3540    1.1190   -5.5550 c3        1 15T     -0.067700
     20 C24         1.9230    0.8790   -5.0980 c3        1 15T     -0.074900
     21 C25         1.8250   -0.3290   -4.1930 c3        1 15T     -0.097400
     22 C26         3.4520    2.3360   -6.4610 c3        1 15T     -0.075400
     23 C27         2.9280    2.0410   -7.8560 c3        1 15T     -0.022300
     24 C28         3.0470    3.1930   -8.7210 c1        1 15T      0.207700
     25 N29         3.1400    4.1160   -9.4220 n1        1 15T     -0.370800
     26 H1          0.0110    1.3330    0.1490 hc        1 15T      0.051700
     27 H2          0.1560    0.4660   -1.4450 hc        1 15T      0.051700
     28 H3         -0.3290   -0.4460    0.0480 hc        1 15T      0.051700
     29 H4          2.4330    0.9440   -0.4150 h1        1 15T      0.081700
     30 H5          1.5260   -0.6360    1.7390 ho        1 15T      0.421000
     31 H6          2.5200   -5.2640   -0.0250 h4        1 15T      0.038100
     32 H8          3.8750   -2.2080   -5.2480 ha        1 15T      0.154000
     33 H9          4.5610   -4.6390   -6.2540 h4        1 15T      0.169000
     34 H10         2.3930    0.7510   -2.4150 h1        1 15T      0.063700
     35 H11         4.8360    0.2960   -2.5210 hc        1 15T      0.060950
     36 H12         4.6120   -0.8000   -3.9400 hc        1 15T      0.060950
     37 H13         3.9450    2.2250   -3.7850 hc        1 15T      0.047200
     38 H14         5.3140    1.4500   -4.6770 hc        1 15T      0.047200
     39 H15         3.7040    0.2110   -6.1230 hc        1 15T      0.051700
     40 H16         1.5460    1.7890   -4.5590 hc        1 15T      0.047200
     41 H17         1.2620    0.7190   -5.9900 hc        1 15T      0.047200
     42 H18         2.0930   -1.2580   -4.7610 hc        1 15T      0.060950
     43 H19         0.7640   -0.4430   -3.8450 hc        1 15T      0.060950
     44 H20         2.8770    3.1880   -6.0130 hc        1 15T      0.055700
     45 H21         4.5250    2.6580   -6.5330 hc        1 15T      0.055700
     46 H22         3.5030    1.1850   -8.3080 hc        1 15T      0.073700
     47 H23         1.8460    1.7350   -7.8060 hc        1 15T      0.073700
     48 H7          4.1810   -6.3640   -4.4340 hn        1 15T      0.310700
@<TRIPOS>BOND
     1    1    2 1   
     2    1   26 1   
     3    1   27 1   
     4    1   28 1   
     5    2    3 1   
     6    2    4 1   
     7    2   29 1   
     8    3   30 1   
     9    4    5 1   
    10    4    8 2   
    11    5    6 1   
    12    5   16 1   
    13    6    7 ar  
    14    6   12 ar  
    15    7    8 1   
    16    7    9 ar  
    17    9   10 ar  
    18    9   31 1   
    19   10   11 ar  
    20   11   12 ar  
    21   11   15 1   
    22   12   13 1   
    23   13   14 2   
    24   13   32 1   
    25   14   15 1   
    26   14   33 1   
    27   15   48 1   
    28   16   17 1   
    29   16   21 1   
    30   16   34 1   
    31   17   18 1   
    32   17   35 1   
    33   17   36 1   
    34   18   19 1   
    35   18   37 1   
    36   18   38 1   
    37   19   20 1   
    38   19   22 1   
    39   19   39 1   
    40   20   21 1   
    41   20   40 1   
    42   20   41 1   
    43   21   42 1   
    44   21   43 1   
    45   22   23 1   
    46   22   44 1   
    47   22   45 1   
    48   23   24 1   
    49   23   46 1   
    50   23   47 1   
    51   24   25 3   
@<TRIPOS>SUBSTRUCTURE
     1 15T         1 TEMP              0 ****  ****    0 ROOT
