@<TRIPOS>MOLECULE
15T
   48    51     1     0     0
SMALL
bcc


@<TRIPOS>ATOM
      1 C1          1.7440   -3.7100   -1.2410 c3        1 15T     -0.132100
      2 C2          2.0230   -3.1830    0.1570 c3        1 15T      0.143800
      3 O4          3.0800   -3.8880    0.7730 oh        1 15T     -0.579800
      4 C5          2.3000   -1.6970    0.0880 cc        1 15T      0.356800
      5 N6          1.2730   -0.7100    0.1360 na        1 15T     -0.140300
      6 C7          1.9170    0.5260    0.0390 ca        1 15T      0.000800
      7 C8          3.3350    0.2290   -0.0680 ca        1 15T     -0.084900
      8 N9          3.5300   -1.1560   -0.0370 nd        1 15T     -0.546100
      9 C10         4.2820    1.2860   -0.1790 ca        1 15T      0.483200
     10 N11         3.9430    2.5680   -0.1930 nb        1 15T     -0.683000
     11 C12         2.5970    2.8440   -0.0910 ca        1 15T      0.418800
     12 C13         1.5170    1.8710    0.0290 ca        1 15T     -0.188100
     13 C14         0.2960    2.6240    0.1100 cc        1 15T     -0.183200
     14 C15         0.6360    3.9750    0.0410 cd        1 15T     -0.118100
     15 N16         2.0160    4.1200   -0.0820 na        1 15T     -0.270100
     16 C18        -0.1470   -0.9760    0.2040 c3        1 15T      0.061000
     17 C20        -0.7890   -0.4380    1.4950 c3        1 15T     -0.097400
     18 C21        -2.2600   -0.7870    1.5460 c3        1 15T     -0.074900
     19 C22        -3.0030   -0.2540    0.3290 c3        1 15T     -0.067700
     20 C24        -2.3760   -0.8160   -0.9380 c3        1 15T     -0.074900
     21 C25        -0.9070   -0.4660   -1.0320 c3        1 15T     -0.097400
     22 C26        -4.4780   -0.6110    0.4250 c3        1 15T     -0.075400
     23 C27        -5.3220    0.2360   -0.5130 c3        1 15T     -0.022300
     24 C28        -6.7260   -0.0890   -0.3990 c1        1 15T      0.207700
     25 N29        -7.8570   -0.3440   -0.3130 n1        1 15T     -0.370800
     26 H1          1.5470   -4.8080   -1.1920 hc        1 15T      0.051700
     27 H2          0.8530   -3.1960   -1.6750 hc        1 15T      0.051700
     28 H3          2.6210   -3.5340   -1.9080 hc        1 15T      0.051700
     29 H4          1.1490   -3.3840    0.8450 h1        1 15T      0.081700
     30 H5          3.8850   -3.7430    0.2580 ho        1 15T      0.421000
     31 H6          5.3610    1.0600   -0.2580 h4        1 15T      0.038100
     32 H8         -0.7110    2.2310    0.2090 ha        1 15T      0.154000
     33 H9         -0.0120    4.8540    0.0700 h4        1 15T      0.169000
     34 H10        -0.2670   -2.1040    0.2160 h1        1 15T      0.063700
     35 H11        -0.2720   -0.8860    2.3840 hc        1 15T      0.060950
     36 H12        -0.6550    0.6730    1.5550 hc        1 15T      0.060950
     37 H13        -2.3880   -1.9000    1.6020 hc        1 15T      0.047200
     38 H14        -2.7040   -0.3500    2.4790 hc        1 15T      0.047200
     39 H15        -2.8980    0.8680    0.3120 hc        1 15T      0.051700
     40 H16        -2.5020   -1.9310   -0.9540 hc        1 15T      0.047200
     41 H17        -2.9050   -0.4060   -1.8380 hc        1 15T      0.047200
     42 H18        -0.7820    0.6440   -1.1300 hc        1 15T      0.060950
     43 H19        -0.4750   -0.9350   -1.9560 hc        1 15T      0.060950
     44 H20        -4.6210   -1.6970    0.1860 hc        1 15T      0.055700
     45 H21        -4.8300   -0.4510    1.4790 hc        1 15T      0.055700
     46 H22        -5.1800    1.3270   -0.2770 hc        1 15T      0.073700
     47 H23        -4.9970    0.0740   -1.5780 hc        1 15T      0.073700
     48 H7          2.5130    4.9700   -0.1440 hn        1 15T      0.310700
@<TRIPOS>BOND
     1    1    2 1   
     2    1   26 1   
     3    1   27 1   
     4    1   28 1   
     5    2    3 1   
     6    2    4 1   
     7    2   29 1   
     8    3   30 1   
     9    4    5 1   
    10    4    8 2   
    11    5    6 1   
    12    5   16 1   
    13    6    7 ar  
    14    6   12 ar  
    15    7    8 1   
    16    7    9 ar  
    17    9   10 ar  
    18    9   31 1   
    19   10   11 ar  
    20   11   12 ar  
    21   11   15 1   
    22   12   13 1   
    23   13   14 2   
    24   13   32 1   
    25   14   15 1   
    26   14   33 1   
    27   15   48 1   
    28   16   17 1   
    29   16   21 1   
    30   16   34 1   
    31   17   18 1   
    32   17   35 1   
    33   17   36 1   
    34   18   19 1   
    35   18   37 1   
    36   18   38 1   
    37   19   20 1   
    38   19   22 1   
    39   19   39 1   
    40   20   21 1   
    41   20   40 1   
    42   20   41 1   
    43   21   42 1   
    44   21   43 1   
    45   22   23 1   
    46   22   44 1   
    47   22   45 1   
    48   23   24 1   
    49   23   46 1   
    50   23   47 1   
    51   24   25 3   
@<TRIPOS>SUBSTRUCTURE
     1 15T         1 TEMP              0 ****  ****    0 ROOT
