@<TRIPOS>MOLECULE
15T
   48    41     1     0     0
SMALL
bcc


@<TRIPOS>ATOM
      1 C1          0.8930    3.6100    2.6960 c3        1 15T     -0.251000
      2 C2         -0.2820    2.6650    2.5210 c3        1 15T      0.099000
      3 O4         -1.3070    3.3170    1.8300 oh        1 15T     -0.330000
      4 C5          0.1660    1.4340    1.7290 c2        1 15T     -0.009000
      5 N6          0.1370    0.2810    1.0060 n2        1 15T     -0.148000
      6 C7          0.3540   -0.7620    1.8640 c1        1 15T      0.042000
      7 C8          0.5160   -0.2510    3.1100 c1        1 15T     -0.163000
      8 N9          0.3990    1.1100    3.0270 n1        1 15T     -0.115000
      9 C10         0.7440   -1.1170    4.2040 c1        1 15T      0.018000
     10 N11         0.8030   -2.4720    4.0060 n1        1 15T     -0.158000
     11 C12         0.6380   -2.9980    2.7300 c1        1 15T     -0.043000
     12 C13         0.4150   -2.1580    1.6630 c1        1 15T     -0.043000
     13 C14         0.2110   -2.9410    0.5430 c1        1 15T     -0.192000
     14 C15         0.3090   -4.2690    0.9250 c1        1 15T     -0.094000
     15 N16         0.5720   -4.3050    2.2700 n1        1 15T     -0.185000
     16 C18         0.7840    1.1260    0.0260 c2        1 15T      0.035000
     17 C20         1.6470    0.2570   -0.8830 c3        1 15T     -0.174000
     18 C21         0.8150   -0.6460   -1.7870 c3        1 15T     -0.151500
     19 C22        -0.2490    0.1220   -2.5560 c3        1 15T     -0.107000
     20 C24        -1.1120    0.9910   -1.6460 c3        1 15T     -0.151500
     21 C25        -0.2800    1.8940   -0.7420 c3        1 15T     -0.174000
     22 C26        -1.1520   -0.8800   -3.2890 c3        1 15T     -0.154000
     23 C27        -1.6880   -0.2380   -4.5760 c3        1 15T     -0.075000
     24 C28        -1.8970   -1.3150   -5.6310 c1        1 15T     -0.144000
     25 N29        -2.0530   -2.1230   -6.4230 n1        1 15T     -0.048000
     26 H1          1.1490    3.9780    1.8220 hc        1 15T      0.090333
     27 H2          0.6370    4.3440    3.2990 hc        1 15T      0.090333
     28 H3          1.6530    3.1200    3.0800 hc        1 15T      0.090333
     29 H4         -0.6100    2.3840    3.4050 h1        1 15T      0.113000
     30 H5         -1.5690    4.0350    2.2940 ho        1 15T      0.208000
     31 H6          0.8650   -0.7470    5.1050 ha        1 15T      0.174000
     32 H8          0.0300   -2.6150   -0.3600 DU        1 15T      0.194667
     33 H9          0.2060   -5.0480    0.3360 DU        1 15T      0.194667
     34 H10         1.3630    1.7690    0.4940 ha        1 15T      0.129000
     35 H11         2.2060    0.8420   -1.4450 hc        1 15T      0.098750
     36 H12         2.2320   -0.3030   -0.3260 hc        1 15T      0.098750
     37 H13         0.3780   -1.3280   -1.2380 hc        1 15T      0.083750
     38 H14         1.4140   -1.0910   -2.4310 hc        1 15T      0.083750
     39 H15         0.1930    0.6980   -3.2200 hc        1 15T      0.092000
     40 H16        -1.6990    1.5520   -2.2040 hc        1 15T      0.083750
     41 H17        -1.6700    0.4070   -1.0850 hc        1 15T      0.083750
     42 H18         0.1590    2.5800   -1.2960 hc        1 15T      0.098750
     43 H19        -0.8770    2.3370   -0.1010 hc        1 15T      0.098750
     44 H20        -1.9050   -1.1280   -2.7090 hc        1 15T      0.093500
     45 H21        -0.6330   -1.6840   -3.5160 hc        1 15T      0.093500
     46 H22        -1.0420    0.4230   -4.9070 hc        1 15T      0.113500
     47 H23        -2.5440    0.2070   -4.3890 hc        1 15T      0.113500
     48 H7          0.6840   -5.0620    2.7770 DU        1 15T      0.194667
@<TRIPOS>BOND
     1    1    2 1   
     2    1   26 1   
     3    1   27 1   
     4    1   28 1   
     5    2    3 1   
     6    2    4 1   
     7    2   29 1   
     8    3   30 1   
     9    4    5 1   
    10    4    8 1   
    11    5    6 1   
    12    6    7 1   
    13    9   10 1   
    14    9   31 1   
    15   11   12 1   
    16   13   14 1   
    17   14   15 1   
    18   16   17 1   
    19   16   21 1   
    20   16   34 1   
    21   17   18 1   
    22   17   35 1   
    23   17   36 1   
    24   18   19 1   
    25   18   37 1   
    26   18   38 1   
    27   19   20 1   
    28   19   22 1   
    29   19   39 1   
    30   20   21 1   
    31   20   40 1   
    32   20   41 1   
    33   21   42 1   
    34   21   43 1   
    35   22   23 1   
    36   22   44 1   
    37   22   45 1   
    38   23   24 1   
    39   23   46 1   
    40   23   47 1   
    41   24   25 1   
@<TRIPOS>SUBSTRUCTURE
     1 15T         1 TEMP              0 ****  ****    0 ROOT
