@<TRIPOS>MOLECULE
15T
   48    52     1     0     0
SMALL
bcc


@<TRIPOS>ATOM
      1 C1          0.0000    0.0000    0.0000 c3        1 15T     -0.145000
      2 C2          1.5300    0.0000    0.0000 c3        1 15T      0.171000
      3 O4          2.0060    0.0000    1.3470 oh        1 15T     -0.283000
      4 C5          2.0320   -1.2300   -0.7120 c2        1 15T     -0.252000
      5 N6          2.5280   -1.2510   -1.9800 na        1 15T      0.343000
      6 C7          2.8760   -2.5470   -2.2620 c2        1 15T     -0.127000
      7 C8          2.5700   -3.2950   -1.1140 c2        1 15T     -0.178000
      8 N9          2.0610   -2.4260   -0.2020 n2        1 15T     -0.012000
      9 C10         2.8240   -4.6710   -1.1160 c2        1 15T      0.021000
     10 N11         3.3410   -5.2640   -2.1660 n2        1 15T     -0.064000
     11 C12         3.6510   -4.6010   -3.2790 c2        1 15T     -0.170000
     12 C13         3.4270   -3.2180   -3.3630 c2        1 15T     -0.110000
     13 C14         3.8700   -2.8100   -4.6960 c2        1 15T     -0.161000
     14 C15         4.3140   -3.9170   -5.3150 c2        1 15T     -0.268000
     15 N16         4.1890   -4.9950   -4.4820 na        1 15T      0.369000
     16 C18         2.6640   -0.1010   -2.8770 c3        1 15T     -0.038000
     17 C20         4.1350    0.0820   -3.2530 c3        1 15T     -0.508000
     18 C21         4.2770    1.2830   -4.1910 c3        1 15T     -0.108000
     19 C22         3.4530    1.0410   -5.4570 c3        1 15T      0.253000
     20 C24         1.9820    0.8580   -5.0820 c3        1 15T     -0.296000
     21 C25         1.8400   -0.3430   -4.1440 c3        1 15T      0.019000
     22 C26         3.5950    2.2420   -6.3950 c3        1 15T     -0.209000
     23 C27         2.8750    1.9480   -7.7130 c3        1 15T      0.089000
     24 C28         3.0110    3.1020   -8.6140 c1        1 15T     -0.173000
     25 N29         3.1340    3.9980   -9.3020 n1        1 15T     -0.046000
     26 H1         -0.3610   -0.6170   -0.8140 hc        1 15T      0.055000
     27 H2         -0.3610    1.0130   -0.1270 hc        1 15T      0.055000
     28 H3         -0.3610   -0.3970    0.9410 hc        1 15T      0.055000
     29 H4          1.8900    0.8850   -0.5100 h1        1 15T      0.027000
     30 H5          2.2680    0.8730    1.5880 ho        1 15T      0.181000
     31 H6          2.5880   -5.2670   -0.2420 h4        1 15T      0.121000
     32 H8          3.8410   -1.8050   -5.0980 ha        1 15T      0.132000
     33 H9          4.7140   -3.9670   -6.3210 h4        1 15T      0.138000
     34 H10         2.3060    0.7940   -2.3820 h1        1 15T      0.088000
     35 H11         4.2460    1.0170   -3.7900 hc        1 15T      0.151000
     36 H12         4.7260    0.1200   -2.3450 hc        1 15T      0.151000
     37 H13         5.3300    1.4750   -4.3570 hc        1 15T      0.021500
     38 H14         3.8030    1.0470   -5.1360 hc        1 15T      0.021500
     39 H15         3.8120    0.1460   -5.9530 hc        1 15T      0.029000
     40 H16         1.3930    0.8030   -5.9900 hc        1 15T      0.100000
     41 H17         1.8740   -0.0680   -4.5300 DU        1 15T     -0.026000
     42 H18         0.8280   -0.6020   -3.8590 hc        1 15T      0.082000
     43 H19         1.8240    0.5680   -4.7300 DU        1 15T      0.076000
     44 H20         4.3920    2.8840   -6.0410 hc        1 15T      0.107500
     45 H21         2.6650    2.7980   -6.4130 hc        1 15T      0.107500
     46 H22         1.9340    1.4520   -7.5070 hc        1 15T      0.071500
     47 H23         3.4940    1.3060   -8.3270 hc        1 15T      0.071500
     48 H7          4.4550   -5.9280   -4.7300 hn        1 15T      0.065000
@<TRIPOS>BOND
     1    1    2 1   
     2    1   26 1   
     3    1   27 1   
     4    1   28 1   
     5    2    3 1   
     6    2    4 1   
     7    2   29 1   
     8    3   30 1   
     9    4    5 1   
    10    4    8 1   
    11    5    6 1   
    12    5   16 1   
    13    6    7 1   
    14    6   12 1   
    15    7    8 1   
    16    7    9 1   
    17    9   10 1   
    18    9   31 1   
    19   10   11 1   
    20   11   12 1   
    21   11   15 1   
    22   12   13 1   
    23   13   14 1   
    24   13   32 1   
    25   14   15 1   
    26   14   33 1   
    27   15   48 1   
    28   16   17 1   
    29   16   21 1   
    30   16   34 1   
    31   17   18 1   
    32   17   35 1   
    33   17   36 1   
    34   18   19 1   
    35   18   37 1   
    36   18   38 1   
    37   19   20 1   
    38   19   22 1   
    39   19   39 1   
    40   20   21 1   
    41   20   40 1   
    42   20   41 1   
    43   21   42 1   
    44   21   43 1   
    45   22   23 1   
    46   22   44 1   
    47   22   45 1   
    48   23   24 1   
    49   23   46 1   
    50   23   47 1   
    51   24   25 1   
    52   41   43 1   
@<TRIPOS>SUBSTRUCTURE
     1 15T         1 TEMP              0 ****  ****    0 ROOT
