@<TRIPOS>MOLECULE
15T
   48    51     1     0     0
SMALL
bcc


@<TRIPOS>ATOM
      1 C1          0.2210    0.3510   -0.5060 c3        1 15T     -0.098100
      2 C2          1.6220    0.0210   -0.0100 c3        1 15T      0.147800
      3 O4          1.5280   -0.0770    1.4010 oh        1 15T     -0.581800
      4 C5          2.1290   -1.2490   -0.6550 cc        1 15T      0.345800
      5 N6          2.6040   -1.2900   -2.0000 na        1 15T     -0.142300
      6 C7          2.9670   -2.6160   -2.2440 ca        1 15T      0.001800
      7 C8          2.6960   -3.3360   -1.0120 ca        1 15T     -0.088900
      8 N9          2.1770   -2.4560   -0.0550 nd        1 15T     -0.534100
      9 C10         2.9620   -4.7320   -0.9240 ca        1 15T      0.485200
     10 N11         3.4560   -5.4420   -1.9280 nb        1 15T     -0.683000
     11 C12         3.7100   -4.7550   -3.0950 ca        1 15T      0.419800
     12 C13         3.4900   -3.3330   -3.3310 ca        1 15T     -0.189100
     13 C14         3.8950   -3.0760   -4.6850 cc        1 15T     -0.183200
     14 C15         4.3350   -4.2860   -5.2240 cd        1 15T     -0.119100
     15 N16         4.2290   -5.3020   -4.2770 na        1 15T     -0.270100
     16 C18         2.6840   -0.1610   -2.9000 c3        1 15T      0.060000
     17 C20         4.1270    0.1550   -3.3310 c3        1 15T     -0.097400
     18 C21         4.1630    1.3730   -4.2270 c3        1 15T     -0.074900
     19 C22         3.2780    1.1920   -5.4520 c3        1 15T     -0.067700
     20 C24         1.8500    0.9090   -5.0120 c3        1 15T     -0.074900
     21 C25         1.7740   -0.3190   -4.1320 c3        1 15T     -0.097400
     22 C26         3.3540    2.4300   -6.3330 c3        1 15T     -0.075400
     23 C27         2.8460    2.1500   -7.7370 c3        1 15T     -0.022300
     24 C28         2.9500    3.3210   -8.5800 c1        1 15T      0.207700
     25 N29         3.0310    4.2580   -9.2630 n1        1 15T     -0.370800
     26 H1         -0.1200    1.3060   -0.0410 hc        1 15T      0.053367
     27 H2          0.2220    0.4560   -1.6160 hc        1 15T      0.053367
     28 H3         -0.4880   -0.4590   -0.2120 hc        1 15T      0.053367
     29 H4          2.3410    0.8590   -0.2540 h1        1 15T      0.039700
     30 H5          2.3190   -0.5250    1.7260 ho        1 15T      0.421000
     31 H6          2.7550   -5.2790    0.0140 h4        1 15T      0.039100
     32 H8          3.8700   -2.1250   -5.2090 ha        1 15T      0.154000
     33 H9          4.7200   -4.4990   -6.2230 h4        1 15T      0.169000
     34 H10         2.3050    0.7420   -2.3260 h1        1 15T      0.065700
     35 H11         4.7550    0.3470   -2.4220 hc        1 15T      0.060700
     36 H12         4.5700   -0.7270   -3.8630 hc        1 15T      0.060700
     37 H13         3.8270    2.2780   -3.6560 hc        1 15T      0.047700
     38 H14         5.2220    1.5540   -4.5510 hc        1 15T      0.047700
     39 H15         3.6560    0.3050   -6.0350 hc        1 15T      0.051700
     40 H16         1.2000    0.7500   -5.9130 hc        1 15T      0.047700
     41 H17         1.4460    1.7980   -4.4600 hc        1 15T      0.047700
     42 H18         0.7140   -0.4670   -3.7960 hc        1 15T      0.060700
     43 H19         2.0720   -1.2290   -4.7140 hc        1 15T      0.060700
     44 H20         2.7570    3.2590   -5.8720 hc        1 15T      0.055700
     45 H21         4.4200    2.7770   -6.3910 hc        1 15T      0.055700
     46 H22         3.4400    1.3140   -8.2010 hc        1 15T      0.073700
     47 H23         1.7700    1.8230   -7.7010 hc        1 15T      0.073700
     48 H7          4.4710   -6.2500   -4.4040 hn        1 15T      0.311700
@<TRIPOS>BOND
     1    1    2 1   
     2    1   26 1   
     3    1   27 1   
     4    1   28 1   
     5    2    3 1   
     6    2    4 1   
     7    2   29 1   
     8    3   30 1   
     9    4    5 1   
    10    4    8 2   
    11    5    6 1   
    12    5   16 1   
    13    6    7 ar  
    14    6   12 ar  
    15    7    8 1   
    16    7    9 ar  
    17    9   10 ar  
    18    9   31 1   
    19   10   11 ar  
    20   11   12 ar  
    21   11   15 1   
    22   12   13 1   
    23   13   14 2   
    24   13   32 1   
    25   14   15 1   
    26   14   33 1   
    27   15   48 1   
    28   16   17 1   
    29   16   21 1   
    30   16   34 1   
    31   17   18 1   
    32   17   35 1   
    33   17   36 1   
    34   18   19 1   
    35   18   37 1   
    36   18   38 1   
    37   19   20 1   
    38   19   22 1   
    39   19   39 1   
    40   20   21 1   
    41   20   40 1   
    42   20   41 1   
    43   21   42 1   
    44   21   43 1   
    45   22   23 1   
    46   22   44 1   
    47   22   45 1   
    48   23   24 1   
    49   23   46 1   
    50   23   47 1   
    51   24   25 3   
@<TRIPOS>SUBSTRUCTURE
     1 15T         1 TEMP              0 ****  ****    0 ROOT
