@<TRIPOS>MOLECULE
15U
   70    72     1     0     0
SMALL
bcc


@<TRIPOS>ATOM
      1 S           1.1860   -1.6570    0.2240 sy        1 15U      1.517200
      2 O1          1.9250   -1.9280    1.4190 o         1 15U     -0.682800
      3 O2          1.7000   -2.3270   -0.9110 o         1 15U     -0.682800
      4 C1         -0.3250   -4.8980    3.0080 c3        1 15U      0.214800
      5 C2         -1.6340   -5.6130    2.6570 c3        1 15U     -0.077700
      6 C3         -2.6990   -4.5740    2.3530 c3        1 15U     -0.015100
      7 C4         -2.2190   -3.5330    1.4040 ca        1 15U     -0.196300
      8 C5         -3.1500   -2.8620    0.6220 ca        1 15U     -0.042000
      9 C6         -2.7490   -1.8530   -0.2500 ca        1 15U     -0.212000
     10 C7         -1.4070   -1.5070   -0.3290 ca        1 15U      0.019000
     11 C8         -0.4220   -2.1440    0.4440 ca        1 15U     -0.435500
     12 C9         -0.8330   -3.2000    1.3110 ca        1 15U      0.301600
     13 C10        -2.0540   -6.5130    3.7960 c3        1 15U     -0.089100
     14 N           0.0980   -3.9610    2.0030 nh        1 15U     -0.767600
     15 N1          1.1600   -0.0770   -0.0330 n3        1 15U     -0.913100
     16 CA          1.4650    0.9320    0.9330 c3        1 15U      0.207500
     17 C           0.2490    1.5800    1.6440 c         1 15U      0.632100
     18 O           0.4560    2.0000    2.8030 o         1 15U     -0.623100
     19 CB          2.3300    2.0820    0.3920 c3        1 15U     -0.112400
     20 CG          3.7060    1.6090   -0.0240 c3        1 15U     -0.081400
     21 CD          4.4700    2.7850   -0.6380 c3        1 15U      0.181800
     22 NE          5.7960    2.4270   -1.0820 nh        1 15U     -0.853200
     23 CZ          6.5450    3.3260   -1.9060 c2        1 15U      0.769100
     24 NH1         6.1880    4.7090   -1.8490 nh        1 15U     -0.886800
     25 NH2         7.6100    2.9840   -2.6020 n2        1 15U     -0.919100
     26 N2         -1.0620    1.5370    1.1190 n         1 15U     -0.411800
     27 C11        -1.4250    2.3420   -0.0500 c3        1 15U     -0.035300
     28 C21        -2.8460    2.0350   -0.5500 c3        1 15U     -0.069400
     29 C31        -3.9110    2.1070    0.5270 c3        1 15U     -0.066700
     30 C41        -3.4760    1.2670    1.7140 c3        1 15U     -0.075400
     31 C51        -2.0710    1.6310    2.1780 c3        1 15U      0.062000
     32 C61        -0.5210    2.2080   -1.3150 c         1 15U      0.911600
     33 O11        -0.5720    1.1410   -1.9960 o         1 15U     -0.826800
     34 O21         0.1670    3.2150   -1.6350 o         1 15U     -0.826800
     35 C71        -4.2200    3.5340    0.9260 c3        1 15U     -0.088100
     36 H3         -1.4690   -6.2420    1.7380 hc        1 15U      0.064700
     37 H4         -3.6050   -5.0880    1.9340 hc        1 15U      0.039700
     38 H5         -3.0160   -4.0750    3.3100 hc        1 15U      0.039700
     39 H6         -4.2150   -3.1310    0.6970 ha        1 15U      0.116000
     40 H7         -3.4880   -1.3230   -0.8680 ha        1 15U      0.136000
     41 H8         -1.1380   -0.6800   -1.0270 ha        1 15U      0.203000
     42 H9         -3.0060   -7.0380    3.5380 hc        1 15U      0.032033
     43 H10        -1.2670   -7.2800    3.9960 hc        1 15U      0.032033
     44 H11        -2.2190   -5.9230    4.7300 hc        1 15U      0.032033
     45 H12         1.0010   -3.5620    2.1700 hn        1 15U      0.461800
     46 H13         0.8530    0.3000   -0.9160 hn        1 15U      0.503800
     47 H14         2.0430    0.4350    1.7790 h1        1 15U      0.087700
     48 H15         1.8130    2.5750   -0.4800 hc        1 15U      0.088700
     49 H16         2.4240    2.8430    1.2110 hc        1 15U      0.088700
     50 H17         4.2600    1.2050    0.8630 hc        1 15U      0.049200
     51 H18         3.6180    0.7820   -0.7760 hc        1 15U      0.049200
     52 H19         3.8420    3.1930   -1.4860 h1        1 15U      0.046200
     53 H20         4.5720    3.5980    0.1370 h1        1 15U      0.046200
     54 H21         5.8760    1.4720   -1.3640 hn        1 15U      0.402800
     55 H22         5.2040    4.8710   -1.8850 hn        1 15U      0.395800
     56 H23         6.6890    5.2680   -2.5080 hn        1 15U      0.395800
     57 H24         7.8770    2.0280   -2.5300 hn        1 15U      0.382400
     58 H26        -1.3890    3.4340    0.2570 h1        1 15U      0.031700
     59 H27        -3.0740    2.7680   -1.3670 hc        1 15U      0.058200
     60 H28        -2.8450    1.0060   -1.0030 hc        1 15U      0.058200
     61 H29        -4.8590    1.6590    0.1110 hc        1 15U      0.028700
     62 H30        -4.1780    1.4140    2.5750 hc        1 15U      0.039700
     63 H31        -3.5060    0.1830    1.4210 hc        1 15U      0.039700
     64 H32        -1.7710    0.9230    3.0020 h1        1 15U      0.036700
     65 H33        -2.0880    2.6700    2.6190 h1        1 15U      0.036700
     66 H35        -4.5880    4.1090    0.0420 hc        1 15U      0.028700
     67 H36        -5.0050    3.5570    1.7190 hc        1 15U      0.028700
     68 H37        -3.3060    4.0430    1.3180 hc        1 15U      0.028700
     69 H1         -0.4520   -4.3860    4.0080 h1        1 15U      0.033200
     70 H2          0.4970   -5.6630    3.1200 h1        1 15U      0.033200
@<TRIPOS>BOND
     1    1    2 2   
     2    1    3 2   
     3    1   11 1   
     4    1   15 1   
     5    4    5 1   
     6    4   14 1   
     7    4   69 1   
     8    4   70 1   
     9    5    6 1   
    10    5   13 1   
    11    5   36 1   
    12    6    7 1   
    13    6   37 1   
    14    6   38 1   
    15    7    8 ar  
    16    7   12 ar  
    17    8    9 ar  
    18    8   39 1   
    19    9   10 ar  
    20    9   40 1   
    21   10   11 ar  
    22   10   41 1   
    23   11   12 ar  
    24   12   14 1   
    25   13   42 1   
    26   13   43 1   
    27   13   44 1   
    28   14   45 1   
    29   15   16 1   
    30   15   46 1   
    31   16   17 1   
    32   16   19 1   
    33   16   47 1   
    34   17   18 2   
    35   17   26 1   
    36   19   20 1   
    37   19   48 1   
    38   19   49 1   
    39   20   21 1   
    40   20   50 1   
    41   20   51 1   
    42   21   22 1   
    43   21   52 1   
    44   21   53 1   
    45   22   23 1   
    46   22   54 1   
    47   23   24 1   
    48   23   25 2   
    49   24   55 1   
    50   24   56 1   
    51   25   57 1   
    52   26   27 1   
    53   26   31 1   
    54   27   28 1   
    55   27   32 1   
    56   27   58 1   
    57   28   29 1   
    58   28   59 1   
    59   28   60 1   
    60   29   30 1   
    61   29   35 1   
    62   29   61 1   
    63   30   31 1   
    64   30   62 1   
    65   30   63 1   
    66   31   64 1   
    67   31   65 1   
    68   32   33 1   
    69   32   34 1   
    70   35   66 1   
    71   35   67 1   
    72   35   68 1   
@<TRIPOS>SUBSTRUCTURE
     1 15U         1 TEMP              0 ****  ****    0 ROOT
