@<TRIPOS>MOLECULE
15U
   70    65     1     0     0
SMALL
bcc


@<TRIPOS>ATOM
      1 S          -0.6370    1.7200    0.2290 ss        1 15U      2.867000
      2 O1         -1.3120    2.4870   -0.7430 o         1 15U     -0.975000
      3 O2          0.6610    2.3380    0.2220 o         1 15U     -0.975000
      4 C1          1.3560    3.3360    3.9380 c3        1 15U     -0.010000
      5 C2          0.9130    2.8600    5.2850 c3        1 15U     -0.121000
      6 C3         -0.4750    2.8230    5.5170 c3        1 15U     -0.096000
      7 C4         -1.3790    2.4470    4.2770 c2        1 15U     -0.206000
      8 C5         -2.7170    2.1710    4.4000 c1        1 15U     -0.030000
      9 C6         -3.4530    1.7430    3.2790 c1        1 15U     -0.077000
     10 C7         -2.8000    1.5940    1.9940 c1        1 15U     -0.077000
     11 C8         -1.4400    1.8730    1.8610 c1        1 15U     -0.908000
     12 C9         -0.7090    2.2940    2.9570 c2        1 15U      0.246000
     13 C10         1.5920    3.8410    6.4280 c3        1 15U     -0.206000
     14 N           0.7970    2.7180    2.8520 n3        1 15U     -0.338000
     15 N1         -0.5450    0.1190   -0.2230 n2        1 15U     -0.875000
     16 CA         -0.1350   -0.2290   -1.5510 c3        1 15U      0.034000
     17 C          -0.3460   -1.7090   -1.7700 c1        1 15U      0.298000
     18 O           0.4450   -2.5090   -1.3080 o         1 15U     -0.421000
     19 CB          1.3210    0.1030   -1.7330 c3        1 15U     -0.176000
     20 CG          2.1450   -0.4730   -0.5450 c3        1 15U     -0.206000
     21 CD          3.5000   -1.0070   -1.0750 c3        1 15U     -0.063000
     22 NE          4.5480   -0.5340   -0.2610 n3        1 15U     -0.318000
     23 CZ          5.5090   -1.4680    0.2920 c1        1 15U      0.129000
     24 NH1         6.7910   -1.6680   -0.3630 n2        1 15U     -0.319000
     25 NH2         5.2150   -2.1470    1.4040 n1        1 15U     -0.348000
     26 N2         -1.4370   -2.1760   -2.6410 n2        1 15U     -0.266000
     27 C11        -2.4610   -1.2420   -3.2490 c3        1 15U     -0.060000
     28 C21        -2.5330   -1.5030   -4.7740 c3        1 15U     -0.165000
     29 C31        -2.7270   -2.9540   -5.1090 c3        1 15U     -0.106000
     30 C41        -1.7200   -3.8300   -4.4490 c3        1 15U     -0.176000
     31 C51        -1.6220   -3.6000   -2.9860 c3        1 15U     -0.047000
     32 C61        -2.1960    0.2060   -2.9200 c2        1 15U      0.323000
     33 O11        -1.4880    0.9180   -3.7050 o         1 15U     -0.561000
     34 O21        -2.7240    0.7340   -1.8740 o         1 15U     -0.561000
     35 C71        -4.1600   -3.3880   -4.6560 c3        1 15U     -0.205000
     36 H1          2.3570    3.2220    3.8830 h1        1 15U      0.069500
     37 H2          1.1500    4.3090    3.8740 h1        1 15U      0.069500
     38 H3          1.2740    1.9290    5.4190 hc        1 15U      0.105000
     39 H4         -0.7470    3.7190    5.8230 hc        1 15U      0.076000
     40 H5         -0.6400    2.1520    6.2140 hc        1 15U      0.076000
     41 H6         -3.1790    2.3300    5.2650 ha        1 15U      0.113000
     42 H7         -4.4340    1.5420    3.3690 ha        1 15U      0.172000
     43 H8         -3.3040    1.3020    1.2310 ha        1 15U      0.172000
     44 H9          2.5390    3.7360    6.4140 hc        1 15U      0.070000
     45 H10         1.3620    4.7820    6.2350 hc        1 15U      0.070000
     46 H11         1.2420    3.5900    7.3350 hc        1 15U      0.070000
     47 H12         0.9210    3.2550    2.0840 hn        1 15U      0.270000
     48 H13        -0.7520   -0.5550    0.3950 hn        1 15U      0.287000
     49 H14        -0.6810    0.2890   -2.2170 h1        1 15U      0.145000
     50 H15         1.6270   -0.2730   -2.5330 hc        1 15U      0.100500
     51 H16         1.4310    1.0680   -1.7670 hc        1 15U      0.100500
     52 H17         1.6510   -1.2010   -0.1270 hc        1 15U      0.111000
     53 H18         2.3100    0.2480    0.1290 hc        1 15U      0.111000
     54 H19         3.4920   -2.0320   -1.0610 h1        1 15U      0.091500
     55 H20         3.6360   -0.6910   -2.0020 h1        1 15U      0.091500
     56 H21         4.6070    0.3760   -0.0540 hn        1 15U      0.187000
     57 H22         7.4250   -2.2430    0.0150 hn        1 15U      0.171000
     58 H23         7.0030   -1.1810   -1.1060 hn        1 15U      0.171000
     59 H24         4.3950   -2.0180    1.8220 DU        1 15U      0.192000
     60 H26        -3.3620   -1.3760   -2.8200 h1        1 15U      0.095000
     61 H27        -3.2750   -0.9960   -5.1420 hc        1 15U      0.096000
     62 H28        -1.6930   -1.1870   -5.1920 hc        1 15U      0.096000
     63 H29        -2.6530   -3.0700   -6.0910 hc        1 15U      0.068000
     64 H30        -0.8160   -3.6560   -4.8650 hc        1 15U      0.076000
     65 H31        -1.9720   -4.7950   -4.6100 hc        1 15U      0.076000
     66 H32        -0.8410   -4.1230   -2.6290 h1        1 15U      0.098000
     67 H33        -2.4440   -3.9240   -2.5570 h1        1 15U      0.098000
     68 H35        -4.8470   -3.0960   -5.3660 hc        1 15U      0.067333
     69 H36        -4.3700   -2.9730   -3.8190 hc        1 15U      0.067333
     70 H37        -4.1890   -4.3480   -4.5540 hc        1 15U      0.067333
@<TRIPOS>BOND
     1    1    2 1   
     2    1    3 1   
     3    4    5 1   
     4    4   14 1   
     5    4   36 1   
     6    4   37 1   
     7    5    6 1   
     8    5   13 1   
     9    5   38 1   
    10    6    7 1   
    11    6   39 1   
    12    6   40 1   
    13    7    8 1   
    14    7   12 1   
    15    8   41 1   
    16    9   10 1   
    17    9   42 1   
    18   10   43 1   
    19   11   12 1   
    20   12   14 1   
    21   13   44 1   
    22   13   45 1   
    23   13   46 1   
    24   14   47 1   
    25   15   16 1   
    26   15   48 1   
    27   16   17 1   
    28   16   19 1   
    29   16   49 1   
    30   17   18 1   
    31   19   20 1   
    32   19   50 1   
    33   19   51 1   
    34   20   21 1   
    35   20   52 1   
    36   20   53 1   
    37   21   22 1   
    38   21   54 1   
    39   21   55 1   
    40   22   23 1   
    41   22   56 1   
    42   23   25 1   
    43   24   57 1   
    44   24   58 1   
    45   26   27 1   
    46   26   31 1   
    47   27   28 1   
    48   27   32 1   
    49   27   60 1   
    50   28   29 1   
    51   28   61 1   
    52   28   62 1   
    53   29   30 1   
    54   29   35 1   
    55   29   63 1   
    56   30   31 1   
    57   30   64 1   
    58   30   65 1   
    59   31   66 1   
    60   31   67 1   
    61   32   33 1   
    62   32   34 1   
    63   35   68 1   
    64   35   69 1   
    65   35   70 1   
@<TRIPOS>SUBSTRUCTURE
     1 15U         1 TEMP              0 ****  ****    0 ROOT
