@<TRIPOS>MOLECULE
15V
   38    52     1     0     0
SMALL
bcc


@<TRIPOS>ATOM
      1 C4          0.0000    0.0000    0.0000 c3        1 15V      0.044000
      2 C14        10.3420    1.1210   -1.4380 c3        1 15V      0.199000
      3 C5          3.4130   -0.0010    0.8700 c2        1 15V     -0.327000
      4 C6          3.5090   -0.0010   -0.5340 c2        1 15V     -0.088000
      5 C11         8.8430    0.2430    0.2160 c2        1 15V      0.035000
      6 C7          4.5280   -0.0000    1.8200 c2        1 15V      0.343000
      7 C8          8.0540    0.0000    4.1560 c3        1 15V     -0.070000
      8 C9          6.7590    0.0010    3.6320 c2        1 15V     -0.379000
      9 C10         6.8590    0.0010    2.2730 c3        1 15V     -0.096000
     10 C13         9.9620    0.9960   -0.1160 c2        1 15V     -0.284000
     11 N1          1.3850    0.0010    2.3470 n2        1 15V      0.391000
     12 N2          1.3630    0.0000    0.0000 nx        1 15V      0.556000
     13 C3          2.0400    0.0000    1.1850 DU        1 15V     -0.428000
     14 N3          2.3030   -0.0000   -1.0380 n2        1 15V     -0.182000
     15 C16         8.4880   -0.2450   -2.1060 c2        1 15V     -0.145000
     16 C15         9.6070    0.5030   -2.4320 c2        1 15V      0.581000
     17 C17         8.1100   -0.3830   -0.7840 c2        1 15V     -0.133000
     18 N5          8.1830    0.0000    1.9610 n7        1 15V     -0.041000
     19 N4          8.9050   -0.0050    3.1620 n2        1 15V     -0.180000
     20 N6          5.7980   -0.0000    1.3700 ns        1 15V      0.121000
     21 O1          4.3070    0.0000    3.0180 o         1 15V     -0.297000
     22 C2          0.0700    0.0110    2.3790 c2        1 15V     -0.019000
     23 C1         -0.6610    0.0060    1.1850 c2        1 15V     -0.092000
     24 H1          0.8970    0.0440    0.6060 DU        1 15V     -0.307000
     25 H2          9.5200    0.6540   -1.9670 DU        1 15V     -0.604000
     26 H3          2.4310   -0.0020   -0.6410 h4        1 15V      0.345000
     27 H4          7.5060    0.1960    2.8710 DU        1 15V      0.253000
     28 H5          7.8600    0.0000    4.6880 DU        1 15V      0.339000
     29 H6          7.4620    0.0010    5.0990 DU        1 15V     -0.100000
     30 H7          8.4210    1.0760    5.7470 hc        1 15V     -0.026000
     31 H8          9.7140    0.7770    0.9150 DU        1 15V      0.263000
     32 H9          9.6840    0.4150   -1.3550 DU        1 15V      0.019000
     33 H10         8.8860    0.2140   -0.3210 ha        1 15V      0.096000
     34 H11         6.5200   -0.0020    0.6760 hn        1 15V      0.154000
     35 H12         1.0760   -0.1640    2.0190 DU        1 15V      0.031000
     36 H13         0.4150    0.0120    1.0550 DU        1 15V      0.004000
     37 C12         8.4120    0.0000    5.6200 c3        1 15V     -0.085000
     38 Cl1         7.5710   -1.0260   -3.3560 cl        1 15V      0.109000
@<TRIPOS>BOND
     1    1   12 1   
     2    1   23 1   
     3    1   24 1   
     4    1   36 1   
     5    2   10 1   
     6    2   16 1   
     7    2   25 1   
     8    2   32 1   
     9    3    4 1   
    10    3    6 1   
    11    3   13 1   
    12    4   14 1   
    13    4   26 1   
    14    5   10 1   
    15    5   17 1   
    16    5   31 1   
    17    6   20 1   
    18    6   21 1   
    19    7    8 1   
    20    7   19 1   
    21    7   29 1   
    22    7   37 1   
    23    8    9 1   
    24    8   27 1   
    25    9   18 1   
    26    9   20 1   
    27    9   27 1   
    28   10   31 1   
    29   11   13 1   
    30   11   22 1   
    31   12   13 1   
    32   12   14 1   
    33   12   24 1   
    34   13   24 1   
    35   13   35 1   
    36   15   16 1   
    37   15   17 1   
    38   15   38 1   
    39   16   32 1   
    40   17   33 1   
    41   18   19 1   
    42   18   27 1   
    43   20   34 1   
    44   22   23 1   
    45   22   35 1   
    46   23   36 1   
    47   24   36 1   
    48   25   32 1   
    49   28   29 1   
    50   28   37 1   
    51   29   37 1   
    52   30   37 1   
@<TRIPOS>SUBSTRUCTURE
     1 15V         1 TEMP              0 ****  ****    0 ROOT
