@<TRIPOS>MOLECULE
15V
   39    38     1     0     0
SMALL
bcc


@<TRIPOS>ATOM
      1 C4         -0.1640    0.9680    2.5710 c1        1 15V      0.269000
      2 C14        10.1120   -1.1570   -3.0780 c1        1 15V      0.334000
      3 C5          4.0710   -0.2310    0.4530 c2        1 15V     -0.338000
      4 C6          4.5890    0.7060   -0.4650 c1        1 15V     -0.098000
      5 C11         9.1030    1.0870    1.2940 c2        1 15V     -0.097000
      6 C7          4.9920   -1.1450    1.0730 c2        1 15V      0.376000
      7 C8          7.0790    0.6260    4.1770 c2        1 15V     -0.249000
      8 C9          6.0120    0.3020    3.2630 c1        1 15V      0.015000
      9 C10         6.7180    0.4020    1.8900 c3        1 15V     -0.110000
     10 C13        10.2860    1.6650    1.5400 c2        1 15V     -0.158000
     11 N1          2.1150   -1.2090    1.6330 n3        1 15V     -0.201000
     12 N2          1.8600    0.6570    0.1290 n3        1 15V     -0.320000
     13 C3          2.6710   -0.2480    0.7300 c2        1 15V      0.305000
     14 N3          5.0320    1.4600   -1.2370 n1        1 15V     -0.050000
     15 C16         7.7760   -0.3050   -2.7600 c2        1 15V     -0.148000
     16 C15         8.8090   -1.1700   -3.2940 c2        1 15V     -0.498000
     17 C17         7.3650   -0.3980   -1.5080 c1        1 15V      0.076000
     18 N5          8.1820    0.6150    2.2670 n3        1 15V     -0.176000
     19 N4          8.2820    0.8280    3.5580 n2        1 15V      0.117000
     20 N6          6.4600   -0.7790    1.0240 n4        1 15V     -0.143000
     21 O1          4.7730   -2.2340    1.6080 o         1 15V     -0.268000
     22 C2          0.9510   -1.2610    2.2510 c1        1 15V      0.094000
     23 C1         -0.1190   -0.2950    2.1990 c2        1 15V     -0.579000
     24 H1          0.8740    0.6680    0.2830 hn        1 15V      0.268500
     25 H2         10.9420    1.9530    0.7050 ha        1 15V      0.155500
     26 H3          2.2390    1.3330   -0.4970 hn        1 15V      0.268500
     27 H4          6.3440    1.3330    1.3570 hx        1 15V      0.189000
     28 H5          7.2060    1.6930    6.0390 hc        1 15V      0.109000
     29 H6          5.8240    0.5180    5.8910 hc        1 15V      0.109000
     30 H7          7.5180   -0.0910    6.1560 hc        1 15V      0.109000
     31 H8         10.6760    1.8800    2.5450 ha        1 15V      0.155500
     32 H9          8.4460   -1.9210   -4.0420 ha        1 15V      0.237000
     33 H10         8.7370    0.8840    0.2690 h4        1 15V      0.143000
     34 H11         6.9890   -1.5840    1.3780 hn        1 15V      0.285500
     35 H12         2.7330   -1.9780    1.8590 hn        1 15V      0.310000
     36 H13        -1.0990   -0.8080    2.0100 ha        1 15V      0.254000
     37 CL1         7.0830    0.8360   -3.8040 cl        1 15V      0.115000
     38 H62         6.7890   -0.5800   -0.0150 hn        1 15V      0.285500
     39 C12         6.9010    0.6910    5.6450 c3        1 15V     -0.149000
@<TRIPOS>BOND
     1    1   23 1   
     2    2   16 1   
     3    3    4 1   
     4    3    6 1   
     5    3   13 1   
     6    4   14 1   
     7    5   10 1   
     8    5   18 1   
     9    5   33 1   
    10    6   20 1   
    11    6   21 1   
    12    7    8 1   
    13    7   19 1   
    14    7   39 1   
    15    8    9 1   
    16    9   18 1   
    17    9   20 1   
    18    9   27 1   
    19   10   25 1   
    20   10   31 1   
    21   11   13 1   
    22   11   22 1   
    23   11   35 1   
    24   12   13 1   
    25   12   24 1   
    26   12   26 1   
    27   15   16 1   
    28   15   17 1   
    29   15   37 1   
    30   16   32 1   
    31   18   19 1   
    32   20   34 1   
    33   20   38 1   
    34   22   23 1   
    35   23   36 1   
    36   28   39 1   
    37   29   39 1   
    38   30   39 1   
@<TRIPOS>SUBSTRUCTURE
     1 15V         1 TEMP              0 ****  ****    0 ROOT
