@<TRIPOS>MOLECULE
15V
   38    41     1     0     0
SMALL
bcc


@<TRIPOS>ATOM
      1 C4          5.3560    1.7970   -0.2720 cc        1 15V      0.003700
      2 C14        -4.3840    1.1110   -1.6360 ca        1 15V     -0.111000
      3 C5          2.2490    0.1110    0.3180 cc        1 15V     -0.345800
      4 C6          1.9470    1.4950    0.5790 cc        1 15V      0.410500
      5 C11        -2.9250   -0.2290   -0.2380 ca        1 15V      0.036800
      6 C7          1.3700   -1.0520    0.4420 c         1 15V      0.730300
      7 C8         -2.2330   -3.6490    0.3780 cc        1 15V      0.334600
      8 C9         -0.8690   -3.1610    0.4150 cc        1 15V     -0.302300
      9 C10        -0.9720   -1.7690    0.2320 cd        1 15V      0.052300
     10 C13        -3.8570   -0.1310   -1.2910 ca        1 15V     -0.118000
     11 N1          4.4780   -0.9200   -0.4180 nd        1 15V     -0.606000
     12 N2          4.0410    1.4820    0.0300 na        1 15V      0.040200
     13 C3          3.6230    0.0920   -0.0450 cd        1 15V      0.418500
     14 N3          3.0330    2.2910    0.4040 nd        1 15V     -0.551100
     15 C16        -3.0850    2.1650    0.0930 ca        1 15V      0.024400
     16 C15        -3.9990    2.2660   -0.9590 ca        1 15V     -0.128000
     17 C17        -2.5520    0.9310    0.4720 ca        1 15V     -0.155000
     18 N5         -2.3760   -1.4860    0.1330 na        1 15V      0.113300
     19 N4         -3.1030   -2.6240    0.1770 nd        1 15V     -0.508800
     20 N6          0.0190   -0.7950    0.1700 n         1 15V     -0.468100
     21 O1          1.7700   -2.1790    0.7720 o         1 15V     -0.551100
     22 C2          5.7230   -0.5690   -0.6970 cd        1 15V      0.440200
     23 C1          6.2130    0.7800   -0.6350 cd        1 15V     -0.301300
     24 H1          5.6530    2.8590   -0.2040 h4        1 15V      0.186000
     25 H2         -5.1140    1.1800   -2.4570 ha        1 15V      0.145000
     26 H3          0.9900    1.9150    0.9000 h4        1 15V      0.061800
     27 H4          0.0400   -3.7370    0.5610 ha        1 15V      0.196000
     28 H5         -2.9170   -5.2470    1.6150 hc        1 15V      0.051700
     29 H6         -3.4750   -5.3400   -0.1080 hc        1 15V      0.051700
     30 H7         -1.7460   -5.7190    0.3080 hc        1 15V      0.051700
     31 H8         -4.1800   -1.0320   -1.8370 ha        1 15V      0.162000
     32 H9         -4.4160    3.2440   -1.2440 ha        1 15V      0.152000
     33 H10        -1.8730    0.8710    1.3380 ha        1 15V      0.159000
     34 H11        -0.2340    0.1040   -0.1740 hn        1 15V      0.325500
     35 H12         6.4070   -1.3870   -0.9930 h4        1 15V      0.043100
     36 H13         7.2610    0.9950   -0.8780 ha        1 15V      0.168000
     37 C12        -2.6170   -5.0630    0.5530 c3        1 15V     -0.123400
     38 CL1        -2.6140    3.5640    0.9380 cl        1 15V     -0.088400
@<TRIPOS>BOND
     1    1   12 1   
     2    1   23 2   
     3    1   24 1   
     4    2   10 ar  
     5    2   16 ar  
     6    2   25 1   
     7    3    4 1   
     8    3    6 1   
     9    3   13 2   
    10    4   14 2   
    11    4   26 1   
    12    5   10 ar  
    13    5   17 ar  
    14    5   18 1   
    15    6   20 1   
    16    6   21 2   
    17    7    8 1   
    18    7   19 2   
    19    7   37 1   
    20    8    9 2   
    21    8   27 1   
    22    9   18 1   
    23    9   20 1   
    24   10   31 1   
    25   11   13 1   
    26   11   22 2   
    27   12   13 1   
    28   12   14 1   
    29   15   16 ar  
    30   15   17 ar  
    31   15   38 1   
    32   16   32 1   
    33   17   33 1   
    34   18   19 1   
    35   20   34 1   
    36   22   23 1   
    37   22   35 1   
    38   23   36 1   
    39   28   37 1   
    40   29   37 1   
    41   30   37 1   
@<TRIPOS>SUBSTRUCTURE
     1 15V         1 TEMP              0 ****  ****    0 ROOT
