@<TRIPOS>MOLECULE
15V
   38    28     1     0     0
SMALL
bcc


@<TRIPOS>ATOM
      1 C4         -5.3800   -1.7290   -1.5950 c1        1 15V     -0.112250
      2 C14         3.9510    2.1500   -2.1900 c1        1 15V     -0.112250
      3 C5         -2.4110   -0.2740   -0.4310 c1        1 15V     -0.241000
      4 C6         -2.4220    0.2610   -1.6970 c1        1 15V     -0.013500
      5 C11         2.7960    0.8290   -0.5520 c1        1 15V      0.079000
      6 C7         -1.2730   -0.1920    0.5640 c1        1 15V      0.404000
      7 C8          2.1900    0.7660    2.9700 c1        1 15V     -0.087000
      8 C9          0.9430    0.5030    2.4830 c1        1 15V     -0.236000
      9 C10         1.0150    0.5030    1.1210 c1        1 15V      0.083000
     10 C12         2.5690    0.8740    4.4300 c2        1 15V     -0.147000
     11 C13         3.3080    2.0480   -0.9660 c1        1 15V     -0.119000
     12 N1         -4.0130   -1.8210    0.7620 n1        1 15V     -0.080000
     13 N2         -4.2120   -1.0410   -1.4670 n1        1 15V     -0.080000
     14 C3         -3.5270   -1.0820   -0.2990 c1        1 15V     -0.013500
     15 N3         -3.5250   -0.2040   -2.3400 n1        1 15V     -0.080000
     16 CL1         3.7200   -1.5900   -3.6090 cl        1 15V     -0.009000
     17 C16         3.5680   -0.1870   -2.5850 c1        1 15V     -0.053000
     18 C15         4.0810    1.0320   -2.9990 c1        1 15V     -0.112250
     19 C17         2.9260   -0.2880   -1.3610 c1        1 15V     -0.153000
     20 N5          2.2920    0.7630    0.7710 n3        1 15V     -0.124000
     21 N4          3.0220    0.9260    1.9210 n2        1 15V     -0.077000
     22 N6         -0.0780    0.4880    0.2180 n1        1 15V     -0.321000
     23 O1         -1.3590   -0.7620    1.6330 o         1 15V     -0.311000
     24 C2         -5.1670   -2.5010    0.6370 c1        1 15V     -0.025000
     25 C1         -5.8610   -2.4610   -0.5440 c1        1 15V     -0.112250
     26 H1         -5.8740   -1.7000   -2.4370 ha        1 15V      0.162500
     27 H2          4.3120    3.0080   -2.4820 ha        1 15V      0.162500
     28 H3         -1.7650    0.8850   -2.0630 DU        1 15V      0.192500
     29 H4          0.1400    0.3430    3.0160 DU        1 15V      0.192500
     30 H5          2.2280    1.7170    4.7940 ha        1 15V      0.091333
     31 H6          2.1800    0.1230    4.9260 ha        1 15V      0.091333
     32 H7          3.5450    0.8520    4.5160 ha        1 15V      0.091333
     33 H8          3.2170    2.8360   -0.3960 ha        1 15V      0.162000
     34 H9          4.5330    1.1030   -3.8610 ha        1 15V      0.162500
     35 H10         2.5650   -1.1460   -1.0700 ha        1 15V      0.161000
     36 H11        -0.0250    0.9450   -0.5690 hn        1 15V      0.239000
     37 H12        -5.5100   -3.0230    1.3870 ha        1 15V      0.180000
     38 H13        -6.6990   -2.9540   -0.6360 ha        1 15V      0.162500
@<TRIPOS>BOND
     1    1   25 1   
     2    1   26 1   
     3    2   18 1   
     4    2   27 1   
     5    3    4 1   
     6    3   14 1   
     7    4   15 1   
     8    5   11 1   
     9    5   20 1   
    10    6   23 1   
    11    7    8 1   
    12    7   21 1   
    13    8    9 1   
    14    9   20 1   
    15   10   30 1   
    16   10   31 1   
    17   10   32 1   
    18   11   33 1   
    19   12   24 1   
    20   13   14 1   
    21   16   17 1   
    22   17   19 1   
    23   18   34 1   
    24   19   35 1   
    25   20   21 1   
    26   22   36 1   
    27   24   37 1   
    28   25   38 1   
@<TRIPOS>SUBSTRUCTURE
     1 15V         1 TEMP              0 ****  ****    0 ROOT
