@<TRIPOS>MOLECULE
15W
   32    34     1     0     0
SMALL
bcc


@<TRIPOS>ATOM
      1 CAS        -0.0210   -0.1300   -0.0600 c3        1 15W      0.111700
      2 OAR         1.3670    0.1830    0.0100 os        1 15W     -0.322900
      3 CAP         1.9490    0.1060    1.2560 ca        1 15W      0.148100
      4 CAO         1.2740   -0.2590    2.4280 ca        1 15W     -0.189000
      5 CAN         1.9730   -0.3020    3.6320 ca        1 15W     -0.057000
      6 CAL         3.3210    0.4290    1.2890 ca        1 15W     -0.189000
      7 CAM         4.0030    0.3800    2.4950 ca        1 15W     -0.057000
      8 CAK         3.3380    0.0080    3.6760 ca        1 15W     -0.117800
      9 CAI         4.0760   -0.0560    4.9370 cc        1 15W      0.204900
     10 OAJ         3.2360    0.1640    6.0230 os        1 15W     -0.226200
     11 CAF         3.8090    0.1250    7.2830 ca        1 15W      0.178100
     12 CAA         2.9180    0.3500    8.3440 ca        1 15W     -0.196000
     13 CAB         3.4350    0.3260    9.6440 ca        1 15W      0.175100
     14 OAT         2.5360    0.5480   10.6570 oh        1 15W     -0.490100
     15 CAC         4.8020    0.0850    9.8880 ca        1 15W     -0.247000
     16 CAD         5.6570   -0.1330    8.8190 ca        1 15W     -0.008000
     17 CAE         5.1760   -0.1170    7.5000 ca        1 15W     -0.250600
     18 CAG         6.0700   -0.3470    6.3580 c         1 15W      0.594900
     19 OAQ         7.2850   -0.5630    6.4800 o         1 15W     -0.552100
     20 CAH         5.4000   -0.3030    5.0600 cd        1 15W     -0.322200
     21 H1         -0.6160    0.5790    0.5660 h1        1 15W      0.048033
     22 H2         -0.2030   -1.1850    0.2600 h1        1 15W      0.048033
     23 H3         -0.2620    0.0020   -1.1450 h1        1 15W      0.048033
     24 H4          0.2040   -0.5090    2.4120 ha        1 15W      0.150000
     25 H5          1.4480   -0.5830    4.5590 ha        1 15W      0.147500
     26 H6          3.8300    0.7170    0.3580 ha        1 15W      0.150000
     27 H7          5.0730    0.6400    2.5260 ha        1 15W      0.147500
     28 H8          1.8530    0.5400    8.1590 ha        1 15W      0.171000
     29 H9          3.0160    0.5090   11.4990 ho        1 15W      0.426000
     30 H10         5.1820    0.0720   10.9190 ha        1 15W      0.142000
     31 H11         6.7310   -0.3230    8.9830 ha        1 15W      0.163000
     32 H12         6.0270   -0.4920    4.1750 ha        1 15W      0.168000
@<TRIPOS>BOND
     1    1    2 1   
     2    1   21 1   
     3    1   22 1   
     4    1   23 1   
     5    2    3 1   
     6    3    4 ar  
     7    3    6 ar  
     8    4    5 ar  
     9    4   24 1   
    10    5    8 ar  
    11    5   25 1   
    12    6    7 ar  
    13    6   26 1   
    14    7    8 ar  
    15    7   27 1   
    16    8    9 1   
    17    9   10 1   
    18    9   20 2   
    19   10   11 1   
    20   11   12 ar  
    21   11   17 ar  
    22   12   13 ar  
    23   12   28 1   
    24   13   14 1   
    25   13   15 ar  
    26   14   29 1   
    27   15   16 ar  
    28   15   30 1   
    29   16   17 ar  
    30   16   31 1   
    31   17   18 1   
    32   18   19 2   
    33   18   20 1   
    34   20   32 1   
@<TRIPOS>SUBSTRUCTURE
     1 15W         1 TEMP              0 ****  ****    0 ROOT
