@<TRIPOS>MOLECULE
15W
   32    34     1     0     0
SMALL
bcc


@<TRIPOS>ATOM
      1 CAS        -0.0230   -0.1530   -0.0570 c3        1 15W      0.111700
      2 OAR         1.3630    0.1640    0.0100 os        1 15W     -0.322900
      3 CAP         1.9470    0.0920    1.2560 ca        1 15W      0.148100
      4 CAO         1.2740   -0.2710    2.4300 ca        1 15W     -0.189000
      5 CAN         1.9730   -0.3090    3.6330 ca        1 15W     -0.057000
      6 CAL         3.3180    0.4190    1.2880 ca        1 15W     -0.189000
      7 CAM         4.0000    0.3750    2.4940 ca        1 15W     -0.057000
      8 CAK         3.3370    0.0050    3.6760 ca        1 15W     -0.117800
      9 CAI         4.0760   -0.0530    4.9370 cc        1 15W      0.204900
     10 OAJ         3.2360    0.1670    6.0220 os        1 15W     -0.226200
     11 CAF         3.8100    0.1330    7.2820 ca        1 15W      0.178100
     12 CAA         2.9190    0.3580    8.3430 ca        1 15W     -0.196000
     13 CAB         3.4360    0.3390    9.6430 ca        1 15W      0.175100
     14 OAT         2.5380    0.5620   10.6560 oh        1 15W     -0.490100
     15 CAC         4.8040    0.1030    9.8870 ca        1 15W     -0.247000
     16 CAD         5.6590   -0.1150    8.8180 ca        1 15W     -0.008000
     17 CAE         5.1780   -0.1040    7.5000 ca        1 15W     -0.250600
     18 CAG         6.0720   -0.3350    6.3570 c         1 15W      0.594900
     19 OAQ         7.2870   -0.5470    6.4800 o         1 15W     -0.552100
     20 CAH         5.4010   -0.2970    5.0590 cd        1 15W     -0.322200
     21 H1         -0.6200    0.5560    0.5660 h1        1 15W      0.048033
     22 H2         -0.2030   -1.2070    0.2650 h1        1 15W      0.048033
     23 H3         -0.2650   -0.0240   -1.1430 h1        1 15W      0.048033
     24 H4          0.2050   -0.5240    2.4150 ha        1 15W      0.150000
     25 H5          1.4500   -0.5890    4.5610 ha        1 15W      0.147500
     26 H6          3.8260    0.7060    0.3560 ha        1 15W      0.150000
     27 H7          5.0700    0.6380    2.5230 ha        1 15W      0.147500
     28 H8          1.8530    0.5450    8.1590 ha        1 15W      0.171000
     29 H9          3.0180    0.5260   11.4980 ho        1 15W      0.426000
     30 H10         5.1840    0.0940   10.9180 ha        1 15W      0.142000
     31 H11         6.7340   -0.3020    8.9830 ha        1 15W      0.163000
     32 H12         6.0280   -0.4860    4.1750 ha        1 15W      0.168000
@<TRIPOS>BOND
     1    1    2 1   
     2    1   21 1   
     3    1   22 1   
     4    1   23 1   
     5    2    3 1   
     6    3    4 ar  
     7    3    6 ar  
     8    4    5 ar  
     9    4   24 1   
    10    5    8 ar  
    11    5   25 1   
    12    6    7 ar  
    13    6   26 1   
    14    7    8 ar  
    15    7   27 1   
    16    8    9 1   
    17    9   10 1   
    18    9   20 2   
    19   10   11 1   
    20   11   12 ar  
    21   11   17 ar  
    22   12   13 ar  
    23   12   28 1   
    24   13   14 1   
    25   13   15 ar  
    26   14   29 1   
    27   15   16 ar  
    28   15   30 1   
    29   16   17 ar  
    30   16   31 1   
    31   17   18 1   
    32   18   19 2   
    33   18   20 1   
    34   20   32 1   
@<TRIPOS>SUBSTRUCTURE
     1 15W         1 TEMP              0 ****  ****    0 ROOT
