@<TRIPOS>MOLECULE
15W
   32    28     1     0     0
SMALL
bcc


@<TRIPOS>ATOM
      1 CAS        -3.5730   -0.9020   -4.9980 c3        1 15W     -0.078000
      2 OAR        -2.4240   -0.0940   -4.8620 os        1 15W     -0.205000
      3 CAP        -1.8520   -0.1280   -3.5780 c2        1 15W      0.103000
      4 CAO        -0.8690   -1.0590   -3.2810 c2        1 15W     -0.165000
      5 CAN        -0.2630   -1.0540   -2.0340 c1        1 15W     -0.056000
      6 CAL        -2.2280    0.8090   -2.6280 c1        1 15W     -0.213000
      7 CAM        -1.6220    0.8150   -1.3810 c1        1 15W     -0.059000
      8 CAK        -0.6390   -0.1170   -1.0840 c1        1 15W     -0.106000
      9 CAI        -0.0150   -0.1460    0.2950 c2        1 15W      0.149000
     10 OAJ         1.0140    0.7940    0.6370 os        1 15W     -0.136000
     11 CAF         1.6860    0.7160    1.9690 c2        1 15W      0.133000
     12 CAA         2.7670    1.5560    2.2540 c2        1 15W     -0.195000
     13 CAB         3.3440    1.5440    3.5240 c1        1 15W      0.130000
     14 OAT         4.4470    2.3720    3.8030 o         1 15W     -0.243000
     15 CAC         2.8400    0.6880    4.5170 c2        1 15W     -0.247000
     16 CAD         1.7610   -0.1510    4.2340 c1        1 15W     -0.008000
     17 CAE         1.1820   -0.1400    2.9620 c1        1 15W     -0.230000
     18 CAG         0.0620   -1.0900    2.6360 c1        1 15W      0.316000
     19 OAQ        -0.4150   -1.7900    3.5080 o         1 15W     -0.313000
     20 CAH        -0.5180   -1.0890    1.3130 c1        1 15W     -0.304000
     21 H1         -3.5380   -1.3800   -5.8550 h1        1 15W      0.087333
     22 H2         -3.6060   -1.5510   -4.2620 h1        1 15W      0.087333
     23 H3         -4.3750   -0.3360   -4.9720 h1        1 15W      0.087333
     24 H4         -0.6040   -1.7190   -3.9500 ha        1 15W      0.156000
     25 H5          0.4300   -1.7100   -1.8250 ha        1 15W      0.152000
     26 H6         -2.9210    1.4660   -2.8370 ha        1 15W      0.144000
     27 H7         -1.8860    1.4740   -0.7120 ha        1 15W      0.143000
     28 H8          3.1320    2.1340    1.5580 ha        1 15W      0.171000
     29 H9          5.2000    1.9230    3.6530 ho        1 15W      0.225000
     30 H10         3.2440    0.6800    5.4050 ha        1 15W      0.142000
     31 H11         1.4110   -0.7450    4.9250 ha        1 15W      0.163000
     32 H12        -1.1740   -1.7680    1.0660 ha        1 15W      0.167000
@<TRIPOS>BOND
     1    1    2 1   
     2    1   21 1   
     3    1   22 1   
     4    1   23 1   
     5    2    3 1   
     6    3    4 1   
     7    3    6 1   
     8    4    5 1   
     9    4   24 1   
    10    5   25 1   
    11    6   26 1   
    12    7    8 1   
    13    7   27 1   
    14    8    9 1   
    15    9   10 1   
    16    9   20 1   
    17   10   11 1   
    18   11   12 1   
    19   11   17 1   
    20   12   13 1   
    21   12   28 1   
    22   13   15 1   
    23   14   29 1   
    24   15   16 1   
    25   15   30 1   
    26   16   31 1   
    27   18   19 1   
    28   20   32 1   
@<TRIPOS>SUBSTRUCTURE
     1 15W         1 TEMP              0 ****  ****    0 ROOT
