@<TRIPOS>MOLECULE
15W
   32    34     1     0     0
SMALL
bcc


@<TRIPOS>ATOM
      1 CAS        -6.2230    1.6250   -0.1310 c3        1 15W      0.111700
      2 OAR        -5.7030    0.3390    0.1890 os        1 15W     -0.322900
      3 CAP        -4.3350    0.1970    0.1140 ca        1 15W      0.148100
      4 CAO        -3.4490    1.2170   -0.2560 ca        1 15W     -0.189000
      5 CAN        -2.0820    0.9510   -0.2980 ca        1 15W     -0.057000
      6 CAL        -3.8540   -1.0860    0.4440 ca        1 15W     -0.189000
      7 CAM        -2.4900   -1.3350    0.3970 ca        1 15W     -0.057000
      8 CAK        -1.5920   -0.3220    0.0210 ca        1 15W     -0.117800
      9 CAI        -0.1600   -0.6060   -0.0410 cc        1 15W      0.204900
     10 OAJ         0.5910    0.5440    0.1730 os        1 15W     -0.226200
     11 CAF         1.9690    0.4160    0.1350 ca        1 15W      0.178100
     12 CAA         2.6790    1.6070    0.3530 ca        1 15W     -0.196000
     13 CAB         4.0770    1.5450    0.3300 ca        1 15W      0.175100
     14 OAT         4.7390    2.7270    0.5460 oh        1 15W     -0.490100
     15 CAC         4.7560    0.3320    0.0960 ca        1 15W     -0.247000
     16 CAD         4.0260   -0.8270   -0.1150 ca        1 15W     -0.008000
     17 CAE         2.6230   -0.8060   -0.1000 ca        1 15W     -0.250600
     18 CAG         1.8370   -2.0260   -0.3240 c         1 15W      0.594900
     19 OAQ         2.3510   -3.1350   -0.5330 o         1 15W     -0.552100
     20 CAH         0.3910   -1.8190   -0.2820 cd        1 15W     -0.322200
     21 H1         -5.9810    1.8960   -1.1870 h1        1 15W      0.048033
     22 H2         -7.3280    1.4970    0.0010 h1        1 15W      0.048033
     23 H3         -5.8280    2.3970    0.5740 h1        1 15W      0.048033
     24 H4         -3.8140    2.2200   -0.5130 ha        1 15W      0.150000
     25 H5         -1.3780    1.7490   -0.5830 ha        1 15W      0.147500
     26 H6         -4.5660   -1.8710    0.7370 ha        1 15W      0.150000
     27 H7         -2.1110   -2.3350    0.6640 ha        1 15W      0.147500
     28 H8          2.1550    2.5540    0.5370 ha        1 15W      0.171000
     29 H9          5.6910    2.5500    0.5080 ho        1 15W      0.426000
     30 H10         5.8540    0.3110    0.0840 ha        1 15W      0.142000
     31 H11         4.5340   -1.7890   -0.3000 ha        1 15W      0.163000
     32 H12        -0.2390   -2.7010   -0.4660 ha        1 15W      0.168000
@<TRIPOS>BOND
     1    1    2 1   
     2    1   21 1   
     3    1   22 1   
     4    1   23 1   
     5    2    3 1   
     6    3    4 ar  
     7    3    6 ar  
     8    4    5 ar  
     9    4   24 1   
    10    5    8 ar  
    11    5   25 1   
    12    6    7 ar  
    13    6   26 1   
    14    7    8 ar  
    15    7   27 1   
    16    8    9 1   
    17    9   10 1   
    18    9   20 2   
    19   10   11 1   
    20   11   12 ar  
    21   11   17 ar  
    22   12   13 ar  
    23   12   28 1   
    24   13   14 1   
    25   13   15 ar  
    26   14   29 1   
    27   15   16 ar  
    28   15   30 1   
    29   16   17 ar  
    30   16   31 1   
    31   17   18 1   
    32   18   19 2   
    33   18   20 1   
    34   20   32 1   
@<TRIPOS>SUBSTRUCTURE
     1 15W         1 TEMP              0 ****  ****    0 ROOT
