@<TRIPOS>MOLECULE
15X
   47    49     1     0     0
SMALL
bcc


@<TRIPOS>ATOM
      1 C1          0.8320    0.1730    0.4490 c2        1 15X     -0.088000
      2 C2          1.8800    0.8740   -0.0500 c2        1 15X     -0.117000
      3 C3          3.0450    1.2290    0.8260 c3        1 15X     -0.057000
      4 C4          2.7310    1.1650    2.2930 c2        1 15X     -0.136000
      5 C5          1.6750    0.4470    2.7230 c2        1 15X     -0.180000
      6 C6          0.9020   -0.3350    1.8010 c1        1 15X      0.048000
      7 C13        -2.6050   -0.9670   -1.9400 c3        1 15X     -0.185000
      8 C14        -1.2290   -1.3210   -2.3560 c2        1 15X     -0.127000
      9 C15        -0.1610   -0.9390   -1.5890 c2        1 15X      0.069000
     10 C16        -0.3350   -0.1770   -0.3570 c2        1 15X      0.001000
     11 C17        -1.6150    0.1860    0.0090 c2        1 15X      0.016000
     12 C18        -2.7770   -0.1950   -0.7300 c1        1 15X     -0.104000
     13 C28        -1.9780   -3.1600   -3.7780 c1        1 15X     -0.162000
     14 C30        -3.0880   -6.8480   -6.0860 c2        1 15X     -0.130000
     15 C31        -3.6670   -5.9610   -5.3160 cu        1 15X     -0.178000
     16 C32        -4.7970   -5.0420   -5.0760 cx        1 15X      0.030000
     17 C33        -3.6240   -5.1650   -4.0740 cx        1 15X     -0.060000
     18 C34        -2.7280   -4.0820   -3.9220 c1        1 15X     -0.116000
     19 C43        -3.1090    1.2490    1.5040 c3        1 15X     -0.055000
     20 O43        -1.7550    0.9520    1.1490 os        1 15X     -0.209000
     21 N47         3.6600    2.5830    0.4330 no        1 15X      0.530000
     22 O49         3.5410    2.9590   -0.6970 o         1 15X     -0.344500
     23 N51        -6.0980   -5.5320   -4.7830 n         1 15X     -0.328000
     24 O51         4.2770    3.1890    1.2620 o         1 15X     -0.344500
     25 C53        -7.1580   -4.6020   -4.6820 c2        1 15X      0.369000
     26 N55        -8.3640   -5.0080   -4.0970 n         1 15X     -0.405000
     27 O57        -7.0400   -3.4300   -5.1120 o         1 15X     -0.389000
     28 F59         1.1090   -1.2580   -1.9500 f         1 15X     -0.107000
     29 H2          1.9580    1.1510   -1.1150 ha        1 15X      0.178000
     30 H4          3.8810    0.4880    0.6100 h1        1 15X      0.164000
     31 H5          3.4340    1.6770    2.9700 ha        1 15X      0.173000
     32 H6          1.4180    0.3660    3.7920 ha        1 15X      0.172000
     33 H13        -3.2120   -1.9190   -1.8070 hc        1 15X      0.185000
     34 H18        -3.1290   -0.4070   -2.7750 hc        1 15X      0.185000
     35 H26        -1.2000   -1.3490   -4.4890 hc        1 15X      0.119000
     36 H26A       -0.0040   -2.4700   -3.7080 hc        1 15X      0.119000
     37 H30        -2.1040   -7.2770   -5.8500 ha        1 15X      0.127500
     38 H31        -3.5560   -7.2110   -7.0130 ha        1 15X      0.127500
     39 H33        -4.8460   -4.1040   -5.6840 h1        1 15X      0.177000
     40 H34        -3.7990   -5.7110   -3.1190 hc        1 15X      0.139000
     41 H43        -3.6010    1.8380    0.6930 h1        1 15X      0.088667
     42 H43A       -2.9980    1.8540    2.4380 h1        1 15X      0.088667
     43 H43B       -3.6760    0.3070    1.6920 h1        1 15X      0.088667
     44 HN51       -6.1340   -6.3410   -4.2050 hn        1 15X      0.212000
     45 HN55       -8.5910   -5.9720   -4.0690 hn        1 15X      0.217000
     46 HN5A       -9.1240   -4.3850   -4.2500 hn        1 15X      0.217000
     47 C26        -1.0580   -2.0720   -3.6320 c3        1 15X     -0.017000
@<TRIPOS>BOND
     1    1    2 1   
     2    1    6 1   
     3    1   10 1   
     4    2    3 1   
     5    2   29 1   
     6    3    4 1   
     7    3   21 1   
     8    3   30 1   
     9    4    5 1   
    10    4   31 1   
    11    5    6 1   
    12    5   32 1   
    13    7    8 1   
    14    7   12 1   
    15    7   33 1   
    16    7   34 1   
    17    8    9 1   
    18    8   47 1   
    19    9   10 1   
    20    9   28 1   
    21   10   11 1   
    22   11   12 1   
    23   11   20 1   
    24   13   18 1   
    25   13   47 1   
    26   14   15 1   
    27   14   37 1   
    28   14   38 1   
    29   15   16 1   
    30   15   17 1   
    31   16   17 1   
    32   16   23 1   
    33   16   39 1   
    34   17   18 1   
    35   17   40 1   
    36   19   20 1   
    37   19   41 1   
    38   19   42 1   
    39   19   43 1   
    40   21   22 1   
    41   21   24 1   
    42   23   25 1   
    43   23   44 1   
    44   25   26 1   
    45   25   27 1   
    46   26   45 1   
    47   26   46 1   
    48   35   47 1   
    49   36   47 1   
@<TRIPOS>SUBSTRUCTURE
     1 15X         1 TEMP              0 ****  ****    0 ROOT
