@<TRIPOS>MOLECULE
15X
   48    47     1     0     0
SMALL
bcc


@<TRIPOS>ATOM
      1 C1         -0.6950   -0.1100   -0.4150 c2        1 15X      0.011000
      2 C2         -0.1530   -1.3160   -0.1820 c2        1 15X     -0.259000
      3 C3          0.4810   -1.7800    1.0950 c3        1 15X     -0.108000
      4 C4         -0.5300   -2.6460    1.7560 c2        1 15X      0.361000
      5 C5         -1.0210   -2.4500    3.0060 c1        1 15X     -0.296000
      6 C6         -1.4930   -2.2870    4.1180 c1        1 15X      0.215000
      7 C13        -1.4800   -0.1690   -4.6850 c2        1 15X     -0.474000
      8 C14        -1.9570   -1.1560   -3.7410 c2        1 15X      0.035000
      9 C15        -1.9700   -0.9440   -2.3910 c2        1 15X      0.035000
     10 C16        -1.3860    0.1930   -1.6650 c2        1 15X     -0.105000
     11 C17        -1.5220    1.4620   -2.1100 c2        1 15X     -0.058000
     12 C18        -1.9960    0.1030   -5.8720 c1        1 15X      0.266000
     13 C28        -3.3730   -2.7200   -5.1100 c2        1 15X     -0.039000
     14 C30        -3.7430   -4.1250   -5.4640 c3        1 15X     -0.077000
     15 C31        -3.4490   -5.1230   -4.4560 c2        1 15X     -0.192000
     16 C32        -3.1120   -5.3900   -3.1500 c2        1 15X     -0.106000
     17 C33        -3.3100   -6.4920   -4.0800 c1        1 15X      0.084000
     18 C34        -4.1300   -1.6530   -5.8040 c3        1 15X     -0.215000
     19 O43        -0.9320    2.5040   -1.3610 os        1 15X     -0.069000
     20 N47         1.0460   -0.6470    1.9740 no        1 15X      0.521000
     21 O49         0.2780    0.1120    2.4910 o         1 15X     -0.306500
     22 N51        -2.8020   -4.8940   -1.9460 ns        1 15X     -0.264000
     23 O51         2.2310   -0.5970    2.0910 o         1 15X     -0.306500
     24 C53        -2.3020   -5.6840   -0.8770 c2        1 15X      0.434000
     25 N55        -2.3000   -7.0490   -0.9550 nt        1 15X     -0.392000
     26 O57        -1.8530   -5.0650    0.1320 o         1 15X     -0.495000
     27 H2         -0.1500   -2.1060   -0.9560 ha        1 15X      0.173000
     28 H4          1.3870   -2.4290    0.8310 h1        1 15X      0.220000
     29 H5         -1.9040   -2.1380    5.1000 ha        1 15X      0.285000
     30 H6         -0.6580    0.7220    0.3170 ha        1 15X      0.179000
     31 H13        -0.5730    0.4010   -4.3790 ha        1 15X      0.201000
     32 H18        -2.0650    1.7560   -3.0220 h4        1 15X      0.167000
     33 H26        -3.5840   -1.3550   -6.7420 hc        1 15X      0.107667
     34 H26A       -1.7830   -3.2870   -3.8200 ha        1 15X      0.134000
     35 H30        -4.8490   -4.1730   -5.6930 hc        1 15X      0.138000
     36 H31        -3.2070   -4.4050   -6.4200 hc        1 15X      0.138000
     37 H33        -4.2420   -0.7470   -5.1570 hc        1 15X      0.107667
     38 H34        -5.1530   -1.9950   -6.1000 hc        1 15X      0.107667
     39 H43        -3.0560    4.2740   -0.6040 ha        1 15X      0.006500
     40 H43A       -2.6320    4.5960   -0.1810 ha        1 15X      0.006500
     41 H43B       -1.5750    4.0600   -2.5920 ha        1 15X      0.046000
     42 HN51       -2.8440   -3.9070   -1.7840 hn        1 15X      0.268000
     43 HN55       -2.6470   -7.5310   -1.7530 hn        1 15X      0.263500
     44 HN5A       -0.9130   -3.5110    1.1400 ha        1 15X      0.266000
     45 C26        -2.3810   -2.4590   -4.2430 c2        1 15X     -0.198000
     46 H553       -1.9610   -7.5610   -0.1770 hn        1 15X      0.263500
     47 F59        -2.5330   -1.8890   -1.5790 f         1 15X     -0.127000
     48 C43        -1.0230    3.7440   -1.6810 c1        1 15X      0.046000
@<TRIPOS>BOND
     1    1    2 1   
     2    1   10 1   
     3    1   30 1   
     4    2    3 1   
     5    2   27 1   
     6    3    4 1   
     7    3   20 1   
     8    3   28 1   
     9    4    5 1   
    10    4   44 1   
    11    5    6 1   
    12    6   29 1   
    13    7    8 1   
    14    7   12 1   
    15    7   31 1   
    16    8    9 1   
    17    8   45 1   
    18    9   10 1   
    19    9   47 1   
    20   10   11 1   
    21   11   19 1   
    22   11   32 1   
    23   13   14 1   
    24   13   18 1   
    25   13   45 1   
    26   14   15 1   
    27   14   35 1   
    28   14   36 1   
    29   15   16 1   
    30   15   17 1   
    31   16   17 1   
    32   16   22 1   
    33   18   33 1   
    34   18   37 1   
    35   18   38 1   
    36   19   48 1   
    37   20   21 1   
    38   20   23 1   
    39   22   24 1   
    40   22   42 1   
    41   24   25 1   
    42   24   26 1   
    43   25   43 1   
    44   25   46 1   
    45   34   45 1   
    46   39   40 1   
    47   41   48 1   
@<TRIPOS>SUBSTRUCTURE
     1 15X         1 TEMP              0 ****  ****    0 ROOT
