@<TRIPOS>MOLECULE
15X
   47    49     1     0     0
SMALL
bcc


@<TRIPOS>ATOM
      1 C1         -2.9260   -0.2000    0.5810 cp        1 15X     -0.028000
      2 C2         -3.6650    0.5940   -0.3060 ca        1 15X     -0.052000
      3 C3         -4.7540    1.3340    0.1770 ca        1 15X     -0.179200
      4 C4         -5.1140    1.2970    1.5340 ca        1 15X     -0.066000
      5 C5         -4.3700    0.5030    2.4030 ca        1 15X     -0.146000
      6 C6         -3.2880   -0.2420    1.9350 ca        1 15X     -0.058000
      7 C13         0.3850   -2.5020   -0.8610 ca        1 15X     -0.059000
      8 C14         0.3050   -1.1490   -1.1950 ca        1 15X     -0.134300
      9 C15        -0.7880   -0.3940   -0.7120 ca        1 15X      0.169900
     10 C16        -1.7910   -0.9820    0.0940 cp        1 15X     -0.110000
     11 C17        -1.6570   -2.3520    0.4150 ca        1 15X      0.159100
     12 C18        -0.5800   -3.1070   -0.0650 ca        1 15X     -0.214000
     13 C28         2.5410   -0.0800   -1.2800 ca        1 15X     -0.105300
     14 C30         3.7060   -0.8500   -1.2490 ca        1 15X     -0.100500
     15 C31         4.8270   -0.4320   -0.5400 ca        1 15X     -0.159500
     16 C32         4.8060    0.7910    0.1620 ca        1 15X      0.064600
     17 C33         3.6250    1.5730    0.1240 ca        1 15X     -0.159500
     18 C34         2.5140    1.1340   -0.5840 ca        1 15X     -0.100500
     19 C43        -2.6640   -4.2920    1.3670 c3        1 15X      0.111700
     20 O43        -2.6400   -2.8730    1.2330 os        1 15X     -0.326900
     21 N47        -5.5420    2.1720   -0.7640 no        1 15X      0.313200
     22 O49        -5.2440    2.1820   -1.9290 o         1 15X     -0.210500
     23 N51         5.8840    1.2370    0.9510 n         1 15X     -0.458100
     24 O51        -6.4610    2.8200   -0.3370 o         1 15X     -0.210500
     25 C53         7.2330    0.9320    0.6690 c         1 15X      0.752100
     26 N55         8.2300    1.6570    1.3380 n         1 15X     -0.651000
     27 O57         7.5760    0.0490   -0.1510 o         1 15X     -0.624100
     28 F59        -0.8720    0.9210   -1.0280 f         1 15X     -0.132900
     29 H2         -3.3860    0.6400   -1.3730 ha        1 15X      0.175000
     30 H4         -5.9710    1.8860    1.9010 ha        1 15X      0.169000
     31 H5         -4.6430    0.4630    3.4690 ha        1 15X      0.147000
     32 H6         -2.7170   -0.8820    2.6270 ha        1 15X      0.154000
     33 H13         1.2350   -3.0970   -1.2330 ha        1 15X      0.144000
     34 H18        -0.4850   -4.1730    0.1840 ha        1 15X      0.146000
     35 H26         1.6670   -1.2680   -2.8410 hc        1 15X      0.063200
     36 H26A        0.9100    0.3590   -2.5970 hc        1 15X      0.063200
     37 H30         3.7450   -1.8050   -1.7960 ha        1 15X      0.136500
     38 H31         5.7340   -1.0590   -0.5430 ha        1 15X      0.151000
     39 H33         3.5720    2.5340    0.6570 ha        1 15X      0.151000
     40 H34         1.5990    1.7470   -0.6000 ha        1 15X      0.136500
     41 H43        -2.7200   -4.7870    0.3680 h1        1 15X      0.049700
     42 H43A       -1.7680   -4.6440    1.9330 h1        1 15X      0.049700
     43 H43B       -3.5990   -4.4780    1.9540 h1        1 15X      0.049700
     44 HN51        5.7070    2.0880    1.4410 hn        1 15X      0.307500
     45 HN55        8.0220    2.1010    2.1990 hn        1 15X      0.304000
     46 HN5A        9.1430    1.2760    1.2500 hn        1 15X      0.304000
     47 C26         1.3500   -0.5260   -2.0580 c3        1 15X      0.015200
@<TRIPOS>BOND
     1    1    2 ar  
     2    1    6 ar  
     3    1   10 1   
     4    2    3 ar  
     5    2   29 1   
     6    3    4 ar  
     7    3   21 1   
     8    4    5 ar  
     9    4   30 1   
    10    5    6 ar  
    11    5   31 1   
    12    6   32 1   
    13    7    8 ar  
    14    7   12 ar  
    15    7   33 1   
    16    8    9 ar  
    17    8   47 1   
    18    9   10 ar  
    19    9   28 1   
    20   10   11 ar  
    21   11   12 ar  
    22   11   20 1   
    23   12   34 1   
    24   13   14 ar  
    25   13   18 ar  
    26   13   47 1   
    27   14   15 ar  
    28   14   37 1   
    29   15   16 ar  
    30   15   38 1   
    31   16   17 ar  
    32   16   23 1   
    33   17   18 ar  
    34   17   39 1   
    35   18   40 1   
    36   19   20 1   
    37   19   41 1   
    38   19   42 1   
    39   19   43 1   
    40   21   22 1   
    41   21   24 1   
    42   23   25 1   
    43   23   44 1   
    44   25   26 1   
    45   25   27 2   
    46   26   45 1   
    47   26   46 1   
    48   35   47 1   
    49   36   47 1   
@<TRIPOS>SUBSTRUCTURE
     1 15X         1 TEMP              0 ****  ****    0 ROOT
