@<TRIPOS>MOLECULE
15X
   47    40     1     0     0
SMALL
bcc


@<TRIPOS>ATOM
      1 C1          2.0850    1.4060    2.4970 c1        1 15X     -0.028000
      2 C2          3.4680    1.6240    2.4870 c1        1 15X     -0.039000
      3 C3          4.2040    1.5820    3.7040 c1        1 15X     -0.136000
      4 C4          3.5600    1.3280    4.8930 c1        1 15X     -0.104500
      5 C5          2.1650    1.1070    4.9090 c1        1 15X     -0.104500
      6 C6          1.4280    1.1480    3.7010 c1        1 15X     -0.071000
      7 C13        -0.0840    1.2350   -1.0690 c1        1 15X     -0.059000
      8 C14         0.6020    0.1350   -0.6180 c1        1 15X     -0.132000
      9 C15         1.3320    0.1980    0.5640 c1        1 15X      0.130000
     10 C16         1.3720    1.3640    1.2890 c1        1 15X     -0.111000
     11 C17         0.6790    2.4860    0.8390 c1        1 15X      0.116000
     12 C18        -0.0500    2.4180   -0.3450 c1        1 15X     -0.216000
     13 C26         0.6560   -1.1620   -1.4890 c3        1 15X     -0.079000
     14 C28        -0.7800   -1.5750   -1.8890 c2        1 15X     -0.099000
     15 C30        -1.4850   -0.8190   -2.7940 c2        1 15X     -0.107000
     16 C31        -2.7700   -1.2700   -3.2650 c1        1 15X     -0.182000
     17 C32        -3.2890   -2.4560   -2.8080 c1        1 15X      0.073000
     18 C33        -2.5640   -3.2330   -1.8780 c1        1 15X     -0.138000
     19 C34        -1.3200   -2.7950   -1.4220 c1        1 15X     -0.098000
     20 C43         1.0310    4.8530    0.8250 c3        1 15X     -0.078000
     21 O43         0.7030    3.6900    1.5930 os        1 15X     -0.207000
     22 N47         5.5780    1.7670    3.6860 no        1 15X      0.569000
     23 O49         6.3410    1.5480    4.8590 o         1 15X     -0.362000
     24 N51        -4.5630   -2.9360   -3.3150 n         1 15X     -0.313000
     25 O51         6.1080    2.1060    2.7010 o         1 15X     -0.362000
     26 C53        -4.8180   -4.3520   -3.3830 c2        1 15X      0.379000
     27 N55        -6.0610   -4.8340   -3.9420 n         1 15X     -0.411000
     28 O57        -3.9750   -5.1360   -3.0200 o         1 15X     -0.383000
     29 F59         2.0410   -0.8850    0.9770 f         1 15X     -0.100000
     30 H2          3.9550    1.8140    1.6010 ha        1 15X      0.179000
     31 H4          4.0880    1.3010    5.7600 ha        1 15X      0.158500
     32 H5          1.7210    0.9320    5.7340 ha        1 15X      0.158500
     33 H6          0.4540    0.9920    3.7130 ha        1 15X      0.150000
     34 H13        -0.5780    1.1860   -1.8710 ha        1 15X      0.150000
     35 H18        -0.5250    3.1800   -0.6580 ha        1 15X      0.146000
     36 H26         1.1760   -0.9960   -2.2830 hc        1 15X      0.104500
     37 H26A        1.0530   -1.8530   -0.9940 hc        1 15X      0.104500
     38 H30        -1.1290   -0.0110   -3.1010 ha        1 15X      0.133000
     39 H31        -3.2770   -0.7260   -3.9170 ha        1 15X      0.129000
     40 H33        -2.9500   -4.1130   -1.5380 ha        1 15X      0.174000
     41 H34        -0.8100   -3.3450   -0.7680 ha        1 15X      0.139000
     42 H43         1.9210    4.7490    0.4430 h1        1 15X      0.090000
     43 H43A        1.0120    5.6580    1.4170 h1        1 15X      0.090000
     44 H43B        0.3950    4.9600    0.1230 h1        1 15X      0.090000
     45 HN51       -5.1670   -2.3330   -3.7110 hn        1 15X      0.221000
     46 HN55       -6.6290   -4.2430   -4.4070 hn        1 15X      0.218000
     47 HN5A       -6.3020   -5.6920   -3.8280 hn        1 15X      0.218000
@<TRIPOS>BOND
     1    1    6 1   
     2    2    3 1   
     3    2   30 1   
     4    3   22 1   
     5    4    5 1   
     6    4   31 1   
     7    5   32 1   
     8    6   33 1   
     9    7    8 1   
    10    7   34 1   
    11    8   13 1   
    12    9   10 1   
    13    9   29 1   
    14   11   12 1   
    15   11   21 1   
    16   12   35 1   
    17   13   14 1   
    18   13   36 1   
    19   13   37 1   
    20   14   15 1   
    21   14   19 1   
    22   15   16 1   
    23   15   38 1   
    24   16   39 1   
    25   17   18 1   
    26   17   24 1   
    27   18   40 1   
    28   19   41 1   
    29   20   21 1   
    30   20   42 1   
    31   20   43 1   
    32   20   44 1   
    33   22   23 1   
    34   22   25 1   
    35   24   26 1   
    36   24   45 1   
    37   26   27 1   
    38   26   28 1   
    39   27   46 1   
    40   27   47 1   
@<TRIPOS>SUBSTRUCTURE
     1 15X         1 TEMP              0 ****  ****    0 ROOT
