@<TRIPOS>MOLECULE
15X
   48    45     1     0     0
SMALL
bcc


@<TRIPOS>ATOM
      1 C1         -1.2690    0.2340   -0.6510 c2        1 15X     -0.022000
      2 C2         -1.0230   -1.0060   -1.1230 c2        1 15X     -0.250000
      3 C3         -0.9310   -2.1860   -0.2100 c3        1 15X     -0.112000
      4 C4          0.4870   -2.5250    0.1350 c1        1 15X      0.036000
      5 C5          1.3530   -1.4180    0.2400 c2        1 15X     -0.536000
      6 C6          1.1410   -0.1890   -0.2460 c1        1 15X      0.320000
      7 C13        -0.3880    3.1850   -4.0070 c2        1 15X     -0.492000
      8 C14        -1.7530    2.7890   -3.5390 c3        1 15X      0.111000
      9 C15        -1.6480    1.4800   -2.7740 c2        1 15X      0.107000
     10 C16        -1.3540    1.4470   -1.4410 c2        1 15X     -0.148000
     11 C17        -1.1140    2.7130   -0.6990 c3        1 15X     -0.182000
     12 C18         0.4230    4.0350   -3.4180 c1        1 15X      0.223000
     13 C28        -3.4560    2.6930   -5.5470 c1        1 15X     -0.151000
     14 C30        -3.2870   -5.9620   -3.4500 c2        1 15X     -0.145000
     15 C31        -3.0980   -6.9340   -2.5690 c2        1 15X     -0.062000
     16 C32        -2.1530   -7.0810   -1.3750 c3        1 15X      0.069000
     17 C33        -0.7300   -6.9180   -1.7590 c2        1 15X     -0.517000
     18 C34         0.2920   -7.7320   -1.6100 c1        1 15X      0.272000
     19 O43        -2.3950    5.6600   -1.5490 o         1 15X     -0.235000
     20 N47        -1.6020   -3.4260   -0.8120 no        1 15X      0.547000
     21 O49        -1.3750   -3.7400   -1.9490 o         1 15X     -0.382000
     22 N51        -2.4730   -8.4160   -0.8100 n2        1 15X     -0.094000
     23 O51        -2.3490   -4.0650   -0.1210 o         1 15X     -0.382000
     24 C53        -3.4270   -8.9100   -1.5560 c2        1 15X      0.015000
     25 N55        -4.1210  -10.1870   -1.4330 n4        1 15X      0.002000
     26 O57        -3.8920   -8.1310   -2.6370 os        1 15X     -0.183000
     27 H2         -0.8690   -1.2120   -2.1970 ha        1 15X      0.183000
     28 H4         -1.4830   -2.0090    0.7690 h1        1 15X      0.177000
     29 H5          2.3440   -1.6390    0.7050 ha        1 15X      0.230000
     30 H6         -1.4390    0.3870    0.4350 ha        1 15X      0.139000
     31 H13        -2.0530    3.3250   -0.6440 hc        1 15X      0.098333
     32 H18        -0.7620    2.5140    0.3430 hc        1 15X      0.098333
     33 H26        -2.1460    3.5770   -2.8180 hc        1 15X      0.146000
     34 H26A       -0.0580    2.7040   -4.9520 ha        1 15X      0.207000
     35 H30        -4.0360   -6.0210   -4.2520 ha        1 15X      0.170000
     36 H31        -2.6840   -5.0390   -3.3930 ha        1 15X      0.170000
     37 H33        -0.5230   -5.9120   -2.2040 ha        1 15X      0.238000
     38 H34        -4.1470    2.6740   -6.3530 ha        1 15X      0.232000
     39 H43        -4.1330    3.8820   -1.6380 ha        1 15X      0.001500
     40 H43A       -4.2480    4.0760   -0.9990 ha        1 15X      0.001500
     41 H43B       -0.3290    3.3250   -1.2160 hc        1 15X      0.098333
     42 HN51       -2.4070   -6.3040   -0.5810 h1        1 15X      0.200000
     43 HN55       -3.7460  -10.7200   -0.6350 hn        1 15X      0.286000
     44 HN5A       -5.1250  -10.0020   -1.2950 hn        1 15X      0.286000
     45 C26        -2.6790    2.7160   -4.6380 c1        1 15X     -0.197000
     46 H553       -3.9870  -10.7140   -2.3080 hn        1 15X      0.286000
     47 F59        -1.8630    0.3580   -3.4930 f         1 15X     -0.093000
     48 C43        -2.4090    6.8300   -1.4600 c1        1 15X      0.235000
@<TRIPOS>BOND
     1    1    2 1   
     2    1   10 1   
     3    1   30 1   
     4    2    3 1   
     5    2   27 1   
     6    3    4 1   
     7    3   20 1   
     8    3   28 1   
     9    4    5 1   
    10    5    6 1   
    11    5   29 1   
    12    7    8 1   
    13    7   12 1   
    14    7   34 1   
    15    8    9 1   
    16    8   33 1   
    17    8   45 1   
    18    9   10 1   
    19    9   47 1   
    20   10   11 1   
    21   11   31 1   
    22   11   32 1   
    23   11   41 1   
    24   13   38 1   
    25   13   45 1   
    26   14   15 1   
    27   14   35 1   
    28   14   36 1   
    29   15   16 1   
    30   15   26 1   
    31   16   17 1   
    32   16   22 1   
    33   16   42 1   
    34   17   18 1   
    35   17   37 1   
    36   19   48 1   
    37   20   21 1   
    38   20   23 1   
    39   22   24 1   
    40   24   25 1   
    41   24   26 1   
    42   25   43 1   
    43   25   44 1   
    44   25   46 1   
    45   39   40 1   
@<TRIPOS>SUBSTRUCTURE
     1 15X         1 TEMP              0 ****  ****    0 ROOT
