@<TRIPOS>MOLECULE
15Y
   27    27     1     0     0
SMALL
bcc


@<TRIPOS>ATOM
      1 S          -1.1980    0.4360    0.4560 s6        1 15Y      1.464700
      2 O1         -0.4680   -0.7510    0.2520 o         1 15Y     -0.743200
      3 O2         -0.9870    1.0130    1.7380 o         1 15Y     -0.743200
      4 C1         -1.0000    4.4620    1.5170 c3        1 15Y      0.206000
      5 C2         -1.6460    3.9150    2.7550 c2        1 15Y     -0.165200
      6 C3         -0.8660    5.3580   -1.4480 c3        1 15Y     -0.025900
      7 C4         -0.6990    3.8920   -1.5200 c2        1 15Y     -0.225400
      8 C5         -0.8790    3.3260   -2.9160 c3        1 15Y      0.029000
      9 C6         -0.0640    2.0650   -3.0550 c2        1 15Y     -0.268300
     10 C7         -0.1310    1.3870   -1.9230 c1        1 15Y      0.114200
     11 C8         -0.4950    1.6140   -0.6720 ce        1 15Y     -0.296200
     12 C9         -0.4220    3.0950   -0.4310 ce        1 15Y      0.184000
     13 C10        -2.1050    4.7030    3.7240 c2        1 15Y     -0.269000
     14 N          -0.0740    3.5670    0.8470 nu        1 15Y     -0.710000
     15 H3         -1.7300    2.8080    2.8050 ha        1 15Y      0.194000
     16 H4         -1.9420    5.6210   -1.2810 hc        1 15Y      0.024367
     17 H5         -0.5420    5.8460   -2.4020 hc        1 15Y      0.024367
     18 H6         -1.9710    3.1630   -3.1090 hc        1 15Y      0.043700
     19 H7         -0.4980    4.0590   -3.6740 hc        1 15Y      0.043700
     20 H8          0.5580    1.8820   -3.9280 ha        1 15Y      0.136000
     21 H9         -0.2610    5.8060   -0.6200 hc        1 15Y      0.024367
     22 H10        -2.0230    5.7970    3.6950 ha        1 15Y      0.094500
     23 H11        -2.5980    4.3000    4.6160 ha        1 15Y      0.094500
     24 H12         0.1810    2.7980    1.4520 hn        1 15Y      0.426800
     25 O3         -2.5600    0.3510    0.1070 o         1 15Y     -0.743200
     26 H1         -1.8280    4.7810    0.8180 h1        1 15Y      0.041200
     27 H2         -0.4080    5.3880    1.7830 h1        1 15Y      0.041200
@<TRIPOS>BOND
     1    1    2 1   
     2    1    3 1   
     3    1   11 1   
     4    1   25 1   
     5    4    5 1   
     6    4   14 1   
     7    4   26 1   
     8    4   27 1   
     9    5   13 2   
    10    5   15 1   
    11    6    7 1   
    12    6   16 1   
    13    6   17 1   
    14    6   21 1   
    15    7    8 1   
    16    7   12 2   
    17    8    9 1   
    18    8   18 1   
    19    8   19 1   
    20    9   10 2   
    21    9   20 1   
    22   10   11 2   
    23   11   12 1   
    24   12   14 1   
    25   13   22 1   
    26   13   23 1   
    27   14   24 1   
@<TRIPOS>SUBSTRUCTURE
     1 15Y         1 TEMP              0 ****  ****    0 ROOT
