@<TRIPOS>MOLECULE
15Y
   27    27     1     0     0
SMALL
bcc


@<TRIPOS>ATOM
      1 S          -1.4480    0.4640    0.4490 s6        1 15Y      1.464700
      2 O1         -0.8240   -0.7810    0.2410 o         1 15Y     -0.743200
      3 O2         -1.1860    1.0180    1.7320 o         1 15Y     -0.743200
      4 C1         -0.9020    4.4550    1.5200 c3        1 15Y      0.206000
      5 C2         -1.5890    3.9620    2.7580 c2        1 15Y     -0.165200
      6 C3         -0.6970    5.3450   -1.4430 c3        1 15Y     -0.025900
      7 C4         -0.6570    3.8690   -1.5200 c2        1 15Y     -0.225400
      8 C5         -0.8880    3.3240   -2.9170 c3        1 15Y      0.029000
      9 C6         -0.1860    1.9980   -3.0600 c2        1 15Y     -0.268300
     10 C7         -0.3080    1.3260   -1.9300 c1        1 15Y      0.114200
     11 C8         -0.6490    1.5800   -0.6770 ce        1 15Y     -0.296200
     12 C9         -0.4480    3.0490   -0.4330 ce        1 15Y      0.184000
     13 C10        -1.9760    4.7850    3.7300 c2        1 15Y     -0.269000
     14 N          -0.0580    3.4850    0.8460 nh        1 15Y     -0.710000
     15 H3         -1.7680    2.8670    2.8050 ha        1 15Y      0.194000
     16 H4         -1.7460    5.6990   -1.2730 hc        1 15Y      0.024367
     17 H5         -0.3350    5.8040   -2.3970 hc        1 15Y      0.024367
     18 H6         -1.9910    3.2570   -3.1070 hc        1 15Y      0.043700
     19 H7         -0.4470    4.0240   -3.6740 hc        1 15Y      0.043700
     20 H8          0.4160    1.7640   -3.9350 ha        1 15Y      0.136000
     21 H9         -0.0540    5.7360   -0.6160 hc        1 15Y      0.024367
     22 H10        -1.8000    5.8680    3.7040 ha        1 15Y      0.094500
     23 H11        -2.5000    4.4230    4.6230 ha        1 15Y      0.094500
     24 H12         0.1310    2.6960    1.4480 hn        1 15Y      0.426800
     25 O3         -2.8130    0.4970    0.1030 o         1 15Y     -0.743200
     26 H1         -0.2320    5.3260    1.7860 h1        1 15Y      0.041200
     27 H2         -1.7000    4.8460    0.8240 h1        1 15Y      0.041200
@<TRIPOS>BOND
     1    1    2 1   
     2    1    3 1   
     3    1   11 1   
     4    1   25 1   
     5    4    5 1   
     6    4   14 1   
     7    4   26 1   
     8    4   27 1   
     9    5   13 2   
    10    5   15 1   
    11    6    7 1   
    12    6   16 1   
    13    6   17 1   
    14    6   21 1   
    15    7    8 1   
    16    7   12 2   
    17    8    9 1   
    18    8   18 1   
    19    8   19 1   
    20    9   10 2   
    21    9   20 1   
    22   10   11 2   
    23   11   12 1   
    24   12   14 1   
    25   13   22 1   
    26   13   23 1   
    27   14   24 1   
@<TRIPOS>SUBSTRUCTURE
     1 15Y         1 TEMP              0 ****  ****    0 ROOT
