@<TRIPOS>MOLECULE
15Y
   27    28     1     0     0
SMALL
bcc


@<TRIPOS>ATOM
      1 S           2.3150    0.5420   -0.1130 s6        1 15Y      1.462100
      2 O1          2.6020    0.7410   -1.4800 o         1 15Y     -0.747533
      3 O2          1.8630    1.7280    0.5340 o         1 15Y     -0.747533
      4 C1         -2.0950    1.6250   -0.4060 c3        1 15Y      0.217800
      5 C2         -3.0700    0.6840    0.3140 c3        1 15Y     -0.090700
      6 C3         -2.8780   -0.7330   -0.2050 c3        1 15Y     -0.007100
      7 C4         -1.4530   -1.1430   -0.1070 ca        1 15Y     -0.197300
      8 C5         -1.1230   -2.4820    0.0830 ca        1 15Y     -0.076000
      9 C6          0.2060   -2.8750    0.2000 ca        1 15Y     -0.224000
     10 C7          1.2100   -1.9100    0.1360 ca        1 15Y     -0.014000
     11 C8          0.9310   -0.5610   -0.0590 ca        1 15Y     -0.328500
     12 C9         -0.4220   -0.1630   -0.2050 ca        1 15Y      0.267600
     13 C10        -4.4910    1.1540    0.1120 c3        1 15Y     -0.084100
     14 N          -0.7380    1.1620   -0.4940 nh        1 15Y     -0.757600
     15 H3         -2.8350    0.6960    1.4150 hc        1 15Y      0.056700
     16 H4         -3.5290   -1.4360    0.3790 hc        1 15Y      0.031700
     17 H5         -3.2110   -0.7840   -1.2780 hc        1 15Y      0.031700
     18 H6         -1.9270   -3.2300    0.1490 ha        1 15Y      0.100000
     19 H7          0.4600   -3.9320    0.3490 ha        1 15Y      0.108000
     20 H8          2.2670   -2.2130    0.2580 ha        1 15Y      0.149000
     21 H9         -5.1990    0.4870    0.6610 hc        1 15Y      0.026700
     22 H10        -4.6140    2.1960    0.4940 hc        1 15Y      0.026700
     23 H11        -4.7630    1.1410   -0.9710 hc        1 15Y      0.026700
     24 H12        -0.0390    1.8380   -0.2390 hn        1 15Y      0.463800
     25 O3          3.3460   -0.1280    0.5900 o         1 15Y     -0.747533
     26 H1         -2.4700    1.7800   -1.4610 h1        1 15Y      0.027200
     27 H2         -2.1180    2.6280    0.1090 h1        1 15Y      0.027200
@<TRIPOS>BOND
     1    1    2 1   
     2    1    3 1   
     3    1   11 1   
     4    1   25 1   
     5    4    5 1   
     6    4   14 1   
     7    4   26 1   
     8    4   27 1   
     9    5    6 1   
    10    5   13 1   
    11    5   15 1   
    12    6    7 1   
    13    6   16 1   
    14    6   17 1   
    15    7    8 ar  
    16    7   12 ar  
    17    8    9 ar  
    18    8   18 1   
    19    9   10 ar  
    20    9   19 1   
    21   10   11 ar  
    22   10   20 1   
    23   11   12 ar  
    24   12   14 1   
    25   13   21 1   
    26   13   22 1   
    27   13   23 1   
    28   14   24 1   
@<TRIPOS>SUBSTRUCTURE
     1 15Y         1 TEMP              0 ****  ****    0 ROOT
