@<TRIPOS>MOLECULE
15Y
   27    27     1     0     0
SMALL
bcc


@<TRIPOS>ATOM
      1 S           0.0170    0.0440    0.2430 s6        1 15Y      2.881000
      2 O1          0.6400    1.0410    1.0350 o         1 15Y     -1.061000
      3 O2         -0.8840   -0.7730    0.9480 o         1 15Y     -1.061000
      4 C1          0.0440    4.3280    1.4380 c3        1 15Y     -0.218500
      5 C2         -1.4490    4.5600    1.3410 c3        1 15Y     -0.101000
      6 C3         -1.9150    4.5770   -0.1130 c3        1 15Y     -0.145000
      7 C4         -1.5760    3.3450   -0.8520 c2        1 15Y      0.048000
      8 C5         -1.0100    3.5350   -2.2250 c3        1 15Y     -0.123000
      9 C6         -0.9630    2.2500   -3.0090 c2        1 15Y     -0.247000
     10 C7         -0.8360    1.2210   -2.1870 c1        1 15Y     -0.017000
     11 C8         -0.9670    1.0030   -0.8930 c2        1 15Y     -0.631000
     12 C9         -1.9820    2.0090   -0.3930 c2        1 15Y      0.001000
     13 C10        -1.8380    5.8650    2.0040 c3        1 15Y     -0.218500
     14 N          -3.0830    1.9050    0.2070 n1        1 15Y     -0.189000
     15 H3         -1.9700    3.7150    1.8750 hc        1 15Y      0.126000
     16 H4         -3.0300    4.7360   -0.1340 hc        1 15Y      0.092500
     17 H5         -1.4530    5.4630   -0.6310 hc        1 15Y      0.092500
     18 H6          0.0200    3.9670   -2.0780 hc        1 15Y      0.115000
     19 H7         -1.6220    4.2800   -2.8010 hc        1 15Y      0.115000
     20 H8         -1.1090    2.2560   -4.0860 ha        1 15Y      0.139000
     21 H9         -1.3240    6.7270    1.5140 hc        1 15Y      0.077000
     22 H10        -2.9410    6.0270    1.9400 hc        1 15Y      0.077000
     23 H11        -1.5440    5.8470    3.0810 hc        1 15Y      0.077000
     24 H12         0.2980    3.2800    1.1210 hc        1 15Y      0.077000
     25 O3          0.9200   -0.6710   -0.5700 o         1 15Y     -1.061000
     26 H1          0.3840    4.4610    2.4930 hc        1 15Y      0.077000
     27 H2          0.6000    5.0510    0.7940 hc        1 15Y      0.077000
@<TRIPOS>BOND
     1    1    2 1   
     2    1    3 1   
     3    1   11 1   
     4    1   25 1   
     5    4    5 1   
     6    4   24 1   
     7    4   26 1   
     8    4   27 1   
     9    5    6 1   
    10    5   13 1   
    11    5   15 1   
    12    6    7 1   
    13    6   16 1   
    14    6   17 1   
    15    7    8 1   
    16    7   12 1   
    17    8    9 1   
    18    8   18 1   
    19    8   19 1   
    20    9   10 1   
    21    9   20 1   
    22   10   11 1   
    23   11   12 1   
    24   12   14 1   
    25   13   21 1   
    26   13   22 1   
    27   13   23 1   
@<TRIPOS>SUBSTRUCTURE
     1 15Y         1 TEMP              0 ****  ****    0 ROOT
