@<TRIPOS>MOLECULE
15Y
   27    24     1     0     0
SMALL
bcc


@<TRIPOS>ATOM
      1 S           0.7370   -3.4300   -0.1560 ss        1 15Y      2.875000
      2 O1          0.0300   -3.6740    1.1560 o         1 15Y     -1.063000
      3 O2          0.3590   -4.6720   -0.9270 o         1 15Y     -1.063000
      4 C1          0.7040    0.6140    1.7030 c3        1 15Y     -0.023000
      5 C2         -0.3670    1.5710    1.3330 c3        1 15Y     -0.118000
      6 C3         -0.6380    1.7180   -0.0540 c3        1 15Y     -0.094000
      7 C4         -0.4930    0.4390   -0.9170 c2        1 15Y     -0.186000
      8 C5         -0.9180    0.3770   -2.2240 c1        1 15Y     -0.080000
      9 C6         -0.8380   -0.8420   -2.9380 c1        1 15Y     -0.118500
     10 C7         -0.3110   -2.0240   -2.2970 c1        1 15Y     -0.118500
     11 C8          0.1290   -1.9670   -0.9520 c1        1 15Y     -0.770000
     12 C9          0.0530   -0.7850   -0.2540 c2        1 15Y      0.180000
     13 C10         0.0500    3.0390    1.9200 c3        1 15Y     -0.204000
     14 N           0.6090   -0.6370    1.1980 n3        1 15Y     -0.308000
     15 H1          1.5600    0.9920    1.4110 h1        1 15Y      0.062000
     16 H2          0.7210    0.5440    2.6800 h1        1 15Y      0.062000
     17 H3         -1.1910    1.2880    1.7750 hc        1 15Y      0.101000
     18 H4         -1.5630    2.0290   -0.1420 hc        1 15Y      0.068500
     19 H5         -0.0140    2.3850   -0.4070 hc        1 15Y      0.068500
     20 H6         -1.2750    1.1750   -2.6580 ha        1 15Y      0.100000
     21 H7         -1.1400   -0.8840   -3.8650 ha        1 15Y      0.128500
     22 H8         -0.2570   -2.8640   -2.7920 ha        1 15Y      0.128500
     23 H9          0.1350    2.9900    2.8950 hc        1 15Y      0.065667
     24 H10        -0.6410    3.6930    1.6850 hc        1 15Y      0.065667
     25 H11         0.9070    3.3150    1.5310 hc        1 15Y      0.065667
     26 H12         1.4200   -1.0530    1.2570 hn        1 15Y      0.259000
     27 O3          2.2320   -3.3380    0.0360 os        1 15Y     -1.085000
@<TRIPOS>BOND
     1    1    2 1   
     2    1    3 1   
     3    4    5 1   
     4    4   14 1   
     5    4   15 1   
     6    4   16 1   
     7    5    6 1   
     8    5   13 1   
     9    5   17 1   
    10    6    7 1   
    11    6   18 1   
    12    6   19 1   
    13    7    8 1   
    14    7   12 1   
    15    8   20 1   
    16    9   10 1   
    17    9   21 1   
    18   10   22 1   
    19   11   12 1   
    20   12   14 1   
    21   13   23 1   
    22   13   24 1   
    23   13   25 1   
    24   14   26 1   
@<TRIPOS>SUBSTRUCTURE
     1 15Y         1 TEMP              0 ****  ****    0 ROOT
