@<TRIPOS>MOLECULE
15Z
   30    24     1     0     0
SMALL
bcc


@<TRIPOS>ATOM
      1 CAM         2.4000    1.1570    0.5190 c1        1 15Z     -0.092000
      2 CAL         3.7850    1.1830    0.5260 c1        1 15Z      0.038500
      3 OAT         4.4660    2.4140    0.5850 oh        1 15Z     -0.254500
      4 CAP         4.5010   -0.0010    0.4590 c1        1 15Z      0.038500
      5 OAS         5.9080    0.0250    0.4620 oh        1 15Z     -0.254500
      6 CAO         3.8310   -1.2120    0.3840 c1        1 15Z     -0.132500
      7 CAN         2.4460   -1.2390    0.3770 c1        1 15Z     -0.132500
      8 CAK         1.7300   -0.0540    0.4450 c1        1 15Z     -0.063000
      9 CAJ         0.2180   -0.0830    0.4380 c1        1 15Z      0.142000
     10 OAG        -0.4940   -0.1300   -0.8070 o         1 15Z     -0.132000
     11 CAF        -1.9870   -0.0770   -0.8190 c1        1 15Z      0.133000
     12 CAA        -2.6720   -0.0040   -2.0350 c1        1 15Z     -0.194000
     13 CAB        -4.0670   -0.0340   -2.0530 c1        1 15Z      0.131000
     14 OAR        -4.7550    0.0230   -3.2780 oh        1 15Z     -0.242000
     15 CAC        -4.7830   -0.1390   -0.8500 c1        1 15Z     -0.132500
     16 CAD        -4.1010   -0.2120    0.3650 c1        1 15Z     -0.132500
     17 CAE        -2.7040   -0.1810    0.3860 c1        1 15Z     -0.231000
     18 CAH        -1.9680   -0.1970    1.6980 c2        1 15Z      0.316000
     19 OAQ        -2.5860   -0.2430    2.7420 o         1 15Z     -0.311000
     20 CAI        -0.5250   -0.1370    1.7130 c2        1 15Z     -0.297000
     21 H1          1.8950    1.9920    0.5670 ha        1 15Z      0.171000
     22 H2          4.5160    2.7640   -0.2310 ho        1 15Z      0.235500
     23 H3          6.2080   -0.2690    1.2460 ho        1 15Z      0.235500
     24 H4          4.3350   -2.0470    0.3370 ha        1 15Z      0.148750
     25 H5          1.9740   -2.0920    0.3250 ha        1 15Z      0.148750
     26 H6         -2.1750    0.0710   -2.8710 ha        1 15Z      0.173000
     27 H7         -4.9870   -0.8000   -3.5270 ho        1 15Z      0.226000
     28 H8         -5.7580   -0.1600   -0.8640 ha        1 15Z      0.148750
     29 H9         -4.6010   -0.2840    1.2020 ha        1 15Z      0.148750
     30 H10        -0.0490   -0.0370    2.5600 ha        1 15Z      0.168000
@<TRIPOS>BOND
     1    1    8 1   
     2    1   21 1   
     3    2    3 1   
     4    2    4 1   
     5    3   22 1   
     6    4    5 1   
     7    5   23 1   
     8    6    7 1   
     9    6   24 1   
    10    7   25 1   
    11    9   20 1   
    12   10   11 1   
    13   11   17 1   
    14   12   13 1   
    15   12   26 1   
    16   13   14 1   
    17   14   27 1   
    18   15   16 1   
    19   15   28 1   
    20   16   29 1   
    21   17   18 1   
    22   18   19 1   
    23   18   20 1   
    24   20   30 1   
@<TRIPOS>SUBSTRUCTURE
     1 15Z         1 TEMP              0 ****  ****    0 ROOT
