@<TRIPOS>MOLECULE
15Z
   30    32     1     0     0
SMALL
bcc


@<TRIPOS>ATOM
      1 CAM        -0.1030   -0.4780    0.0190 ca        1 15Z     -0.092000
      2 CAL         1.2930   -0.4880   -0.0610 ca        1 15Z      0.105100
      3 OAT         1.8520   -0.8610   -1.2600 oh        1 15Z     -0.489100
      4 CAP         2.0640   -0.1240    1.0650 ca        1 15Z      0.062100
      5 OAS         3.4320   -0.1610    0.9030 oh        1 15Z     -0.512100
      6 CAO         1.4370    0.2480    2.2580 ca        1 15Z     -0.178000
      7 CAN         0.0470    0.2550    2.3320 ca        1 15Z     -0.097000
      8 CAK        -0.7250   -0.1120    1.2210 ca        1 15Z     -0.074800
      9 CAJ        -2.1850   -0.1170    1.3230 cc        1 15Z      0.197900
     10 OAG        -2.7770    0.1240    0.0890 os        1 15Z     -0.221200
     11 CAF        -4.1620    0.1370    0.0450 ca        1 15Z      0.178100
     12 CAA        -4.7090    0.3780   -1.2240 ca        1 15Z     -0.194000
     13 CAB        -6.1040    0.4060   -1.3360 ca        1 15Z      0.176100
     14 OAR        -6.6060    0.6440   -2.5910 oh        1 15Z     -0.488100
     15 CAC        -6.9360    0.2000   -0.2170 ca        1 15Z     -0.247000
     16 CAD        -6.3650   -0.0360    1.0230 ca        1 15Z     -0.008000
     17 CAE        -4.9700   -0.0710    1.1760 ca        1 15Z     -0.251600
     18 CAH        -4.3500   -0.3210    2.4830 c         1 15Z      0.594900
     19 OAQ        -5.0030   -0.5060    3.5210 o         1 15Z     -0.550100
     20 CAI        -2.8880   -0.3340    2.4570 cd        1 15Z     -0.316200
     21 H1         -0.7000   -0.7570   -0.8630 ha        1 15Z      0.171000
     22 H2          2.8170   -0.8180   -1.1670 ho        1 15Z      0.439000
     23 H3          3.8390    0.1080    1.7390 ho        1 15Z      0.434000
     24 H4          2.0400    0.5360    3.1310 ha        1 15Z      0.142000
     25 H5         -0.4450    0.5580    3.2700 ha        1 15Z      0.147000
     26 H6         -4.0650    0.5400   -2.0990 ha        1 15Z      0.173000
     27 H7         -7.5740    0.6380   -2.5340 ho        1 15Z      0.427000
     28 H8         -8.0290    0.2270   -0.3330 ha        1 15Z      0.143000
     29 H9         -6.9940   -0.2000    1.9140 ha        1 15Z      0.163000
     30 H10        -2.3800   -0.5400    3.4110 ha        1 15Z      0.168000
@<TRIPOS>BOND
     1    1    2 ar  
     2    1    8 ar  
     3    1   21 1   
     4    2    3 1   
     5    2    4 ar  
     6    3   22 1   
     7    4    5 1   
     8    4    6 ar  
     9    5   23 1   
    10    6    7 ar  
    11    6   24 1   
    12    7    8 ar  
    13    7   25 1   
    14    8    9 1   
    15    9   10 1   
    16    9   20 2   
    17   10   11 1   
    18   11   12 ar  
    19   11   17 ar  
    20   12   13 ar  
    21   12   26 1   
    22   13   14 1   
    23   13   15 ar  
    24   14   27 1   
    25   15   16 ar  
    26   15   28 1   
    27   16   17 ar  
    28   16   29 1   
    29   17   18 1   
    30   18   19 2   
    31   18   20 1   
    32   20   30 1   
@<TRIPOS>SUBSTRUCTURE
     1 15Z         1 TEMP              0 ****  ****    0 ROOT
