@<TRIPOS>MOLECULE
15Z
   30    32     1     0     0
SMALL
bcc


@<TRIPOS>ATOM
      1 CAM        -2.1270    0.9290   -0.4650 ca        1 15Z     -0.092000
      2 CAL        -3.5010    1.1920   -0.4690 ca        1 15Z      0.105100
      3 OAT        -3.9000    2.4530   -0.8420 oh        1 15Z     -0.489100
      4 CAP        -4.4120    0.1760   -0.1000 ca        1 15Z      0.062100
      5 OAS        -5.7470    0.5160   -0.1320 oh        1 15Z     -0.512100
      6 CAO        -3.9450   -1.0870    0.2720 ca        1 15Z     -0.178000
      7 CAN        -2.5760   -1.3430    0.2730 ca        1 15Z     -0.097000
      8 CAK        -1.6670   -0.3430   -0.0990 ca        1 15Z     -0.074800
      9 CAJ        -0.2330   -0.6360   -0.1100 cc        1 15Z      0.197900
     10 OAG         0.5170    0.5100    0.1270 os        1 15Z     -0.221200
     11 CAF         1.8950    0.3710    0.1340 ca        1 15Z      0.178100
     12 CAA         2.6050    1.5580    0.3700 ca        1 15Z     -0.194000
     13 CAB         4.0030    1.4860    0.3920 ca        1 15Z      0.176100
     14 OAR         4.6670    2.6640    0.6260 oh        1 15Z     -0.488100
     15 CAC         4.6810    0.2680    0.1850 ca        1 15Z     -0.247000
     16 CAD         3.9500   -0.8870   -0.0460 ca        1 15Z     -0.008000
     17 CAE         2.5470   -0.8560   -0.0760 ca        1 15Z     -0.251600
     18 CAH         1.7600   -2.0710   -0.3210 c         1 15Z      0.594900
     19 OAQ         2.2710   -3.1850   -0.5070 o         1 15Z     -0.550100
     20 CAI         0.3140   -1.8530   -0.3280 cd        1 15Z     -0.316200
     21 H1         -1.4210    1.7250   -0.7480 ha        1 15Z      0.171000
     22 H2         -4.8680    2.4870   -0.7950 ho        1 15Z      0.439000
     23 H3         -6.2590   -0.2590    0.1410 ho        1 15Z      0.434000
     24 H4         -4.6560   -1.8740    0.5640 ha        1 15Z      0.142000
     25 H5         -2.2110   -2.3370    0.5760 ha        1 15Z      0.147000
     26 H6          2.0830    2.5100    0.5340 ha        1 15Z      0.173000
     27 H7          5.6190    2.4810    0.6160 ho        1 15Z      0.427000
     28 H8          5.7790    0.2390    0.2070 ha        1 15Z      0.143000
     29 H9          4.4570   -1.8530   -0.2110 ha        1 15Z      0.163000
     30 H10        -0.3160   -2.7320   -0.5300 ha        1 15Z      0.168000
@<TRIPOS>BOND
     1    1    2 ar  
     2    1    8 ar  
     3    1   21 1   
     4    2    3 1   
     5    2    4 ar  
     6    3   22 1   
     7    4    5 1   
     8    4    6 ar  
     9    5   23 1   
    10    6    7 ar  
    11    6   24 1   
    12    7    8 ar  
    13    7   25 1   
    14    8    9 1   
    15    9   10 1   
    16    9   20 2   
    17   10   11 1   
    18   11   12 ar  
    19   11   17 ar  
    20   12   13 ar  
    21   12   26 1   
    22   13   14 1   
    23   13   15 ar  
    24   14   27 1   
    25   15   16 ar  
    26   15   28 1   
    27   16   17 ar  
    28   16   29 1   
    29   17   18 1   
    30   18   19 2   
    31   18   20 1   
    32   20   30 1   
@<TRIPOS>SUBSTRUCTURE
     1 15Z         1 TEMP              0 ****  ****    0 ROOT
