@<TRIPOS>MOLECULE
15Z
   30    32     1     0     0
SMALL
bcc


@<TRIPOS>ATOM
      1 CAM        -0.1050   -0.4890    0.0220 ca        1 15Z     -0.092000
      2 CAL         1.2920   -0.5030   -0.0590 ca        1 15Z      0.105100
      3 OAT         1.8500   -0.8840   -1.2550 oh        1 15Z     -0.489100
      4 CAP         2.0640   -0.1350    1.0660 ca        1 15Z      0.062100
      5 OAS         3.4320   -0.1770    0.9040 oh        1 15Z     -0.512100
      6 CAO         1.4380    0.2460    2.2560 ca        1 15Z     -0.178000
      7 CAN         0.0480    0.2570    2.3300 ca        1 15Z     -0.097000
      8 CAK        -0.7250   -0.1140    1.2210 ca        1 15Z     -0.074800
      9 CAJ        -2.1860   -0.1140    1.3230 cc        1 15Z      0.197900
     10 OAG        -2.7770    0.1220    0.0880 os        1 15Z     -0.221200
     11 CAF        -4.1610    0.1390    0.0450 ca        1 15Z      0.178100
     12 CAA        -4.7080    0.3760   -1.2260 ca        1 15Z     -0.194000
     13 CAB        -6.1030    0.4070   -1.3380 ca        1 15Z      0.176100
     14 OAR        -6.6050    0.6410   -2.5940 oh        1 15Z     -0.488100
     15 CAC        -6.9360    0.2100   -0.2180 ca        1 15Z     -0.247000
     16 CAD        -6.3650   -0.0210    1.0230 ca        1 15Z     -0.008000
     17 CAE        -4.9700   -0.0600    1.1770 ca        1 15Z     -0.251600
     18 CAH        -4.3510   -0.3050    2.4850 c         1 15Z      0.594900
     19 OAQ        -5.0050   -0.4830    3.5230 o         1 15Z     -0.550100
     20 CAI        -2.8890   -0.3230    2.4590 cd        1 15Z     -0.316200
     21 H1         -0.7020   -0.7710   -0.8590 ha        1 15Z      0.171000
     22 H2          2.8150   -0.8440   -1.1630 ho        1 15Z      0.439000
     23 H3          3.8390    0.0960    1.7380 ho        1 15Z      0.434000
     24 H4          2.0410    0.5360    3.1280 ha        1 15Z      0.142000
     25 H5         -0.4430    0.5660    3.2660 ha        1 15Z      0.147000
     26 H6         -4.0640    0.5310   -2.1010 ha        1 15Z      0.173000
     27 H7         -7.5720    0.6380   -2.5370 ho        1 15Z      0.427000
     28 H8         -8.0280    0.2400   -0.3340 ha        1 15Z      0.143000
     29 H9         -6.9950   -0.1790    1.9150 ha        1 15Z      0.163000
     30 H10        -2.3810   -0.5260    3.4130 ha        1 15Z      0.168000
@<TRIPOS>BOND
     1    1    2 ar  
     2    1    8 ar  
     3    1   21 1   
     4    2    3 1   
     5    2    4 ar  
     6    3   22 1   
     7    4    5 1   
     8    4    6 ar  
     9    5   23 1   
    10    6    7 ar  
    11    6   24 1   
    12    7    8 ar  
    13    7   25 1   
    14    8    9 1   
    15    9   10 1   
    16    9   20 2   
    17   10   11 1   
    18   11   12 ar  
    19   11   17 ar  
    20   12   13 ar  
    21   12   26 1   
    22   13   14 1   
    23   13   15 ar  
    24   14   27 1   
    25   15   16 ar  
    26   15   28 1   
    27   16   17 ar  
    28   16   29 1   
    29   17   18 1   
    30   18   19 2   
    31   18   20 1   
    32   20   30 1   
@<TRIPOS>SUBSTRUCTURE
     1 15Z         1 TEMP              0 ****  ****    0 ROOT
