@<TRIPOS>MOLECULE
160
   60    61     1     0     0
SMALL
bcc


@<TRIPOS>ATOM
      1 O35         2.4510   -3.1250   -2.5390 o         1 160     -0.457100
      2 C18         2.8530   -1.9640   -2.5890 c         1 160      0.616700
      3 C19         3.7420   -1.2980   -1.6680 cc        1 160     -0.300700
      4 S20         4.3750   -2.0380   -0.3290 ss        1 160      0.487200
      5 C21         5.2470   -0.7670    0.1610 cc        1 160     -0.452600
      6 S24         6.3280   -0.5980    1.4580 sy        1 160      1.423300
      7 O33         7.2530    0.3950    1.1350 o         1 160     -0.638300
      8 O34         6.7940   -1.8700    1.7930 o         1 160     -0.638300
      9 C25         5.2740   -0.0420    2.6440 c3        1 160     -0.379300
     10 C22         5.0940    0.3240   -0.7210 cd        1 160     -0.071000
     11 C23         4.2280    0.0220   -1.7830 cd        1 160     -0.111000
     12 N17         2.3440   -1.1570   -3.7510 ny        1 160     -0.663800
     13 C16         1.0500   -0.4840   -3.4120 c3        1 160      0.124800
     14 C15         0.1800   -0.2080   -4.6240 c3        1 160     -0.084300
     15 S14        -1.2310    0.7620   -4.2260 ss        1 160     -0.091100
     16 S13        -0.6020    2.7190   -3.7990 ss        1 160     -0.156100
     17 C12        -0.5970    3.7050   -5.2700 c3        1 160      0.017000
     18 C8          0.4600    3.3870   -6.2570 ca        1 160     -0.096300
     19 C9          0.3420    3.7990   -7.5940 ca        1 160     -0.040000
     20 C10         1.3200    3.4420   -8.5200 ca        1 160     -0.136000
     21 C11         2.3910    2.6290   -8.1430 ca        1 160      0.001000
     22 C7          1.5780    2.6500   -5.8810 ca        1 160     -0.058000
     23 C6          2.5220    2.1980   -6.8200 ca        1 160     -0.387500
     24 S5          3.5580    1.0250   -6.2180 sy        1 160      1.539200
     25 O27         3.7960    1.2820   -4.8310 o         1 160     -0.695800
     26 O28         2.8750   -0.2140   -6.3460 o         1 160     -0.695800
     27 N4          4.8880    1.1120   -7.0990 n7        1 160     -0.908100
     28 C3          6.2180    1.0810   -6.5480 c3        1 160      0.145500
     29 C2          7.1920    1.9820   -7.3320 c         1 160      0.559100
     30 O26         7.0810    2.1210   -8.5510 o         1 160     -0.497100
     31 C1          8.2350    2.6480   -6.5050 c3        1 160     -0.202100
     32 C29         6.8420   -0.3290   -6.5180 c3        1 160     -0.204400
     33 C30         6.0960   -1.2560   -5.6100 c         1 160      0.662100
     34 O31         4.9910   -1.0500   -5.0890 o         1 160     -0.575000
     35 O32         6.6260   -2.4620   -5.2830 oh        1 160     -0.555100
     36 H251        4.6600   -0.8540    3.1090 h1        1 160      0.128033
     37 H252        4.5560    0.7390    2.2940 h1        1 160      0.128033
     38 H253        5.8370    0.4310    3.4940 h1        1 160      0.128033
     39 H22         5.6160    1.2820   -0.6010 ha        1 160      0.197000
     40 H23         4.0080    0.7310   -2.5930 ha        1 160      0.197000
     41 H17         3.0580   -0.4550   -4.0240 hn        1 160      0.490300
     42 H161        1.3050    0.4840   -2.8880 hx        1 160      0.106700
     43 H162        0.4870   -1.1490   -2.6940 hx        1 160      0.106700
     44 H151        0.7780    0.2390   -5.4600 h1        1 160      0.112700
     45 H152       -0.2670   -1.1630   -5.0160 h1        1 160      0.112700
     46 H121       -0.4380    4.7390   -4.8470 h1        1 160      0.111700
     47 H122       -1.6010    3.6920   -5.7630 h1        1 160      0.111700
     48 H9         -0.5250    4.4020   -7.9100 ha        1 160      0.158000
     49 H10         1.2380    3.7850   -9.5640 ha        1 160      0.162000
     50 H11         3.1200    2.3250   -8.9110 ha        1 160      0.143000
     51 H7          1.7160    2.3990   -4.8090 ha        1 160      0.163000
     52 H4          7.4770   -2.5930   -5.7290 ho        1 160      0.448000
     53 H3          6.1630    1.4620   -5.4790 h1        1 160      0.102700
     54 H11A        8.6720    1.9340   -5.7650 hc        1 160      0.081367
     55 H12         9.0530    3.0490   -7.1550 hc        1 160      0.081367
     56 H13         7.7730    3.5020   -5.9480 hc        1 160      0.081367
     57 H291        7.9040   -0.2390   -6.1610 hc        1 160      0.103200
     58 H292        6.8580   -0.7710   -7.5510 hc        1 160      0.103200
     59 H172        2.2140   -1.7710   -4.5720 hn        1 160      0.490300
     60 H42         4.8860    1.1710   -8.0950 hn        1 160      0.475800
@<TRIPOS>BOND
     1    1    2 2   
     2    2    3 1   
     3    2   12 1   
     4    3    4 1   
     5    3   11 2   
     6    4    5 1   
     7    5    6 1   
     8    5   10 2   
     9    6    7 2   
    10    6    8 2   
    11    6    9 1   
    12    9   36 1   
    13    9   37 1   
    14    9   38 1   
    15   10   11 1   
    16   10   39 1   
    17   11   40 1   
    18   12   13 1   
    19   12   41 1   
    20   12   59 1   
    21   13   14 1   
    22   13   42 1   
    23   13   43 1   
    24   14   15 1   
    25   14   44 1   
    26   14   45 1   
    27   15   16 1   
    28   16   17 1   
    29   17   18 1   
    30   17   46 1   
    31   17   47 1   
    32   18   19 ar  
    33   18   22 ar  
    34   19   20 ar  
    35   19   48 1   
    36   20   21 ar  
    37   20   49 1   
    38   21   23 ar  
    39   21   50 1   
    40   22   23 ar  
    41   22   51 1   
    42   23   24 1   
    43   24   25 2   
    44   24   26 2   
    45   24   27 1   
    46   27   28 1   
    47   27   60 1   
    48   28   29 1   
    49   28   32 1   
    50   28   53 1   
    51   29   30 2   
    52   29   31 1   
    53   31   54 1   
    54   31   55 1   
    55   31   56 1   
    56   32   33 1   
    57   32   57 1   
    58   32   58 1   
    59   33   34 2   
    60   33   35 1   
    61   35   52 1   
@<TRIPOS>SUBSTRUCTURE
     1 160         1 TEMP              0 ****  ****    0 ROOT
