@<TRIPOS>MOLECULE
160
   58    51     1     0     0
SMALL
bcc


@<TRIPOS>ATOM
      1 O35         0.5770   -4.1060   -2.5120 o         1 160     -0.368000
      2 C18        -0.4830   -3.6110   -2.8620 c1        1 160      0.366000
      3 C19        -0.6020   -2.9510   -4.2540 c1        1 160     -0.845500
      4 S20        -1.8390   -2.2160   -4.8080 ss        1 160      0.943000
      5 C21        -1.4380   -1.5870   -6.1650 c1        1 160     -0.845500
      6 S24        -2.4660   -0.5300   -7.1830 ss        1 160      2.901000
      7 O33        -1.9010    0.7710   -7.3140 o         1 160     -0.940500
      8 O34        -3.6960   -0.2300   -6.5390 o         1 160     -0.940500
      9 C25        -2.7420   -1.3010   -8.8120 c2        1 160     -0.938000
     10 C22        -0.0570   -1.9170   -6.4150 c1        1 160     -0.099500
     11 C23         0.4760   -2.7830   -5.2040 c1        1 160     -0.099500
     12 N17        -1.5610   -3.5750   -1.9760 n3        1 160     -0.350000
     13 C16        -2.0800   -4.7750   -1.4610 c3        1 160     -0.022000
     14 C15        -2.0870   -4.7210    0.0440 c3        1 160     -0.295000
     15 S14        -3.1340   -3.3780    0.5950 ss        1 160     -0.070000
     16 S13        -2.3550   -2.5750    2.3150 ss        1 160      0.045000
     17 C12        -2.6270   -0.8010    2.3350 c3        1 160     -0.217000
     18 C8         -1.8640   -0.1800    3.5260 c2        1 160     -0.137000
     19 C9         -2.5020   -0.0270    4.7480 c2        1 160     -0.061000
     20 C10        -1.8710    0.6350    5.7750 c1        1 160     -0.153000
     21 C11        -0.6060    1.1480    5.5920 c1        1 160      0.014000
     22 C7         -0.5920    0.3350    3.3400 c1        1 160     -0.003000
     23 C6          0.0360    0.9970    4.3690 c1        1 160     -0.823000
     24 S5          1.7890    1.5400    4.1820 s4        1 160      2.077800
     25 O27         2.2860    2.1280    5.3930 o         1 160     -0.559400
     26 O28         2.6750    0.4050    4.0360 o         1 160     -0.559400
     27 N4          1.9340    2.6090    2.8760 n2        1 160     -0.899000
     28 C3          3.0860    3.4810    2.7760 c3        1 160      0.001000
     29 C2          2.6770    4.7810    2.1260 c2        1 160      0.242000
     30 O26         2.0250    4.7670    1.1130 o         1 160     -0.343000
     31 C1          3.1300    6.1420    2.7450 c3        1 160     -0.286000
     32 C29         4.1500    2.8110    1.9420 c3        1 160     -0.262000
     33 C30         5.5180    3.0520    2.5690 c2        1 160      0.329000
     34 O31         5.8970    2.3430    3.5410 o         1 160     -0.573500
     35 O32         6.3050    3.9280    2.0700 o         1 160     -0.573500
     36 H251       -2.9890   -2.2750   -8.6870 ha        1 160      0.154667
     37 H252       -3.5050   -0.8140   -9.2970 ha        1 160      0.154667
     38 H253       -1.9120   -1.2360   -9.3510 ha        1 160      0.154667
     39 H22         0.4640   -1.6500   -7.2050 DU        1 160      0.173500
     40 H23         1.3900   -3.1500   -5.1130 DU        1 160      0.173500
     41 H17        -1.9660   -2.7680   -1.7720 hn        1 160      0.236000
     42 H161       -1.5160   -5.5280   -1.7590 h1        1 160      0.117500
     43 H162       -2.9510   -4.8980   -1.7720 h1        1 160      0.117500
     44 H151       -1.1720   -4.5760    0.3700 h1        1 160      0.121500
     45 H152       -2.4330   -5.5770    0.4020 h1        1 160      0.121500
     46 H121       -3.6110   -0.6130    2.4320 h1        1 160      0.108500
     47 H122       -2.2990   -0.4070    1.4930 h1        1 160      0.108500
     48 H9         -3.3880   -0.3850    4.8770 ha        1 160      0.130000
     49 H10        -2.3280    0.7360    6.6620 ha        1 160      0.156000
     50 H11        -0.1570    1.6220    6.3270 ha        1 160      0.227000
     51 H7         -0.1530    0.2920    2.4170 ha        1 160      0.154000
     52 H4          1.2630    2.6550    2.2410 hn        1 160      0.256000
     53 H3          3.4370    3.6610    3.6720 h1        1 160      0.124000
     54 H11A        3.8930    5.9980    3.3160 hc        1 160      0.120667
     55 H12         2.3910    6.5270    3.2760 hc        1 160      0.120667
     56 H13         3.3680    6.7510    2.0380 hc        1 160      0.120667
     57 H291        4.1380    3.1860    1.0270 hc        1 160      0.097500
     58 H292        3.9730    1.8360    1.9030 hc        1 160      0.097500
@<TRIPOS>BOND
     1    1    2 1   
     2    2   12 1   
     3    3    4 1   
     4    3   11 1   
     5    4    5 1   
     6    5   10 1   
     7    6    7 1   
     8    6    8 1   
     9    9   36 1   
    10    9   37 1   
    11    9   38 1   
    12   10   11 1   
    13   12   13 1   
    14   12   41 1   
    15   13   14 1   
    16   13   42 1   
    17   13   43 1   
    18   14   15 1   
    19   14   44 1   
    20   14   45 1   
    21   15   16 1   
    22   16   17 1   
    23   17   18 1   
    24   17   46 1   
    25   17   47 1   
    26   18   19 1   
    27   18   22 1   
    28   19   20 1   
    29   19   48 1   
    30   20   49 1   
    31   21   23 1   
    32   21   50 1   
    33   22   51 1   
    34   23   24 1   
    35   24   25 1   
    36   24   26 1   
    37   27   28 1   
    38   27   52 1   
    39   28   29 1   
    40   28   32 1   
    41   28   53 1   
    42   29   30 1   
    43   29   31 1   
    44   31   54 1   
    45   31   55 1   
    46   31   56 1   
    47   32   33 1   
    48   32   57 1   
    49   32   58 1   
    50   33   34 1   
    51   33   35 1   
@<TRIPOS>SUBSTRUCTURE
     1 160         1 TEMP              0 ****  ****    0 ROOT
