@<TRIPOS>MOLECULE
160
   58    59     1     0     0
SMALL
bcc


@<TRIPOS>ATOM
      1 O35         3.1020   -3.0100    0.8410 o         1 160     -0.618100
      2 C18         2.6070   -1.8660    0.7440 c         1 160      0.691700
      3 C19         3.3420   -0.7800    0.0570 cc        1 160     -0.220700
      4 S20         2.9740    0.8080    0.0140 ss        1 160      0.458200
      5 C21         4.2490    1.2560   -0.9120 cc        1 160     -0.553600
      6 S24         4.7190    2.7370   -1.4530 sy        1 160      1.442300
      7 O33         5.9770    2.6640   -2.0760 o         1 160     -0.671300
      8 O34         4.5870    3.7020   -0.4410 o         1 160     -0.671300
      9 C25         3.5430    3.0300   -2.6360 c3        1 160     -0.358300
     10 C22         5.0330    0.1220   -1.2340 cd        1 160     -0.063000
     11 C23         4.5140   -1.0520   -0.6730 cd        1 160     -0.137000
     12 N17         1.3890   -1.5520    1.3150 n         1 160     -0.545900
     13 C16         0.5660   -2.5800    1.8940 c3        1 160      0.092000
     14 C15        -0.0270   -3.5610    0.8880 c3        1 160     -0.052300
     15 S14        -1.2030   -4.6730    1.5830 ss        1 160     -0.175100
     16 S13        -2.7690   -3.5000    2.3480 ss        1 160     -0.177100
     17 C12        -3.9030   -3.1340    1.0400 c3        1 160      0.032000
     18 C8         -3.3470   -2.4090   -0.1230 ca        1 160     -0.125300
     19 C9         -3.5430   -2.9050   -1.4170 ca        1 160     -0.064000
     20 C10        -3.0560   -2.2020   -2.5190 ca        1 160     -0.165000
     21 C11        -2.3730   -1.0040   -2.3340 ca        1 160     -0.018000
     22 C7         -2.6530   -1.2040    0.0490 ca        1 160      0.002000
     23 C6         -2.1540   -0.4960   -1.0470 ca        1 160     -0.352500
     24 S5         -1.2810    0.9580   -0.8630 sy        1 160      1.526200
     25 O27        -0.0080    0.6600   -0.2840 o         1 160     -0.696800
     26 O28        -1.1520    1.5250   -2.1550 o         1 160     -0.696800
     27 N4         -2.1800    1.8290    0.0970 n3        1 160     -0.941100
     28 C3         -1.8880    2.3680    1.4050 c3        1 160      0.181500
     29 C2         -0.9370    1.5340    2.2670 c         1 160      0.560100
     30 O26        -0.9120    0.2960    2.2550 o         1 160     -0.570100
     31 C1         -0.0640    2.3370    3.1750 c3        1 160     -0.202100
     32 C29        -3.1550    2.5860    2.2520 c3        1 160     -0.218400
     33 C30        -4.1580    3.5310    1.5580 c         1 160      0.914600
     34 O31        -4.4410    4.6090    2.1410 o         1 160     -0.825800
     35 O32        -4.6540    3.1570    0.4520 o         1 160     -0.825800
     36 H251        2.5090    3.1250   -2.2210 h1        1 160      0.115033
     37 H252        3.7490    3.9880   -3.1760 h1        1 160      0.115033
     38 H253        3.4950    2.2330   -3.4160 h1        1 160      0.115033
     39 H22         5.9420    0.1750   -1.8430 ha        1 160      0.175000
     40 H23         4.9460   -2.0520   -0.7720 ha        1 160      0.176000
     41 H17         0.9180   -0.7110    1.0410 hn        1 160      0.352500
     42 H161       -0.2740   -2.0600    2.4440 h1        1 160      0.077700
     43 H162        1.1880   -3.1600    2.6340 h1        1 160      0.077700
     44 H151        0.7790   -4.2390    0.4960 h1        1 160      0.091200
     45 H152       -0.4790   -3.0160    0.0230 h1        1 160      0.091200
     46 H121       -4.6580   -2.4860    1.5680 h1        1 160      0.087200
     47 H122       -4.4210   -4.0680    0.7080 h1        1 160      0.087200
     48 H9         -4.0860   -3.8510   -1.5670 ha        1 160      0.130000
     49 H10        -3.2190   -2.5920   -3.5340 ha        1 160      0.134000
     50 H11        -2.0020   -0.4380   -3.2080 ha        1 160      0.162000
     51 H7         -2.4910   -0.8190    1.0760 ha        1 160      0.178000
     52 H4         -3.1190    2.1190   -0.1800 hn        1 160      0.524800
     53 H3         -1.4000    3.3810    1.2510 h1        1 160      0.064700
     54 H11A        0.4480    1.6800    3.9190 hc        1 160      0.067367
     55 H12         0.7100    2.8670    2.5670 hc        1 160      0.067367
     56 H13        -0.6740    3.1020    3.7170 hc        1 160      0.067367
     57 H291       -3.6630    1.6080    2.4400 hc        1 160      0.046700
     58 H292       -2.8520    3.0330    3.2310 hc        1 160      0.046700
@<TRIPOS>BOND
     1    1    2 2   
     2    2    3 1   
     3    2   12 1   
     4    3    4 1   
     5    3   11 2   
     6    4    5 1   
     7    5    6 1   
     8    5   10 2   
     9    6    7 2   
    10    6    8 2   
    11    6    9 1   
    12    9   36 1   
    13    9   37 1   
    14    9   38 1   
    15   10   11 1   
    16   10   39 1   
    17   11   40 1   
    18   12   13 1   
    19   12   41 1   
    20   13   14 1   
    21   13   42 1   
    22   13   43 1   
    23   14   15 1   
    24   14   44 1   
    25   14   45 1   
    26   15   16 1   
    27   16   17 1   
    28   17   18 1   
    29   17   46 1   
    30   17   47 1   
    31   18   19 ar  
    32   18   22 ar  
    33   19   20 ar  
    34   19   48 1   
    35   20   21 ar  
    36   20   49 1   
    37   21   23 ar  
    38   21   50 1   
    39   22   23 ar  
    40   22   51 1   
    41   23   24 1   
    42   24   25 2   
    43   24   26 2   
    44   24   27 1   
    45   27   28 1   
    46   27   52 1   
    47   28   29 1   
    48   28   32 1   
    49   28   53 1   
    50   29   30 2   
    51   29   31 1   
    52   31   54 1   
    53   31   55 1   
    54   31   56 1   
    55   32   33 1   
    56   32   57 1   
    57   32   58 1   
    58   33   34 1   
    59   33   35 1   
@<TRIPOS>SUBSTRUCTURE
     1 160         1 TEMP              0 ****  ****    0 ROOT
