@<TRIPOS>MOLECULE
160
   60    61     1     0     0
SMALL
bcc


@<TRIPOS>ATOM
      1 O35         2.4000   -3.1150   -2.5570 o         1 160     -0.457100
      2 C18         2.8150   -1.9590   -2.6020 c         1 160      0.616700
      3 C19         3.7090   -1.3060   -1.6750 cc        1 160     -0.300700
      4 S20         4.3280   -2.0590   -0.3360 ss        1 160      0.487200
      5 C21         5.2140   -0.8000    0.1610 cc        1 160     -0.452600
      6 S24         6.2920   -0.6480    1.4630 sy        1 160      1.423300
      7 O33         7.2290    0.3350    1.1460 o         1 160     -0.638300
      8 O34         6.7420   -1.9270    1.7940 o         1 160     -0.638300
      9 C25         5.2400   -0.0850    2.6470 c3        1 160     -0.379300
     10 C22         5.0770    0.2950   -0.7190 cd        1 160     -0.071000
     11 C23         4.2110    0.0070   -1.7840 cd        1 160     -0.111000
     12 N17         2.3200   -1.1420   -3.7630 n4        1 160     -0.663800
     13 C16         1.0330   -0.4540   -3.4250 c3        1 160      0.124800
     14 C15         0.1700   -0.1630   -4.6390 c3        1 160     -0.084300
     15 S14        -1.2310    0.8220   -4.2420 ss        1 160     -0.091100
     16 S13        -0.5790    2.7700   -3.8050 ss        1 160     -0.156100
     17 C12        -0.5580    3.7610   -5.2730 c3        1 160      0.017000
     18 C8          0.4980    3.4340   -6.2580 ca        1 160     -0.096300
     19 C9          0.3890    3.8520   -7.5940 ca        1 160     -0.040000
     20 C10         1.3660    3.4860   -8.5180 ca        1 160     -0.136000
     21 C11         2.4260    2.6590   -8.1400 ca        1 160      0.001000
     22 C7          1.6060    2.6810   -5.8810 ca        1 160     -0.058000
     23 C6          2.5470    2.2220   -6.8190 ca        1 160     -0.387500
     24 S5          3.5670    1.0340   -6.2180 sy        1 160      1.539200
     25 O27         3.8040    1.2840   -4.8290 o         1 160     -0.695800
     26 O28         2.8700   -0.1960   -6.3530 o         1 160     -0.695800
     27 N4          4.9010    1.1080   -7.0950 n3        1 160     -0.908100
     28 C3          6.2290    1.0600   -6.5390 c3        1 160      0.145500
     29 C2          7.2160    1.9520   -7.3170 c         1 160      0.559100
     30 O26         7.1110    2.0960   -8.5360 o         1 160     -0.497100
     31 C1          8.2640    2.6020   -6.4850 c3        1 160     -0.202100
     32 C29         6.8360   -0.3580   -6.5120 c3        1 160     -0.204400
     33 C30         6.0760   -1.2790   -5.6100 c         1 160      0.662100
     34 O31         4.9720   -1.0610   -5.0920 o         1 160     -0.575000
     35 O32         6.5910   -2.4920   -5.2860 oh        1 160     -0.555100
     36 H251        4.5330    0.7070    2.2970 h1        1 160      0.128033
     37 H252        5.8060    0.3780    3.5000 h1        1 160      0.128033
     38 H253        4.6140   -0.8910    3.1050 h1        1 160      0.128033
     39 H22         5.6110    1.2470   -0.5930 ha        1 160      0.197000
     40 H23         4.0030    0.7220   -2.5920 ha        1 160      0.197000
     41 H17         2.1850   -1.7510   -4.5860 hn        1 160      0.490300
     42 H161        0.4600   -1.1150   -2.7110 hx        1 160      0.106700
     43 H162        1.2980    0.5090   -2.8970 hx        1 160      0.106700
     44 H151        0.7760    0.2800   -5.4710 h1        1 160      0.112700
     45 H152       -0.2870   -1.1120   -5.0350 h1        1 160      0.112700
     46 H121       -1.5610    3.7610   -5.7700 h1        1 160      0.111700
     47 H122       -0.3870    4.7910   -4.8460 h1        1 160      0.111700
     48 H9         -0.4700    4.4650   -7.9100 ha        1 160      0.158000
     49 H10         1.2900    3.8340   -9.5610 ha        1 160      0.162000
     50 H11         3.1540    2.3480   -8.9080 ha        1 160      0.143000
     51 H7          1.7380    2.4250   -4.8100 ha        1 160      0.163000
     52 H4          7.4410   -2.6320   -5.7300 ho        1 160      0.448000
     53 H3          6.1750    1.4370   -5.4700 h1        1 160      0.102700
     54 H11A        8.6900    1.8800   -5.7460 hc        1 160      0.081367
     55 H12         9.0890    2.9950   -7.1310 hc        1 160      0.081367
     56 H13         7.8110    3.4600   -5.9260 hc        1 160      0.081367
     57 H291        7.8980   -0.2820   -6.1520 hc        1 160      0.103200
     58 H292        6.8500   -0.7970   -7.5470 hc        1 160      0.103200
     59 H172        3.0430   -0.4480   -4.0300 hn        1 160      0.490300
     60 H42         4.9030    1.1710   -8.0900 hn        1 160      0.475800
@<TRIPOS>BOND
     1    1    2 2   
     2    2    3 1   
     3    2   12 1   
     4    3    4 1   
     5    3   11 2   
     6    4    5 1   
     7    5    6 1   
     8    5   10 2   
     9    6    7 2   
    10    6    8 2   
    11    6    9 1   
    12    9   36 1   
    13    9   37 1   
    14    9   38 1   
    15   10   11 1   
    16   10   39 1   
    17   11   40 1   
    18   12   13 1   
    19   12   41 1   
    20   12   59 1   
    21   13   14 1   
    22   13   42 1   
    23   13   43 1   
    24   14   15 1   
    25   14   44 1   
    26   14   45 1   
    27   15   16 1   
    28   16   17 1   
    29   17   18 1   
    30   17   46 1   
    31   17   47 1   
    32   18   19 ar  
    33   18   22 ar  
    34   19   20 ar  
    35   19   48 1   
    36   20   21 ar  
    37   20   49 1   
    38   21   23 ar  
    39   21   50 1   
    40   22   23 ar  
    41   22   51 1   
    42   23   24 1   
    43   24   25 2   
    44   24   26 2   
    45   24   27 1   
    46   27   28 1   
    47   27   60 1   
    48   28   29 1   
    49   28   32 1   
    50   28   53 1   
    51   29   30 2   
    52   29   31 1   
    53   31   54 1   
    54   31   55 1   
    55   31   56 1   
    56   32   33 1   
    57   32   57 1   
    58   32   58 1   
    59   33   34 2   
    60   33   35 1   
    61   35   52 1   
@<TRIPOS>SUBSTRUCTURE
     1 160         1 TEMP              0 ****  ****    0 ROOT
