@<TRIPOS>MOLECULE
160
   60    61     1     0     0
SMALL
bcc


@<TRIPOS>ATOM
      1 O35         3.2260   -3.3730   -2.3440 o         1 160     -0.459100
      2 C18         3.4580   -2.1680   -2.4290 c         1 160      0.609700
      3 C19         4.0900   -1.3270   -1.4420 cc        1 160     -0.310700
      4 S20         4.6050   -1.8950    0.0270 ss        1 160      0.486200
      5 C21         5.1920   -0.4830    0.5490 cc        1 160     -0.445600
      6 S24         6.0170   -0.0880    1.9840 sy        1 160      1.422300
      7 O33         6.8110    1.0300    1.7440 o         1 160     -0.634800
      8 O34         6.6130   -1.2570    2.4580 o         1 160     -0.634800
      9 C25         4.7110    0.3250    2.9590 c3        1 160     -0.381300
     10 C22         5.0210    0.5300   -0.4200 cd        1 160     -0.067000
     11 C23         4.3840    0.0470   -1.5730 cd        1 160     -0.116000
     12 N17         3.0300   -1.5260   -3.7180 n4        1 160     -0.666800
     13 C16         1.5740   -1.1880   -3.6880 c3        1 160      0.126800
     14 C15         1.0390   -0.7920   -5.0510 c3        1 160     -0.076300
     15 S14        -0.6430   -0.3010   -4.9510 ss        1 160     -0.092100
     16 S13        -0.6950    1.4780   -3.8320 ss        1 160     -0.157100
     17 C12        -0.7460    2.8630   -4.9260 c3        1 160      0.014000
     18 C8          0.5230    3.2800   -5.5660 ca        1 160     -0.100300
     19 C9          0.5050    4.3230   -6.5080 ca        1 160     -0.036000
     20 C10         1.6860    4.7310   -7.1230 ca        1 160     -0.137000
     21 C11         2.8890    4.0900   -6.8300 ca        1 160     -0.002000
     22 C7          1.7370    2.6700   -5.2630 ca        1 160     -0.031000
     23 C6          2.9280    3.0380   -5.9060 ca        1 160     -0.404500
     24 S5          4.3310    2.2150   -5.5420 sy        1 160      1.556200
     25 O27         5.3540    3.0430   -5.0750 o         1 160     -0.691300
     26 O28         4.0200    1.1490   -4.6400 o         1 160     -0.691300
     27 N4          4.7130    1.5830   -6.9870 n3        1 160     -0.919100
     28 C3          5.9240    0.8590   -7.2530 c3        1 160      0.149500
     29 C2          6.6890    1.4270   -8.4690 c         1 160      0.558100
     30 O26         6.0820    1.7680   -9.4830 o         1 160     -0.492100
     31 C1          8.1640    1.5160   -8.2980 c3        1 160     -0.202100
     32 C29         5.6920   -0.6390   -7.5530 c3        1 160     -0.193400
     33 C30         4.8620   -1.2820   -6.4920 c         1 160      0.659100
     34 O31         3.6340   -1.4170   -6.4680 o         1 160     -0.537000
     35 O32         5.4440   -1.7770   -5.3560 oh        1 160     -0.623100
     36 H251        3.9460    0.9680    2.4580 h1        1 160      0.128367
     37 H252        4.1640   -0.5600    3.3700 h1        1 160      0.128367
     38 H253        5.0500    0.9110    3.8560 h1        1 160      0.128367
     39 H22         5.3740    1.5620   -0.2920 ha        1 160      0.202000
     40 H23         4.1740    0.6780   -2.4460 ha        1 160      0.194000
     41 H17         3.2080   -2.1800   -4.5010 hn        1 160      0.490300
     42 H161        1.0180   -2.0920   -3.3030 hx        1 160      0.108200
     43 H162        1.4390   -0.3340   -2.9600 hx        1 160      0.108200
     44 H151        1.0280   -1.6730   -5.7520 h1        1 160      0.112700
     45 H152        1.6920   -0.0150   -5.5240 h1        1 160      0.112700
     46 H121       -1.5320    2.7160   -5.7110 h1        1 160      0.112200
     47 H122       -1.1080    3.6800   -4.2360 h1        1 160      0.112200
     48 H9         -0.4480    4.8200   -6.7550 ha        1 160      0.158000
     49 H10         1.6700    5.5610   -7.8480 ha        1 160      0.165000
     50 H11         3.8160    4.4210   -7.3290 ha        1 160      0.156000
     51 H7          1.7660    1.8810   -4.4860 ha        1 160      0.154000
     52 H4          4.1510    1.7020   -7.8000 hn        1 160      0.472800
     53 H3          6.5930    0.9460   -6.3430 h1        1 160      0.077700
     54 H11A        8.4050    2.3320   -7.5700 hc        1 160      0.081700
     55 H12         8.6590    1.7520   -9.2740 hc        1 160      0.081700
     56 H13         8.5720    0.5530   -7.9060 hc        1 160      0.081700
     57 H291        5.1580   -0.7460   -8.5380 hc        1 160      0.106700
     58 H292        6.6880   -1.1480   -7.6370 hc        1 160      0.106700
     59 H172        3.5880   -0.6760   -3.9120 hn        1 160      0.490300
     60 H42         6.4080   -1.7150   -5.4030 ho        1 160      0.456000
@<TRIPOS>BOND
     1    1    2 2   
     2    2    3 1   
     3    2   12 1   
     4    3    4 1   
     5    3   11 2   
     6    4    5 1   
     7    5    6 1   
     8    5   10 2   
     9    6    7 2   
    10    6    8 2   
    11    6    9 1   
    12    9   36 1   
    13    9   37 1   
    14    9   38 1   
    15   10   11 1   
    16   10   39 1   
    17   11   40 1   
    18   12   13 1   
    19   12   41 1   
    20   12   59 1   
    21   13   14 1   
    22   13   42 1   
    23   13   43 1   
    24   14   15 1   
    25   14   44 1   
    26   14   45 1   
    27   15   16 1   
    28   16   17 1   
    29   17   18 1   
    30   17   46 1   
    31   17   47 1   
    32   18   19 ar  
    33   18   22 ar  
    34   19   20 ar  
    35   19   48 1   
    36   20   21 ar  
    37   20   49 1   
    38   21   23 ar  
    39   21   50 1   
    40   22   23 ar  
    41   22   51 1   
    42   23   24 1   
    43   24   25 2   
    44   24   26 2   
    45   24   27 1   
    46   27   28 1   
    47   27   52 1   
    48   28   29 1   
    49   28   32 1   
    50   28   53 1   
    51   29   30 2   
    52   29   31 1   
    53   31   54 1   
    54   31   55 1   
    55   31   56 1   
    56   32   33 1   
    57   32   57 1   
    58   32   58 1   
    59   33   34 2   
    60   33   35 1   
    61   35   60 1   
@<TRIPOS>SUBSTRUCTURE
     1 160         1 TEMP              0 ****  ****    0 ROOT
