@<TRIPOS>MOLECULE
161
   52    52     1     0     0
SMALL
bcc


@<TRIPOS>ATOM
      1 C1          0.1920   -0.7080    0.3740 c3        1 161     -0.211100
      2 C2          1.6080   -0.4980   -0.0360 c         1 161      0.568100
      3 O24         1.9620   -0.3250   -1.2050 o         1 161     -0.528100
      4 C3          2.6130   -0.5100    1.1250 c3        1 161      0.010700
      5 C25         2.4940    0.8350    1.8770 c3        1 161     -0.197400
      6 C26         1.6670    0.6660    3.1190 c         1 161      0.627100
      7 O28         0.5320    1.1130    3.2990 o         1 161     -0.504000
      8 O27         2.1670   -0.0390    4.1680 oh        1 161     -0.579100
      9 N4          3.9540   -0.8110    0.6870 ns        1 161     -0.566900
     10 C5          4.9590   -1.0850    1.5920 c         1 161      0.682700
     11 O29         4.7150   -1.0930    2.8190 o         1 161     -0.629100
     12 C6          6.3110   -1.3990    1.0540 ca        1 161     -0.132600
     13 C7          7.0720   -2.3730    1.7110 ca        1 161     -0.090500
     14 C8          8.3440   -2.7010    1.2410 ca        1 161     -0.120500
     15 C11         6.8340   -0.7320   -0.0590 ca        1 161     -0.090500
     16 C10         8.1090   -1.0510   -0.5200 ca        1 161     -0.120500
     17 C9          8.8610   -2.0410    0.1210 ca        1 161     -0.111300
     18 C12        10.2430   -2.3850   -0.3440 c3        1 161      0.133100
     19 N13        10.3390   -2.7960   -1.7460 n8        1 161     -0.994800
     20 S14        12.4610   -3.2480   -2.4340 s4        1 161      1.688300
     21 O30        13.0450   -2.2140   -1.7640 o         1 161     -0.471900
     22 O31        12.2070   -3.1310   -3.7740 o         1 161     -0.471900
     23 C15        12.4460   -4.6560   -1.8210 ca        1 161     -0.691500
     24 C16        12.3840   -4.7760   -0.3970 ca        1 161      0.034000
     25 C20        12.3410   -5.8650   -2.5610 ca        1 161      0.060000
     26 C19        12.1110   -7.0680   -1.9410 ca        1 161     -0.272000
     27 C18        11.9010   -7.1170   -0.5320 ca        1 161      0.295100
     28 O23        11.5710   -8.2610    0.0980 oh        1 161     -0.399100
     29 C17        12.0080   -5.9340    0.2400 ca        1 161     -0.192600
     30 C21        11.5510   -5.7890    1.7110 c         1 161      0.939200
     31 O32        11.9010   -6.6400    2.5460 o         1 161     -0.781300
     32 O22        10.8370   -4.7590    1.8910 o         1 161     -0.781300
     33 H11A       -0.0670   -0.0370    1.2340 hc        1 161      0.081700
     34 H12        -0.5000   -0.4950   -0.4780 hc        1 161      0.081700
     35 H13A        0.0500   -1.7700    0.6960 hc        1 161      0.081700
     36 H3          2.3040   -1.3390    1.8380 h1        1 161      0.087700
     37 H251        3.5080    1.2130    2.1810 hc        1 161      0.092200
     38 H252        2.0210    1.6110    1.2220 hc        1 161      0.092200
     39 H4          3.0590   -0.3690    3.9620 ho        1 161      0.461000
     40 H7          6.6640   -2.8720    2.6060 ha        1 161      0.152500
     41 H8          8.9490   -3.4750    1.7590 ha        1 161      0.168500
     42 H11         6.2620    0.0600   -0.5650 ha        1 161      0.152500
     43 H10         8.5250   -0.5050   -1.3800 ha        1 161      0.168500
     44 H121       10.6280   -3.2330    0.3160 h1        1 161      0.119700
     45 H122       10.9170   -1.4900   -0.2040 h1        1 161      0.119700
     46 H13         9.8010   -3.6380   -1.8860 hn        1 161      0.394800
     47 H16        12.5770   -3.8790    0.2280 ha        1 161      0.180000
     48 H20        12.4340   -5.8200   -3.6610 ha        1 161      0.149000
     49 H19        12.0620   -7.9980   -2.5290 ha        1 161      0.154000
     50 H23        11.5620   -8.9930   -0.5450 ho        1 161      0.431000
     51 H42         4.1490   -0.7330   -0.2850 hn        1 161      0.335500
     52 H132        9.9550   -2.0810   -2.3440 hn        1 161      0.394800
@<TRIPOS>BOND
     1    1    2 1   
     2    1   33 1   
     3    1   34 1   
     4    1   35 1   
     5    2    3 2   
     6    2    4 1   
     7    4    5 1   
     8    4    9 1   
     9    4   36 1   
    10    5    6 1   
    11    5   37 1   
    12    5   38 1   
    13    6    7 2   
    14    6    8 1   
    15    8   39 1   
    16    9   10 1   
    17    9   51 1   
    18   10   11 2   
    19   10   12 1   
    20   12   13 ar  
    21   12   15 ar  
    22   13   14 ar  
    23   13   40 1   
    24   14   17 ar  
    25   14   41 1   
    26   15   16 ar  
    27   15   42 1   
    28   16   17 ar  
    29   16   43 1   
    30   17   18 1   
    31   18   19 1   
    32   18   44 1   
    33   18   45 1   
    34   19   46 1   
    35   19   52 1   
    36   20   21 1   
    37   20   22 1   
    38   20   23 1   
    39   23   24 ar  
    40   23   25 ar  
    41   24   29 ar  
    42   24   47 1   
    43   25   26 ar  
    44   25   48 1   
    45   26   27 ar  
    46   26   49 1   
    47   27   28 1   
    48   27   29 ar  
    49   28   50 1   
    50   29   30 1   
    51   30   31 1   
    52   30   32 1   
@<TRIPOS>SUBSTRUCTURE
     1 161         1 TEMP              0 ****  ****    0 ROOT
