@<TRIPOS>MOLECULE
161
   52    52     1     0     0
SMALL
bcc


@<TRIPOS>ATOM
      1 C1          0.1980   -0.6810    0.3180 c3        1 161     -0.211100
      2 C2          1.6190   -0.4760   -0.0780 c         1 161      0.568100
      3 O24         1.9840   -0.2980   -1.2430 o         1 161     -0.528100
      4 C3          2.6140   -0.4960    1.0910 c3        1 161      0.010700
      5 C25         2.4930    0.8460    1.8490 c3        1 161     -0.197400
      6 C26         1.6540    0.6740    3.0830 c         1 161      0.627100
      7 O28         0.5190    1.1240    3.2550 o         1 161     -0.504000
      8 O27         2.1420   -0.0370    4.1330 oh        1 161     -0.579100
      9 N4          3.9570   -0.8000    0.6640 n         1 161     -0.566900
     10 C5          4.9530   -1.0810    1.5770 c         1 161      0.682700
     11 O29         4.6980   -1.0950    2.8020 o         1 161     -0.629100
     12 C6          6.3090   -1.3980    1.0500 ca        1 161     -0.132600
     13 C7          7.0600   -2.3770    1.7090 ca        1 161     -0.090500
     14 C8          8.3350   -2.7080    1.2490 ca        1 161     -0.120500
     15 C11         6.8440   -0.7280   -0.0560 ca        1 161     -0.090500
     16 C10         8.1220   -1.0490   -0.5070 ca        1 161     -0.120500
     17 C9          8.8650   -2.0450    0.1360 ca        1 161     -0.111300
     18 C12        10.2490   -2.3920   -0.3180 c3        1 161      0.133100
     19 N13        10.3560   -2.7980   -1.7200 n3        1 161     -0.994800
     20 S14        12.4830   -3.2550   -2.3920 s4        1 161      1.688300
     21 O30        13.0650   -2.2250   -1.7120 o         1 161     -0.471900
     22 O31        12.2410   -3.1310   -3.7340 o         1 161     -0.471900
     23 C15        12.4580   -4.6640   -1.7840 ca        1 161     -0.691500
     24 C16        12.3830   -4.7900   -0.3620 ca        1 161      0.034000
     25 C20        12.3550   -5.8710   -2.5300 ca        1 161      0.060000
     26 C19        12.1150   -7.0750   -1.9170 ca        1 161     -0.272000
     27 C18        11.8930   -7.1290   -0.5110 ca        1 161      0.295100
     28 O23        11.5530   -8.2750    0.1120 oh        1 161     -0.399100
     29 C17        11.9970   -5.9490    0.2670 ca        1 161     -0.192600
     30 C21        11.5280   -5.8080    1.7340 c         1 161      0.939200
     31 O32        11.8670   -6.6640    2.5700 o         1 161     -0.781300
     32 O22        10.8160   -4.7770    1.9130 o         1 161     -0.781300
     33 H11A       -0.0650   -0.0140    1.1790 hc        1 161      0.081700
     34 H12         0.0500   -1.7440    0.6340 hc        1 161      0.081700
     35 H13A       -0.4850   -0.4630   -0.5390 hc        1 161      0.081700
     36 H3          2.2950   -1.3270    1.7980 h1        1 161      0.087700
     37 H251        3.5050    1.2180    2.1630 hc        1 161      0.092200
     38 H252        2.0280    1.6270    1.1930 hc        1 161      0.092200
     39 H4          3.0350   -0.3700    3.9330 ho        1 161      0.461000
     40 H7          6.6430   -2.8790    2.5980 ha        1 161      0.152500
     41 H8          8.9330   -3.4870    1.7690 ha        1 161      0.168500
     42 H11         6.2790    0.0680   -0.5640 ha        1 161      0.152500
     43 H10         8.5470   -0.5010   -1.3610 ha        1 161      0.168500
     44 H121       10.6260   -3.2440    0.3420 h1        1 161      0.119700
     45 H122       10.9250   -1.5000   -0.1680 h1        1 161      0.119700
     46 H13         9.9800   -2.0790   -2.3190 hn        1 161      0.394800
     47 H16        12.5730   -3.8970    0.2690 ha        1 161      0.180000
     48 H20        12.4580   -5.8210   -3.6290 ha        1 161      0.149000
     49 H19        12.0680   -8.0020   -2.5090 ha        1 161      0.154000
     50 H23        11.5470   -9.0030   -0.5340 ho        1 161      0.431000
     51 H42         4.1610   -0.7190   -0.3050 hn        1 161      0.335500
     52 H132        9.8170   -3.6370   -1.8690 hn        1 161      0.394800
@<TRIPOS>BOND
     1    1    2 1   
     2    1   33 1   
     3    1   34 1   
     4    1   35 1   
     5    2    3 2   
     6    2    4 1   
     7    4    5 1   
     8    4    9 1   
     9    4   36 1   
    10    5    6 1   
    11    5   37 1   
    12    5   38 1   
    13    6    7 2   
    14    6    8 1   
    15    8   39 1   
    16    9   10 1   
    17    9   51 1   
    18   10   11 2   
    19   10   12 1   
    20   12   13 ar  
    21   12   15 ar  
    22   13   14 ar  
    23   13   40 1   
    24   14   17 ar  
    25   14   41 1   
    26   15   16 ar  
    27   15   42 1   
    28   16   17 ar  
    29   16   43 1   
    30   17   18 1   
    31   18   19 1   
    32   18   44 1   
    33   18   45 1   
    34   19   46 1   
    35   19   52 1   
    36   20   21 1   
    37   20   22 1   
    38   20   23 1   
    39   23   24 ar  
    40   23   25 ar  
    41   24   29 ar  
    42   24   47 1   
    43   25   26 ar  
    44   25   48 1   
    45   26   27 ar  
    46   26   49 1   
    47   27   28 1   
    48   27   29 ar  
    49   28   50 1   
    50   29   30 1   
    51   30   31 1   
    52   30   32 1   
@<TRIPOS>SUBSTRUCTURE
     1 161         1 TEMP              0 ****  ****    0 ROOT
