@<TRIPOS>MOLECULE
161
   52    52     1     0     0
SMALL
bcc


@<TRIPOS>ATOM
      1 C1          0.1940   -0.7110    0.4210 c3        1 161     -0.211100
      2 C2          1.6050   -0.5090   -0.0100 c         1 161      0.568100
      3 O24         1.9460   -0.3610   -1.1860 o         1 161     -0.528100
      4 C3          2.6230   -0.4950    1.1390 c3        1 161      0.010700
      5 C25         2.5120    0.8660    1.8640 c3        1 161     -0.197400
      6 C26         1.6990    0.7240    3.1180 c         1 161      0.627100
      7 O28         0.5660    1.1730    3.3010 o         1 161     -0.504000
      8 O27         2.2120    0.0430    4.1760 oh        1 161     -0.579100
      9 N4          3.9590   -0.8030    0.6920 n         1 161     -0.566900
     10 C5          4.9750   -1.0560    1.5920 c         1 161      0.682700
     11 O29         4.7450   -1.0390    2.8210 o         1 161     -0.629100
     12 C6          6.3210   -1.3810    1.0460 ca        1 161     -0.132600
     13 C7          7.0910   -2.3410    1.7140 ca        1 161     -0.090500
     14 C8          8.3570   -2.6780    1.2360 ca        1 161     -0.120500
     15 C11         6.8310   -0.7370   -0.0870 ca        1 161     -0.090500
     16 C10         8.1010   -1.0650   -0.5560 ca        1 161     -0.120500
     17 C9          8.8610   -2.0420    0.0970 ca        1 161     -0.111300
     18 C12        10.2380   -2.3940   -0.3770 c3        1 161      0.133100
     19 N13        10.3180   -2.8350   -1.7710 n3        1 161     -0.994800
     20 S14        12.4320   -3.3020   -2.4740 s4        1 161      1.688300
     21 O30        13.0240   -2.2540   -1.8320 o         1 161     -0.471900
     22 O31        12.1630   -3.2130   -3.8130 o         1 161     -0.471900
     23 C15        12.4250   -4.6960   -1.8310 ca        1 161     -0.691500
     24 C16        12.3790   -4.7860   -0.4040 ca        1 161      0.034000
     25 C20        12.3110   -5.9210   -2.5430 ca        1 161      0.060000
     26 C19        12.0890   -7.1100   -1.8960 ca        1 161     -0.272000
     27 C18        11.8950   -7.1290   -0.4840 ca        1 161      0.295100
     28 O23        11.5720   -8.2600    0.1740 oh        1 161     -0.399100
     29 C17        12.0110   -5.9300    0.2610 ca        1 161     -0.192600
     30 C21        11.5710   -5.7540    1.7340 c         1 161      0.939200
     31 O32        11.9310   -6.5870    2.5830 o         1 161     -0.781300
     32 O22        10.8590   -4.7210    1.9010 o         1 161     -0.781300
     33 H11A        0.0580   -1.7660    0.7670 hc        1 161      0.081700
     34 H12        -0.0550   -0.0220    1.2690 hc        1 161      0.081700
     35 H13A       -0.5080   -0.5180   -0.4270 hc        1 161      0.081700
     36 H3          2.3240   -1.3080    1.8740 h1        1 161      0.087700
     37 H251        2.0290    1.6270    1.1970 hc        1 161      0.092200
     38 H252        3.5280    1.2520    2.1470 hc        1 161      0.092200
     39 H4          3.1020   -0.2920    3.9670 ho        1 161      0.461000
     40 H7          6.6940   -2.8210    2.6240 ha        1 161      0.152500
     41 H8          8.9690   -3.4410    1.7640 ha        1 161      0.168500
     42 H11         6.2520    0.0430   -0.6040 ha        1 161      0.152500
     43 H10         8.5060   -0.5380   -1.4320 ha        1 161      0.168500
     44 H121       10.6320   -3.2280    0.2970 h1        1 161      0.119700
     45 H122       10.9120   -1.4960   -0.2640 h1        1 161      0.119700
     46 H13         9.9270   -2.1330   -2.3800 hn        1 161      0.394800
     47 H16        12.5790   -3.8760    0.2000 ha        1 161      0.180000
     48 H20        12.3920   -5.8990   -3.6450 ha        1 161      0.149000
     49 H19        12.0330   -8.0520   -2.4630 ha        1 161      0.154000
     50 H23        11.5560   -9.0050   -0.4530 ho        1 161      0.431000
     51 H42         4.1430   -0.7470   -0.2830 hn        1 161      0.335500
     52 H132        9.7790   -3.6800   -1.8870 hn        1 161      0.394800
@<TRIPOS>BOND
     1    1    2 1   
     2    1   33 1   
     3    1   34 1   
     4    1   35 1   
     5    2    3 2   
     6    2    4 1   
     7    4    5 1   
     8    4    9 1   
     9    4   36 1   
    10    5    6 1   
    11    5   37 1   
    12    5   38 1   
    13    6    7 2   
    14    6    8 1   
    15    8   39 1   
    16    9   10 1   
    17    9   51 1   
    18   10   11 2   
    19   10   12 1   
    20   12   13 ar  
    21   12   15 ar  
    22   13   14 ar  
    23   13   40 1   
    24   14   17 ar  
    25   14   41 1   
    26   15   16 ar  
    27   15   42 1   
    28   16   17 ar  
    29   16   43 1   
    30   17   18 1   
    31   18   19 1   
    32   18   44 1   
    33   18   45 1   
    34   19   46 1   
    35   19   52 1   
    36   20   21 1   
    37   20   22 1   
    38   20   23 1   
    39   23   24 ar  
    40   23   25 ar  
    41   24   29 ar  
    42   24   47 1   
    43   25   26 ar  
    44   25   48 1   
    45   26   27 ar  
    46   26   49 1   
    47   27   28 1   
    48   27   29 ar  
    49   28   50 1   
    50   29   30 1   
    51   30   31 1   
    52   30   32 1   
@<TRIPOS>SUBSTRUCTURE
     1 161         1 TEMP              0 ****  ****    0 ROOT
