@<TRIPOS>MOLECULE
161
   50    51     1     0     0
SMALL
bcc


@<TRIPOS>ATOM
      1 C1          7.2050    1.8740    2.3290 c3        1 161     -0.209100
      2 C2          6.9220    1.7940    0.8630 c         1 161      0.570100
      3 O24         6.9260    2.7920    0.1370 o         1 161     -0.554100
      4 C3          6.6460    0.3760    0.3420 c3        1 161      0.031700
      5 C25         7.6980    0.0580   -0.7260 c3        1 161     -0.211400
      6 C26         7.5240   -1.3450   -1.3330 c         1 161      0.910600
      7 O28         8.4610   -2.1750   -1.1770 o         1 161     -0.841800
      8 O27         6.4610   -1.5870   -1.9800 o         1 161     -0.841800
      9 N4          5.2890    0.2330   -0.1440 n         1 161     -0.521900
     10 C5          4.2300    0.1980    0.7310 c         1 161      0.660700
     11 O29         4.3750    0.4800    1.9480 o         1 161     -0.669100
     12 C6          2.8690   -0.1240    0.2020 ca        1 161     -0.125600
     13 C7          1.8880   -0.4990    1.1310 ca        1 161     -0.085500
     14 C8          0.5960   -0.7970    0.7100 ca        1 161     -0.137000
     15 C11         2.5350   -0.0470   -1.1530 ca        1 161     -0.085500
     16 C10         1.2360   -0.3400   -1.5720 ca        1 161     -0.137000
     17 C9          0.2610   -0.7210   -0.6470 ca        1 161     -0.084300
     18 C12        -1.1240   -1.0870   -1.1040 c3        1 161      0.278100
     19 N13        -2.1680   -0.2610   -0.5740 n3        1 161     -0.915100
     20 S14        -3.3250    0.4250   -1.4900 sy        1 161      1.538200
     21 O30        -3.6880   -0.4600   -2.5320 o         1 161     -0.683800
     22 O31        -2.8990    1.6920   -1.9590 o         1 161     -0.683800
     23 C15        -4.5420    0.6320   -0.3850 ca        1 161     -0.491500
     24 C16        -5.4150   -0.4100   -0.0290 ca        1 161      0.060000
     25 C20        -4.7450    1.8920    0.2080 ca        1 161      0.003000
     26 C19        -5.7640    2.1090    1.1120 ca        1 161     -0.238000
     27 C18        -6.6300    1.0420    1.4590 ca        1 161      0.249100
     28 O23        -7.6010    1.3500    2.3560 oh        1 161     -0.542100
     29 C17        -6.4510   -0.2330    0.8830 ca        1 161     -0.257600
     30 C21        -7.3440   -1.4090    1.2280 c         1 161      0.921200
     31 O32        -7.0840   -2.5310    0.7220 o         1 161     -0.827300
     32 O22        -8.3190   -1.2080    2.0210 o         1 161     -0.827300
     33 H11A        6.2950    1.5200    2.8800 hc        1 161      0.061033
     34 H12         8.0640    1.2080    2.5870 hc        1 161      0.061033
     35 H13A        7.4440    2.9190    2.6390 hc        1 161      0.061033
     36 H3          6.7910   -0.3370    1.2120 h1        1 161      0.056700
     37 H251        7.6370    0.8110   -1.5520 hc        1 161      0.045700
     38 H252        8.7060    0.1330   -0.2480 hc        1 161      0.045700
     39 H4          5.2180   -0.2440   -1.0300 hn        1 161      0.368500
     40 H7          2.1550   -0.5460    2.1990 ha        1 161      0.151500
     41 H8         -0.1650   -1.0980    1.4460 ha        1 161      0.131000
     42 H11         3.2820    0.2480   -1.9080 ha        1 161      0.151500
     43 H10         0.9820   -0.2690   -2.6400 ha        1 161      0.131000
     44 H121       -1.1760   -1.0440   -2.2330 h1        1 161      0.052200
     45 H122       -1.3060   -2.1620   -0.8010 h1        1 161      0.052200
     46 H13        -2.1230   -0.1410    0.4080 hn        1 161      0.442800
     47 H16        -5.2990   -1.4130   -0.4840 ha        1 161      0.172000
     48 H20        -4.0750    2.7240   -0.0730 ha        1 161      0.140000
     49 H19        -5.9220    3.0940    1.5700 ha        1 161      0.133000
     50 H23        -8.1560    0.5520    2.5280 ho        1 161      0.493000
@<TRIPOS>BOND
     1    1    2 1   
     2    1   33 1   
     3    1   34 1   
     4    1   35 1   
     5    2    3 2   
     6    2    4 1   
     7    4    5 1   
     8    4    9 1   
     9    4   36 1   
    10    5    6 1   
    11    5   37 1   
    12    5   38 1   
    13    6    7 1   
    14    6    8 1   
    15    9   10 1   
    16    9   39 1   
    17   10   11 2   
    18   10   12 1   
    19   12   13 ar  
    20   12   15 ar  
    21   13   14 ar  
    22   13   40 1   
    23   14   17 ar  
    24   14   41 1   
    25   15   16 ar  
    26   15   42 1   
    27   16   17 ar  
    28   16   43 1   
    29   17   18 1   
    30   18   19 1   
    31   18   44 1   
    32   18   45 1   
    33   19   20 1   
    34   19   46 1   
    35   20   21 2   
    36   20   22 2   
    37   20   23 1   
    38   23   24 ar  
    39   23   25 ar  
    40   24   29 ar  
    41   24   47 1   
    42   25   26 ar  
    43   25   48 1   
    44   26   27 ar  
    45   26   49 1   
    46   27   28 1   
    47   27   29 ar  
    48   28   50 1   
    49   29   30 1   
    50   30   31 1   
    51   30   32 1   
@<TRIPOS>SUBSTRUCTURE
     1 161         1 TEMP              0 ****  ****    0 ROOT
