@<TRIPOS>MOLECULE
161
   50    46     1     0     0
SMALL
bcc


@<TRIPOS>ATOM
      1 C1         -1.2740    5.2330   -3.8530 c3        1 161     -0.283000
      2 C2          0.1450    4.7210   -4.1160 c2        1 161      0.251000
      3 O24         1.1050    5.4910   -4.0110 o         1 161     -0.344000
      4 C3          0.3920    3.2070   -4.3480 c3        1 161     -0.024000
      5 C25         0.0170    2.8520   -5.7410 c3        1 161     -0.250000
      6 C26        -1.4190    3.3230   -6.0210 c2        1 161      0.323000
      7 O28        -1.6220    4.4570   -6.5720 o         1 161     -0.582000
      8 O27        -2.3920    2.5500   -5.7930 o         1 161     -0.582000
      9 N4         -0.3970    2.4500   -3.4390 n         1 161     -0.331000
     10 C5         -0.1070    2.4740   -2.0730 c2        1 161      0.335000
     11 O29         0.5590    3.3140   -1.6360 o         1 161     -0.393000
     12 C6         -0.6510    1.3480   -1.1440 c2        1 161     -0.123000
     13 C7          0.1190    0.8950   -0.0760 c2        1 161     -0.087000
     14 C8         -0.4240   -0.0090    0.8350 c1        1 161     -0.141000
     15 C11        -1.9370    0.9050   -1.2970 c1        1 161     -0.095000
     16 C10        -2.4710    0.0140   -0.3990 c1        1 161     -0.143000
     17 C9         -1.7040   -0.4450    0.6760 c1        1 161     -0.079000
     18 C12        -2.3100   -1.4640    1.6770 c3        1 161      0.027000
     19 N13        -1.3920   -2.5390    1.8760 n3        1 161     -0.892000
     20 S14        -1.1630   -3.1760    3.4160 s4        1 161      2.088800
     21 O30        -1.9400   -2.4700    4.3950 o         1 161     -0.568400
     22 O31        -1.7090   -4.4720    3.5170 o         1 161     -0.568400
     23 C15         0.5390   -3.1760    3.8310 c1        1 161     -0.909000
     24 C16         1.1790   -4.3850    4.1560 c2        1 161      0.024000
     25 C20         1.2610   -1.9970    3.8050 c1        1 161     -0.001000
     26 C19         2.6220   -2.0080    4.1010 c1        1 161     -0.266000
     27 C18         3.2630   -3.2210    4.4260 c1        1 161      0.155000
     28 O23         4.5960   -3.2270    4.7430 o         1 161     -0.214000
     29 C17         2.5420   -4.3970    4.4520 c2        1 161     -0.132000
     30 C21         3.2290   -5.7130    4.8590 c2        1 161      0.377000
     31 O32         3.7100   -6.4720    3.9720 o         1 161     -0.550000
     32 O22         3.3820   -5.9990    6.0990 o         1 161     -0.550000
     33 H11A       -1.4300    6.0710   -4.3800 hc        1 161      0.112667
     34 H12        -1.3820    5.4260   -2.8840 hc        1 161      0.112667
     35 H13A       -1.9430    4.5300   -4.1340 hc        1 161      0.112667
     36 H3          1.3700    2.9980   -4.1990 h1        1 161      0.123000
     37 H251        0.6130    3.2770   -6.3490 hc        1 161      0.086000
     38 H252        0.0710    1.8860   -5.8560 hc        1 161      0.086000
     39 H4         -1.0630    1.8880   -3.7600 hn        1 161      0.253000
     40 H7          1.0870    1.1380   -0.0200 ha        1 161      0.143000
     41 H8          0.1180   -0.3330    1.5930 ha        1 161      0.133000
     42 H11        -2.5110    1.2850   -2.0180 ha        1 161      0.198000
     43 H10        -3.3950   -0.3010   -0.5130 ha        1 161      0.132000
     44 H121       -2.4800   -1.0350    2.5070 h1        1 161      0.093000
     45 H122       -3.1410   -1.8100    1.3160 h1        1 161      0.093000
     46 H13        -1.0200   -2.9350    1.1760 hn        1 161      0.243000
     47 H16         0.6730   -5.2050    4.1850 ha        1 161      0.165000
     48 H20         0.8100   -1.1430    3.5760 ha        1 161      0.127000
     49 H19         3.1160   -1.2010    4.0820 ha        1 161      0.119000
     50 H23         4.7590   -2.5970    5.3600 ho        1 161      0.195000
@<TRIPOS>BOND
     1    1    2 1   
     2    1   33 1   
     3    1   34 1   
     4    1   35 1   
     5    2    3 1   
     6    2    4 1   
     7    4    5 1   
     8    4    9 1   
     9    4   36 1   
    10    5    6 1   
    11    5   37 1   
    12    5   38 1   
    13    6    7 1   
    14    6    8 1   
    15    9   10 1   
    16    9   39 1   
    17   10   11 1   
    18   10   12 1   
    19   12   13 1   
    20   12   15 1   
    21   13   14 1   
    22   13   40 1   
    23   14   41 1   
    24   15   42 1   
    25   16   17 1   
    26   16   43 1   
    27   17   18 1   
    28   18   19 1   
    29   18   44 1   
    30   18   45 1   
    31   19   20 1   
    32   19   46 1   
    33   20   21 1   
    34   20   22 1   
    35   23   24 1   
    36   23   25 1   
    37   24   29 1   
    38   24   47 1   
    39   25   48 1   
    40   26   27 1   
    41   26   49 1   
    42   27   29 1   
    43   28   50 1   
    44   29   30 1   
    45   30   31 1   
    46   30   32 1   
@<TRIPOS>SUBSTRUCTURE
     1 161         1 TEMP              0 ****  ****    0 ROOT
