@<TRIPOS>MOLECULE
162
   64    55     1     0     0
SMALL
bcc


@<TRIPOS>ATOM
      1 C12         0.6700   -0.6300   -1.3580 c1        1 162      0.303000
      2 O1          0.0540   -0.7480   -0.3380 o         1 162     -0.313000
      3 C13         2.1350   -0.2770   -1.3170 c3        1 162     -0.034000
      4 C14         2.5250    0.1550    0.1200 c3        1 162     -0.150000
      5 C15         3.6500    1.1830    0.0550 c3        1 162     -0.092000
      6 C16         4.7320    0.8030    1.0700 c3        1 162     -0.153000
      7 C17         5.7940    1.8580    1.1960 c3        1 162     -0.154000
      8 C18         5.2130    3.2420    1.4520 c3        1 162     -0.153000
      9 C19         4.1500    3.6180    0.4480 c3        1 162     -0.154000
     10 C20         3.0750    2.5540    0.3140 c3        1 162     -0.153000
     11 N5          2.9060   -1.4080   -1.7020 n3        1 162     -0.295000
     12 C21         3.8580   -1.0200   -2.7410 c3        1 162     -0.154000
     13 C22         4.8470   -2.1520   -2.9710 c2        1 162      0.304000
     14 O2          4.4730   -3.3410   -2.8610 o         1 162     -0.575500
     15 O3          6.0270   -1.8920   -3.3470 o         1 162     -0.575500
     16 O          -3.6020   -1.5120   -1.9730 o         1 162     -0.411000
     17 C7         -2.4500   -1.2510   -1.6840 c1        1 162      0.388000
     18 C8         -1.3500   -1.0960   -2.8380 c2        1 162     -0.153000
     19 C9         -1.5850   -1.1700   -4.1970 c1        1 162     -0.107000
     20 C10        -0.3950   -0.9210   -4.8490 c1        1 162     -0.244000
     21 C11         0.5770   -0.6920   -3.8940 c1        1 162     -0.051000
     22 N4         -0.0110   -0.8000   -2.6530 n2        1 162     -0.170000
     23 N          -5.9140    1.2320    4.4940 n1        1 162     -0.324000
     24 C          -5.9080   -0.0240    4.1510 c1        1 162      0.167000
     25 N1         -6.4880   -1.0110    5.0270 n2        1 162     -0.386000
     26 C1         -5.2710   -0.4610    2.7920 c2        1 162     -0.097000
     27 N2         -5.8720   -0.3890    1.5580 n2        1 162     -0.090000
     28 C2         -7.2020    0.1900    1.2720 c2        1 162     -0.071000
     29 C3         -5.0090   -0.9200    0.6350 c1        1 162     -0.089000
     30 C4         -4.0320   -1.0380    2.6300 c1        1 162     -0.164000
     31 C5         -3.8680   -1.3220    1.2990 c1        1 162     -0.179000
     32 C6         -2.6760   -2.0200    0.6810 c2        1 162      0.056000
     33 N3         -2.0640   -1.1520   -0.3110 n2        1 162     -0.374000
     34 H13         2.3070    0.4570   -1.9330 h1        1 162      0.174000
     35 H141        1.7350    0.5570    0.5710 hc        1 162      0.078500
     36 H142        2.8250   -0.6250    0.6240 hc        1 162      0.078500
     37 H15         4.0360    1.1690   -0.8350 hc        1 162      0.112000
     38 H161        4.3130    0.6680    1.9480 hc        1 162      0.081250
     39 H162        5.1490   -0.0320    0.7870 hc        1 162      0.081250
     40 H171        6.3910    1.6210    1.9440 hc        1 162      0.074250
     41 H172        6.3200    1.8810    0.3600 hc        1 162      0.074250
     42 H181        5.9300    3.8970    1.4100 hc        1 162      0.067000
     43 H182        4.8150    3.2590    2.3610 hc        1 162      0.067000
     44 H191        4.5780    3.7510   -0.4320 hc        1 162      0.074250
     45 H192        3.7310    4.4610    0.7290 hc        1 162      0.074250
     46 H201        2.4860    2.7930   -0.4230 hc        1 162      0.081250
     47 H202        2.5520    2.5250    1.1430 hc        1 162      0.081250
     48 H5          2.3480   -2.0640   -2.0270 hn        1 162      0.166000
     49 H211        3.3750   -0.8340   -3.5750 h1        1 162      0.079000
     50 H212        4.3480   -0.2060   -2.4530 h1        1 162      0.079000
     51 H9         -2.4410   -1.3650   -4.6210 DU        1 162      0.172167
     52 H10        -0.2590   -0.9080   -5.8370 DU        1 162      0.172167
     53 H11         1.5350   -0.5540   -4.0670 DU        1 162      0.172167
     54 H          -6.3010    1.4970    5.3200 DU        1 162      0.172167
     55 H11A       -6.4610   -1.8970    4.7990 hn        1 162      0.189500
     56 H12        -6.8540   -0.7540    5.8340 hn        1 162      0.189500
     57 H21        -7.4510    0.0040    0.3170 ha        1 162      0.095667
     58 H22        -7.8690   -0.2120    1.8690 ha        1 162      0.095667
     59 H23        -7.1740    1.1600    1.4190 ha        1 162      0.095667
     60 H3         -5.1690   -0.9980   -0.3120 DU        1 162      0.172167
     61 H4         -3.3880   -1.2130    3.3340 DU        1 162      0.172167
     62 H61        -2.0120   -2.2310    1.3900 h4        1 162      0.096500
     63 H62        -2.9670   -2.8430    0.2560 h4        1 162      0.096500
     64 HN3        -1.4190   -0.5530   -0.0600 hn        1 162      0.232000
@<TRIPOS>BOND
     1    1    2 1   
     2    1    3 1   
     3    3    4 1   
     4    3   11 1   
     5    3   34 1   
     6    4    5 1   
     7    4   35 1   
     8    4   36 1   
     9    5    6 1   
    10    5   10 1   
    11    5   37 1   
    12    6    7 1   
    13    6   38 1   
    14    6   39 1   
    15    7    8 1   
    16    7   40 1   
    17    7   41 1   
    18    8    9 1   
    19    8   42 1   
    20    8   43 1   
    21    9   10 1   
    22    9   44 1   
    23    9   45 1   
    24   10   46 1   
    25   10   47 1   
    26   11   12 1   
    27   11   48 1   
    28   12   13 1   
    29   12   49 1   
    30   12   50 1   
    31   13   14 1   
    32   13   15 1   
    33   16   17 1   
    34   17   18 1   
    35   18   19 1   
    36   18   22 1   
    37   19   20 1   
    38   20   21 1   
    39   21   22 1   
    40   23   24 1   
    41   24   26 1   
    42   25   55 1   
    43   25   56 1   
    44   26   27 1   
    45   26   30 1   
    46   27   29 1   
    47   28   57 1   
    48   28   58 1   
    49   28   59 1   
    50   29   31 1   
    51   30   31 1   
    52   32   33 1   
    53   32   62 1   
    54   32   63 1   
    55   33   64 1   
@<TRIPOS>SUBSTRUCTURE
     1 162         1 TEMP              0 ****  ****    0 ROOT
