@<TRIPOS>MOLECULE
162
   64    66     1     0     0
SMALL
bcc


@<TRIPOS>ATOM
      1 C12        -0.9430    2.1370   -0.4610 c         1 162      0.559900
      2 O1         -0.4180    1.4590   -1.3510 o         1 162     -0.536100
      3 C13        -2.2160    1.6730    0.2980 c3        1 162      0.136500
      4 C14        -2.7710    0.4670   -0.4740 c3        1 162     -0.074400
      5 C15        -4.1550    0.0430   -0.0130 c3        1 162     -0.062700
      6 C16        -5.2280    0.9830   -0.5480 c3        1 162     -0.074900
      7 C17        -6.6140    0.5290   -0.1360 c3        1 162     -0.074900
      8 C18        -6.8840   -0.8920   -0.5860 c3        1 162     -0.074400
      9 C19        -5.8180   -1.8380   -0.0710 c3        1 162     -0.074900
     10 C20        -4.4310   -1.3830   -0.4770 c3        1 162     -0.074900
     11 N5         -2.0500    1.4810    1.7260 n3        1 162     -0.795200
     12 C21        -1.4490    0.2340    2.1600 c3        1 162      0.030800
     13 C22         0.0400    0.0400    1.8200 c         1 162      0.891600
     14 O2          0.5770   -1.0800    2.0460 o         1 162     -0.855800
     15 O3          0.6740    1.0240    1.3240 o         1 162     -0.855800
     16 O           2.2490    3.8730   -2.5020 o         1 162     -0.648100
     17 C8          0.7530    4.0130   -0.6580 cc        1 162     -0.110900
     18 C9          0.8120    5.3450   -0.2300 cd        1 162     -0.162000
     19 C10        -0.3680    5.5970    0.5500 cd        1 162     -0.206000
     20 C11        -1.1100    4.4150    0.5690 cc        1 162     -0.148300
     21 N4         -0.4360    3.4310   -0.1720 n         1 162     -0.044200
     22 N           6.5480   -3.1720   -1.6600 n2        1 162     -0.871100
     23 N1          6.2950   -3.3620    0.6850 nh        1 162     -0.896800
     24 C1          4.9430   -1.7120   -0.5200 cc        1 162     -0.293200
     25 N2          3.8470   -1.6320    0.3520 na        1 162     -0.023100
     26 C2          3.4380   -2.5820    1.3380 c3        1 162      0.002600
     27 C3          3.1260   -0.4880    0.0510 cc        1 162     -0.088300
     28 C4          4.9080   -0.5880   -1.3730 cd        1 162     -0.154000
     29 C5          3.7640    0.1870   -1.0110 cd        1 162     -0.210300
     30 C6          3.3390    1.4430   -1.6700 c3        1 162      0.185300
     31 N3          2.3560    2.1950   -0.9290 n         1 162     -0.533900
     32 H13        -2.9740    2.5120    0.1920 h1        1 162      0.049700
     33 H141       -2.8080    0.7430   -1.5620 hc        1 162      0.065200
     34 H142       -2.0510   -0.3910   -0.3820 hc        1 162      0.065200
     35 H15        -4.1990    0.0590    1.1120 hc        1 162      0.069700
     36 H161       -5.0460    2.0180   -0.1600 hc        1 162      0.040700
     37 H162       -5.1650    1.0250   -1.6670 hc        1 162      0.040700
     38 H171       -6.7100    0.5910    0.9800 hc        1 162      0.033950
     39 H172       -7.3800    1.2150   -0.5800 hc        1 162      0.033950
     40 H181       -7.8900   -1.2200   -0.2160 hc        1 162      0.030700
     41 H182       -6.9070   -0.9310   -1.7070 hc        1 162      0.030700
     42 H191       -5.8790   -1.8940    1.0480 hc        1 162      0.033950
     43 H192       -6.0050   -2.8690   -0.4700 hc        1 162      0.033950
     44 H201       -4.3270   -1.4380   -1.5920 hc        1 162      0.040700
     45 H202       -3.6660   -2.0710   -0.0300 hc        1 162      0.040700
     46 H5         -1.4860    2.2370    2.0840 hn        1 162      0.370800
     47 H211       -1.5480    0.2070    3.2810 h1        1 162      0.050700
     48 H212       -2.0310   -0.6320    1.7440 h1        1 162      0.050700
     49 H9          1.6070    6.0480   -0.4540 ha        1 162      0.155000
     50 H10        -0.6280    6.5310    1.0360 ha        1 162      0.141000
     51 H11        -2.0650    4.2140    1.0540 h4        1 162      0.165000
     52 H           6.1700   -2.7560   -2.4830 hn        1 162      0.392400
     53 H11A        7.1340   -3.9020    0.6890 hn        1 162      0.388800
     54 H12         6.2480   -2.7150    1.4420 hn        1 162      0.388800
     55 H21         4.1100   -2.5180    2.2360 h1        1 162      0.066033
     56 H22         2.3810   -2.3450    1.6590 h1        1 162      0.066033
     57 H23         3.4890   -3.6220    0.9200 h1        1 162      0.066033
     58 H3          2.2100   -0.2350    0.6200 h4        1 162      0.255000
     59 H4          5.6260   -0.3530   -2.1520 ha        1 162      0.140000
     60 H61         4.2410    2.1060   -1.8300 h1        1 162      0.039200
     61 H62         2.9290    1.1980   -2.6970 h1        1 162      0.039200
     62 HN3         1.8780    1.7310   -0.1790 hn        1 162      0.370500
     63 C7          1.8140    3.3380   -1.4560 c         1 162      0.696700
     64 C           5.9720   -2.7720   -0.5590 ce        1 162      0.683800
@<TRIPOS>BOND
     1    1    2 2   
     2    1    3 1   
     3    1   21 1   
     4    3    4 1   
     5    3   11 1   
     6    3   32 1   
     7    4    5 1   
     8    4   33 1   
     9    4   34 1   
    10    5    6 1   
    11    5   10 1   
    12    5   35 1   
    13    6    7 1   
    14    6   36 1   
    15    6   37 1   
    16    7    8 1   
    17    7   38 1   
    18    7   39 1   
    19    8    9 1   
    20    8   40 1   
    21    8   41 1   
    22    9   10 1   
    23    9   42 1   
    24    9   43 1   
    25   10   44 1   
    26   10   45 1   
    27   11   12 1   
    28   11   46 1   
    29   12   13 1   
    30   12   47 1   
    31   12   48 1   
    32   13   14 1   
    33   13   15 1   
    34   16   63 2   
    35   17   18 2   
    36   17   21 1   
    37   17   63 1   
    38   18   19 1   
    39   18   49 1   
    40   19   20 2   
    41   19   50 1   
    42   20   21 1   
    43   20   51 1   
    44   22   52 1   
    45   22   64 2   
    46   23   53 1   
    47   23   54 1   
    48   23   64 1   
    49   24   25 1   
    50   24   28 2   
    51   24   64 1   
    52   25   26 1   
    53   25   27 1   
    54   26   55 1   
    55   26   56 1   
    56   26   57 1   
    57   27   29 2   
    58   27   58 1   
    59   28   29 1   
    60   28   59 1   
    61   29   30 1   
    62   30   31 1   
    63   30   60 1   
    64   30   61 1   
    65   31   62 1   
    66   31   63 1   
@<TRIPOS>SUBSTRUCTURE
     1 162         1 TEMP              0 ****  ****    0 ROOT
