@<TRIPOS>MOLECULE
163
   64    66     1     0     0
SMALL
bcc


@<TRIPOS>ATOM
      1 C12         1.2510    1.6700    0.0980 c         1 163      0.529900
      2 O1          0.8320    1.3770    1.2230 o         1 163     -0.528100
      3 C13         2.6740    1.2880   -0.3900 c3        1 163      0.138500
      4 C14         3.4880    0.9510    0.8680 c3        1 163     -0.071400
      5 C15         4.9450    0.6240    0.5860 c3        1 163     -0.058700
      6 C16         5.7080    1.8440    0.0880 c3        1 163     -0.073900
      7 C17         7.1750    1.5300   -0.1240 c3        1 163     -0.074400
      8 C18         7.8120    0.9810    1.1360 c3        1 163     -0.074400
      9 C19         7.0570   -0.2310    1.6420 c3        1 163     -0.074400
     10 C20         5.5920    0.0840    1.8570 c3        1 163     -0.073900
     11 N5          2.7040    0.2890   -1.4360 n3        1 163     -0.799200
     12 C21         2.2750   -1.0520   -1.0830 c3        1 163      0.024800
     13 C22         0.7500   -1.2890   -1.1570 c         1 163      0.876600
     14 O2          0.2140   -2.0770   -0.3310 o         1 163     -0.842300
     15 O3          0.0970   -0.6530   -2.0420 o         1 163     -0.842300
     16 O          -2.4960    2.2480    1.1390 o         1 163     -0.659100
     17 C8         -0.9900    2.5110   -0.6970 cc        1 163     -0.105900
     18 C9         -1.4270    3.4240   -1.6580 cd        1 163     -0.161000
     19 C10        -0.2650    3.8760   -2.3780 cd        1 163     -0.198000
     20 C11         0.8410    3.2230   -1.8340 cc        1 163     -0.140300
     21 N4          0.4130    2.3830   -0.7930 n         1 163     -0.053200
     22 N          -8.2880   -1.5180   -0.4460 n2        1 163     -0.862100
     23 N1         -7.8380   -0.9680    1.8140 nh        1 163     -0.897800
     24 C1         -5.9610   -1.4760    0.3260 cc        1 163     -0.279200
     25 N2         -4.9680   -0.6690    0.8940 na        1 163     -0.021100
     26 C2         -5.1890    0.4980    1.6880 c3        1 163     -0.001400
     27 C3         -5.3380   -2.4740   -0.4530 cd        1 163     -0.172000
     28 C4         -3.9320   -2.2750   -0.3480 cd        1 163     -0.185000
     29 C5         -3.7250   -1.1570    0.4860 cc        1 163     -0.098600
     30 C6         -2.3940   -0.6070    0.8990 c3        1 163      0.147300
     31 N3         -1.8390    0.3540   -0.0110 n         1 163     -0.536900
     32 H13         3.1310    2.2230   -0.8400 h1        1 163      0.050700
     33 H141        3.4290    1.8370    1.5550 hc        1 163      0.058700
     34 H142        3.0060    0.0890    1.4030 hc        1 163      0.058700
     35 H15         4.9970   -0.1770   -0.2040 hc        1 163      0.074700
     36 H161        5.2630    2.1920   -0.8800 hc        1 163      0.038950
     37 H162        5.6050    2.6780    0.8300 hc        1 163      0.038950
     38 H171        7.2790    0.7800   -0.9510 hc        1 163      0.034450
     39 H172        7.7140    2.4600   -0.4420 hc        1 163      0.034450
     40 H181        8.8780    0.7030    0.9290 hc        1 163      0.030200
     41 H182        7.8190    1.7750    1.9280 hc        1 163      0.030200
     42 H191        7.1540   -1.0670    0.8990 hc        1 163      0.034450
     43 H192        7.5110   -0.5820    2.6050 hc        1 163      0.034450
     44 H201        5.4860    0.8390    2.6790 hc        1 163      0.038950
     45 H202        5.0530   -0.8450    2.1800 hc        1 163      0.038950
     46 H5          2.1320    0.6050   -2.2070 hn        1 163      0.386800
     47 H211        2.7590   -1.7400   -1.8330 h1        1 163      0.047700
     48 H212        2.6450   -1.3350   -0.0630 h1        1 163      0.047700
     49 H9         -2.4550    3.7250   -1.8360 ha        1 163      0.154000
     50 H10        -0.2580    4.5820   -3.2000 ha        1 163      0.142000
     51 H11         1.8910    3.2840   -2.1160 h4        1 163      0.161000
     52 H          -7.8720   -1.6740   -1.3380 hn        1 163      0.396400
     53 H11A       -8.8090   -1.1030    2.0000 hn        1 163      0.389300
     54 H12        -7.2500   -1.3430    2.5250 hn        1 163      0.389300
     55 H21        -5.3810    0.2050    2.7560 h1        1 163      0.064367
     56 H22        -4.2810    1.1650    1.6470 h1        1 163      0.064367
     57 H23        -6.0780    1.0630    1.3010 h1        1 163      0.064367
     58 H3         -5.8450   -3.2500   -1.0170 ha        1 163      0.141000
     59 H4         -3.1430   -2.8570   -0.8200 ha        1 163      0.176000
     60 H61        -2.4680   -0.1530    1.9300 h1        1 163      0.087700
     61 H62        -1.6720   -1.4840    0.9270 h1        1 163      0.087700
     62 HN3        -1.3110   -0.0240   -0.7840 hn        1 163      0.387500
     63 C7         -1.8290    1.6990    0.2310 c         1 163      0.703700
     64 C          -7.4230   -1.3350    0.5120 ce        1 163      0.678800
@<TRIPOS>BOND
     1    1    2 2   
     2    1    3 1   
     3    1   21 1   
     4    3    4 1   
     5    3   11 1   
     6    3   32 1   
     7    4    5 1   
     8    4   33 1   
     9    4   34 1   
    10    5    6 1   
    11    5   10 1   
    12    5   35 1   
    13    6    7 1   
    14    6   36 1   
    15    6   37 1   
    16    7    8 1   
    17    7   38 1   
    18    7   39 1   
    19    8    9 1   
    20    8   40 1   
    21    8   41 1   
    22    9   10 1   
    23    9   42 1   
    24    9   43 1   
    25   10   44 1   
    26   10   45 1   
    27   11   12 1   
    28   11   46 1   
    29   12   13 1   
    30   12   47 1   
    31   12   48 1   
    32   13   14 1   
    33   13   15 1   
    34   16   63 2   
    35   17   18 2   
    36   17   21 1   
    37   17   63 1   
    38   18   19 1   
    39   18   49 1   
    40   19   20 2   
    41   19   50 1   
    42   20   21 1   
    43   20   51 1   
    44   22   52 1   
    45   22   64 2   
    46   23   53 1   
    47   23   54 1   
    48   23   64 1   
    49   24   25 1   
    50   24   27 2   
    51   24   64 1   
    52   25   26 1   
    53   25   29 1   
    54   26   55 1   
    55   26   56 1   
    56   26   57 1   
    57   27   28 1   
    58   27   58 1   
    59   28   29 2   
    60   28   59 1   
    61   29   30 1   
    62   30   31 1   
    63   30   60 1   
    64   30   61 1   
    65   31   62 1   
    66   31   63 1   
@<TRIPOS>SUBSTRUCTURE
     1 163         1 TEMP              0 ****  ****    0 ROOT
