@<TRIPOS>MOLECULE
163
   64    55     1     0     0
SMALL
bcc


@<TRIPOS>ATOM
      1 C12         0.9430   -0.7980    0.8610 c1        1 163      0.337000
      2 O1          0.3560    0.2060    0.5090 o         1 163     -0.315000
      3 C13         2.4690   -0.8640    0.7690 c3        1 163     -0.009000
      4 C14         2.8930   -0.8600   -0.6970 c3        1 163     -0.158000
      5 C15         4.0140   -1.6150   -0.8450 c3        1 163     -0.093000
      6 C16         5.1040   -0.8950   -1.7500 c3        1 163     -0.151000
      7 C17         4.5700   -0.4840   -3.1150 c3        1 163     -0.153000
      8 C18         3.4480   -1.1630   -3.4340 c3        1 163     -0.152000
      9 C19         3.2260   -2.4780   -3.1710 c3        1 163     -0.153000
     10 C20         3.7680   -2.8730   -1.8170 c3        1 163     -0.151000
     11 N5          3.0260    0.2480    1.4200 n3        1 163     -0.280000
     12 C21         3.9550   -0.1970    2.4170 c3        1 163     -0.151000
     13 C22         4.0060    0.8140    3.5470 c2        1 163      0.310000
     14 O2          4.2390    2.0250    3.2980 o         1 163     -0.581500
     15 O3          3.7760    0.4470    4.7310 o         1 163     -0.581500
     16 O          -3.3680   -1.0400    1.3800 o         1 163     -0.415000
     17 C7         -2.1810   -0.8380    1.2500 c1        1 163      0.379000
     18 C8         -1.1570   -1.9510    1.6310 c2        1 163     -0.073000
     19 C9         -1.4610   -3.1690    2.1920 c1        1 163     -0.159000
     20 C10        -0.3000   -3.8670    2.3380 c1        1 163     -0.214000
     21 C11         0.7350   -3.0790    1.8640 c1        1 163     -0.117000
     22 N4          0.2050   -1.9030    1.4310 n2        1 163     -0.126000
     23 N          -7.9280    2.8310    0.0380 n1        1 163     -0.303000
     24 C          -6.9200    3.3560   -0.6180 c1        1 163      0.168000
     25 N1         -7.1050    4.5590   -1.3680 n2        1 163     -0.394000
     26 C1         -5.5390    2.6780   -0.5760 c2        1 163     -0.087000
     27 N2         -4.6630    2.7060    0.4740 n2        1 163     -0.047000
     28 C2         -4.8300    3.4360    1.6770 c2        1 163     -0.105000
     29 C3         -5.0200    1.8350   -1.5420 c1        1 163     -0.203000
     30 C4         -3.8270    1.3490   -1.0820 c1        1 163     -0.192000
     31 C5         -3.6030    1.8860    0.1660 c1        1 163     -0.095000
     32 C6         -2.3510    1.6410    1.0520 c2        1 163      0.040000
     33 N3         -1.7270    0.3830    0.6730 n2        1 163     -0.350000
     34 H13         2.7850   -1.6820    1.1960 h1        1 163      0.125000
     35 H141        3.0790    0.0600   -0.9810 hc        1 163      0.088000
     36 H142        2.1710   -1.2340   -1.2480 hc        1 163      0.088000
     37 H15         4.3880   -1.8930    0.0180 hc        1 163      0.076000
     38 H161        5.4210   -0.0960   -1.2830 hc        1 163      0.085500
     39 H162        5.8600   -1.5060   -1.8790 hc        1 163      0.085500
     40 H171        5.2560   -0.6630   -3.7950 hc        1 163      0.073000
     41 H172        4.3700    0.4780   -3.1060 hc        1 163      0.073000
     42 H181        2.7110   -0.6760   -3.0120 hc        1 163      0.068000
     43 H182        3.3370   -1.0610   -4.4020 hc        1 163      0.068000
     44 H191        3.6630   -3.0190   -3.8590 hc        1 163      0.073000
     45 H192        2.2600   -2.6510   -3.1920 hc        1 163      0.073000
     46 H201        3.1310   -3.4820   -1.3880 hc        1 163      0.085500
     47 H202        4.6190   -3.3440   -1.9430 hc        1 163      0.085500
     48 H5          2.3600    0.7340    1.8190 hn        1 163      0.167000
     49 H211        4.8450   -0.2850    2.0170 h1        1 163      0.084500
     50 H212        3.6680   -1.0640    2.7670 h1        1 163      0.084500
     51 H9         -2.3610   -3.5000    2.3940 DU        1 163      0.143667
     52 H10        -0.2130   -4.7670    2.7120 DU        1 163      0.143667
     53 H11         1.6810   -3.3240    1.8450 DU        1 163      0.143667
     54 H          -8.7540    3.2360    0.0130 DU        1 163      0.143667
     55 H11A       -6.4780    4.8150   -1.9830 hn        1 163      0.188500
     56 H12        -7.8650    5.0580   -1.2530 hn        1 163      0.188500
     57 H21        -5.5310    4.1130    1.5540 ha        1 163      0.121333
     58 H22        -5.0880    2.8250    2.3960 ha        1 163      0.121333
     59 H23        -3.9870    3.8780    1.9100 ha        1 163      0.121333
     60 H3         -5.4160    1.6470   -2.4100 DU        1 163      0.143667
     61 H4         -3.2390    0.7310   -1.5540 DU        1 163      0.143667
     62 H61        -1.7130    2.3740    0.9250 h4        1 163      0.101000
     63 H62        -2.6200    1.6020    1.9930 h4        1 163      0.101000
     64 HN3        -1.0940    0.3690    0.0250 hn        1 163      0.291000
@<TRIPOS>BOND
     1    1    2 1   
     2    1    3 1   
     3    3    4 1   
     4    3   11 1   
     5    3   34 1   
     6    4    5 1   
     7    4   35 1   
     8    4   36 1   
     9    5    6 1   
    10    5   10 1   
    11    5   37 1   
    12    6    7 1   
    13    6   38 1   
    14    6   39 1   
    15    7    8 1   
    16    7   40 1   
    17    7   41 1   
    18    8    9 1   
    19    8   42 1   
    20    8   43 1   
    21    9   10 1   
    22    9   44 1   
    23    9   45 1   
    24   10   46 1   
    25   10   47 1   
    26   11   12 1   
    27   11   48 1   
    28   12   13 1   
    29   12   49 1   
    30   12   50 1   
    31   13   14 1   
    32   13   15 1   
    33   16   17 1   
    34   17   18 1   
    35   18   19 1   
    36   18   22 1   
    37   19   20 1   
    38   20   21 1   
    39   21   22 1   
    40   23   24 1   
    41   24   26 1   
    42   25   55 1   
    43   25   56 1   
    44   26   27 1   
    45   26   29 1   
    46   27   31 1   
    47   28   57 1   
    48   28   58 1   
    49   28   59 1   
    50   29   30 1   
    51   30   31 1   
    52   32   33 1   
    53   32   62 1   
    54   32   63 1   
    55   33   64 1   
@<TRIPOS>SUBSTRUCTURE
     1 163         1 TEMP              0 ****  ****    0 ROOT
