@<TRIPOS>MOLECULE
164
   27    27     1     0     0
SMALL
bcc


@<TRIPOS>ATOM
      1 O1         -0.2100   -0.8150   -0.3860 o         1 164     -0.830800
      2 C7          0.9440   -0.3010   -0.4080 c         1 164      0.928600
      3 O2          1.5130    0.1210   -1.4480 o         1 164     -0.830800
      4 C2          1.7090   -0.1070    0.9520 c3        1 164     -0.162500
      5 C3          0.6860    0.0270    2.0870 c3        1 164      0.185300
      6 C4          0.6300   -1.1050    3.0620 c2        1 164     -0.218200
      7 C5          1.4920   -2.1320    3.0270 ce        1 164     -0.095000
      8 C6          2.5830   -2.1490    2.0850 ce        1 164     -0.188000
      9 O9          0.9810    1.2570    2.7660 oh        1 164     -0.611800
     10 C1          2.7150   -1.1780    1.1520 cf        1 164     -0.070400
     11 C8          3.9570   -1.1680    0.3190 c         1 164      0.591300
     12 O3          4.2870   -2.1670   -0.3350 o         1 164     -0.574100
     13 C9          4.7890    0.0780    0.4090 c3        1 164     -0.165400
     14 C10         6.2220   -0.1270   -0.0240 c3        1 164     -0.178400
     15 C11         7.2000    0.8610    0.6270 c         1 164      0.904600
     16 O5          8.1830    1.2620   -0.0660 o         1 164     -0.866800
     17 O4          7.0260    1.2120    1.8320 o         1 164     -0.866800
     18 H2          2.2540    0.8780    0.8580 hc        1 164      0.090700
     19 H3         -0.3440    0.1290    1.6230 h1        1 164      0.071700
     20 H4         -0.1820   -1.0540    3.8010 ha        1 164      0.085000
     21 H5          1.4110   -2.9800    3.7230 ha        1 164      0.090000
     22 H6          3.3200   -2.9600    2.1680 ha        1 164      0.117000
     23 HO9         0.4250    1.2800    3.5510 ho        1 164      0.365000
     24 H91         4.7770    0.4550    1.4690 hc        1 164      0.084200
     25 H92         4.2940    0.8570   -0.2330 hc        1 164      0.084200
     26 H101        6.5590   -1.1580    0.2590 hc        1 164      0.029200
     27 H102        6.3030   -0.0440   -1.1360 hc        1 164      0.029200
@<TRIPOS>BOND
     1    1    2 1   
     2    2    3 1   
     3    2    4 1   
     4    4    5 1   
     5    4   10 1   
     6    4   18 1   
     7    5    6 1   
     8    5    9 1   
     9    5   19 1   
    10    6    7 2   
    11    6   20 1   
    12    7    8 1   
    13    7   21 1   
    14    8   10 2   
    15    8   22 1   
    16    9   23 1   
    17   10   11 1   
    18   11   12 2   
    19   11   13 1   
    20   13   14 1   
    21   13   24 1   
    22   13   25 1   
    23   14   15 1   
    24   14   26 1   
    25   14   27 1   
    26   15   16 1   
    27   15   17 1   
@<TRIPOS>SUBSTRUCTURE
     1 164         1 TEMP              0 ****  ****    0 ROOT
