@<TRIPOS>MOLECULE
164
   27    27     1     0     0
SMALL
bcc


@<TRIPOS>ATOM
      1 O1          1.9870    1.3210    2.9140 o         1 164     -0.830800
      2 C7          1.8270    0.9300    1.7240 c         1 164      0.928600
      3 O2          2.5370    1.3000    0.7520 o         1 164     -0.830800
      4 C2          0.7160   -0.1420    1.4260 c3        1 164     -0.162500
      5 C3          0.4780   -0.9810    2.6890 c3        1 164      0.185300
      6 C4         -0.8410   -0.7930    3.3660 c2        1 164     -0.218200
      7 C5         -1.8150   -0.0260    2.8530 ce        1 164     -0.095000
      8 C6         -1.6620    0.5940    1.5610 ce        1 164     -0.188000
      9 O9          0.6560   -2.3550    2.3120 oh        1 164     -0.611800
     10 C1         -0.5020    0.4960    0.8710 cf        1 164     -0.070400
     11 C8         -0.4700    1.0190   -0.5290 c         1 164      0.591300
     12 O3         -0.7880    2.1910   -0.7730 o         1 164     -0.574100
     13 C9         -0.1220    0.0150   -1.5890 c3        1 164     -0.165400
     14 C10        -0.5700    0.4260   -2.9730 c3        1 164     -0.178400
     15 C11        -0.8150   -0.7650   -3.9100 c         1 164      0.904600
     16 O5         -0.5260   -0.6210   -5.1360 o         1 164     -0.866800
     17 O4         -1.3280   -1.8280   -3.4500 o         1 164     -0.866800
     18 H2          1.1510   -0.8220    0.6360 hc        1 164      0.090700
     19 H3          1.2880   -0.7230    3.4400 h1        1 164      0.071700
     20 H4         -0.9560   -1.3070    4.3310 ha        1 164      0.085000
     21 H5         -2.7630    0.1380    3.3850 ha        1 164      0.090000
     22 H6         -2.5290    1.1230    1.1410 ha        1 164      0.117000
     23 HO9         0.3820   -2.8860    3.0670 ho        1 164      0.365000
     24 H91         0.9930   -0.1230   -1.5640 hc        1 164      0.084200
     25 H92        -0.5920   -0.9740   -1.3310 hc        1 164      0.084200
     26 H101       -1.5330    0.9960   -2.9050 hc        1 164      0.029200
     27 H102        0.1880    1.1070   -3.4350 hc        1 164      0.029200
@<TRIPOS>BOND
     1    1    2 1   
     2    2    3 1   
     3    2    4 1   
     4    4    5 1   
     5    4   10 1   
     6    4   18 1   
     7    5    6 1   
     8    5    9 1   
     9    5   19 1   
    10    6    7 2   
    11    6   20 1   
    12    7    8 1   
    13    7   21 1   
    14    8   10 2   
    15    8   22 1   
    16    9   23 1   
    17   10   11 1   
    18   11   12 2   
    19   11   13 1   
    20   13   14 1   
    21   13   24 1   
    22   13   25 1   
    23   14   15 1   
    24   14   26 1   
    25   14   27 1   
    26   15   16 1   
    27   15   17 1   
@<TRIPOS>SUBSTRUCTURE
     1 164         1 TEMP              0 ****  ****    0 ROOT
