@<TRIPOS>MOLECULE
164
   27    25     1     0     0
SMALL
bcc


@<TRIPOS>ATOM
      1 O1         -1.4510    1.5880   -2.0240 o         1 164     -0.533000
      2 C7         -0.1900    1.5880   -2.0240 c1        1 164      0.343000
      3 O2          0.4400    1.6050   -3.1160 os        1 164     -0.612000
      4 C2          0.5950    1.5880   -0.6650 c3        1 164     -0.181000
      5 C3          0.3330    2.9150    0.1150 c3        1 164      0.089000
      6 C4          1.0230    2.9660    1.4530 c2        1 164     -0.177000
      7 C5          1.0890    1.6810    2.2810 c1        1 164     -0.131000
      8 C6          0.6010    0.3500    1.6240 c1        1 164     -0.188000
      9 O9          0.6700    4.0920   -0.7060 oh        1 164     -0.387000
     10 C1          0.2690    0.3560    0.1260 c2        1 164     -0.061000
     11 C8         -0.0370   -0.9540   -0.5930 c2        1 164      0.303000
     12 O3         -0.0180   -0.9980   -1.8080 o         1 164     -0.345000
     13 C9         -0.4430   -2.1850    0.2080 c3        1 164     -0.195000
     14 C10        -0.7270   -3.3400   -0.7440 c3        1 164     -0.206000
     15 C11        -1.1140   -4.5730    0.0560 c2        1 164      0.323000
     16 O5         -2.3270   -4.7990    0.3180 o         1 164     -0.603500
     17 O4         -0.2290   -5.3980    0.4100 o         1 164     -0.603500
     18 H2          1.5160    1.5550   -0.9840 hc        1 164      0.111000
     19 H3         -0.6280    3.0450    0.2330 h1        1 164      0.077000
     20 H4          1.2110    3.8280    1.8720 ha        1 164      0.106000
     21 H5          1.2200    1.7290    3.2480 ha        1 164      0.097000
     22 H6          0.3090   -0.3930    2.1860 ha        1 164      0.137000
     23 HO9         0.2410    4.8040   -0.3930 ho        1 164      0.247000
     24 H91         0.2820   -2.4330    0.8130 hc        1 164      0.126000
     25 H92        -1.2460   -1.9860    0.7270 hc        1 164      0.126000
     26 H101        0.0720   -3.5320   -1.2700 hc        1 164      0.068500
     27 H102       -1.4600   -3.0960   -1.3410 hc        1 164      0.068500
@<TRIPOS>BOND
     1    1    2 1   
     2    2    4 1   
     3    4    5 1   
     4    4   10 1   
     5    4   18 1   
     6    5    6 1   
     7    5    9 1   
     8    5   19 1   
     9    6    7 1   
    10    6   20 1   
    11    7   21 1   
    12    8   10 1   
    13    8   22 1   
    14    9   23 1   
    15   10   11 1   
    16   11   12 1   
    17   11   13 1   
    18   13   14 1   
    19   13   24 1   
    20   13   25 1   
    21   14   15 1   
    22   14   26 1   
    23   14   27 1   
    24   15   16 1   
    25   15   17 1   
@<TRIPOS>SUBSTRUCTURE
     1 164         1 TEMP              0 ****  ****    0 ROOT
