@<TRIPOS>MOLECULE
164
   27    27     1     0     0
SMALL
bcc


@<TRIPOS>ATOM
      1 O1         -0.2570   -0.7170   -0.3270 o         1 164     -0.830800
      2 C7          0.9010   -0.2130   -0.3570 c         1 164      0.928600
      3 O2          1.4480    0.2480   -1.3930 o         1 164     -0.830800
      4 C2          1.7030   -0.0850    0.9890 c3        1 164     -0.162500
      5 C3          0.7100    0.0120    2.1560 c3        1 164      0.185300
      6 C4          0.6670   -1.1600    3.0820 c2        1 164     -0.218200
      7 C5          1.5160   -2.1930    2.9820 ce        1 164     -0.095000
      8 C6          2.5830   -2.1810    2.0120 ce        1 164     -0.188000
      9 O9          1.0360    1.2090    2.8780 oh        1 164     -0.611800
     10 C1          2.7020   -1.1720    1.1180 cf        1 164     -0.070400
     11 C8          3.9220   -1.1390    0.2550 c         1 164      0.591300
     12 O3          4.2250   -2.1110   -0.4500 o         1 164     -0.574100
     13 C9          4.7710    0.0940    0.3780 c3        1 164     -0.165400
     14 C10         6.1910   -0.1070   -0.0990 c3        1 164     -0.178400
     15 C11         7.1950    0.8420    0.5700 c         1 164      0.904600
     16 O5          8.1650    1.2640   -0.1310 o         1 164     -0.866800
     17 O4          7.0550    1.1420    1.7920 o         1 164     -0.866800
     18 H2          2.2550    0.8980    0.9230 hc        1 164      0.090700
     19 H3         -0.3300    0.1430    1.7230 h1        1 164      0.071700
     20 H4         -0.1260   -1.1340    3.8430 ha        1 164      0.085000
     21 H5          1.4430   -3.0700    3.6430 ha        1 164      0.090000
     22 H6          3.3130   -3.0020    2.0420 ha        1 164      0.117000
     23 HO9         0.5020    1.2030    3.6780 ho        1 164      0.365000
     24 H91         4.7900    0.4240    1.4540 hc        1 164      0.084200
     25 H92         4.2690    0.9050   -0.2160 hc        1 164      0.084200
     26 H101        6.5220   -1.1530    0.1300 hc        1 164      0.029200
     27 H102        6.2440    0.0240   -1.2080 hc        1 164      0.029200
@<TRIPOS>BOND
     1    1    2 1   
     2    2    3 1   
     3    2    4 1   
     4    4    5 1   
     5    4   10 1   
     6    4   18 1   
     7    5    6 1   
     8    5    9 1   
     9    5   19 1   
    10    6    7 2   
    11    6   20 1   
    12    7    8 1   
    13    7   21 1   
    14    8   10 2   
    15    8   22 1   
    16    9   23 1   
    17   10   11 1   
    18   11   12 2   
    19   11   13 1   
    20   13   14 1   
    21   13   24 1   
    22   13   25 1   
    23   14   15 1   
    24   14   26 1   
    25   14   27 1   
    26   15   16 1   
    27   15   17 1   
@<TRIPOS>SUBSTRUCTURE
     1 164         1 TEMP              0 ****  ****    0 ROOT
