@<TRIPOS>MOLECULE
165
   74    78     1     0     0
SMALL
bcc


@<TRIPOS>ATOM
      1 C7         -3.3820    2.0260    0.4180 c3        1 165     -0.253300
      2 S8         -1.7580    1.5480    0.0360 s6        1 165      1.447900
      3 C5         -3.6660    3.4340    0.0530 ca        1 165     -0.074300
      4 C4         -3.9120    4.3890    1.0460 ca        1 165     -0.115500
      5 C3         -4.2060    5.7060    0.6930 ca        1 165     -0.125500
      6 C2         -4.2600    6.0770   -0.6500 ca        1 165     -0.120000
      7 C1         -4.0160    5.1280   -1.6430 ca        1 165     -0.125500
      8 C6         -3.7220    3.8110   -1.2960 ca        1 165     -0.115500
      9 O36        -0.8570    2.3720    0.7290 o         1 165     -0.641800
     10 O37        -1.6540    1.4660   -1.3700 o         1 165     -0.641800
     11 N9         -1.6940    0.0530    0.6700 n3        1 165     -0.912100
     12 C10        -1.7880   -1.1650   -0.0820 c3        1 165      0.188500
     13 C18        -0.4890   -2.0030    0.0820 c         1 165      0.644100
     14 O38         0.0160   -2.1540    1.2160 o         1 165     -0.630100
     15 C11        -2.9270   -2.1060    0.3480 c3        1 165     -0.093400
     16 C12        -4.3160   -1.5120    0.2050 c3        1 165     -0.064700
     17 C13        -5.3380   -2.4800    0.7920 c3        1 165     -0.077900
     18 C17        -4.6590   -1.2060   -1.2470 c3        1 165     -0.077900
     19 C14        -6.7470   -1.9400    0.6630 c3        1 165     -0.077400
     20 C16        -6.0690   -0.6680   -1.3780 c3        1 165     -0.077400
     21 C15        -7.0840   -1.6190   -0.7790 c3        1 165     -0.077400
     22 N19         0.1090   -2.5510   -1.0320 n         1 165     -0.453800
     23 C23         1.2100   -3.5020   -0.9230 c3        1 165      0.028700
     24 C24         2.5970   -2.8030   -0.8760 c         1 165      0.660100
     25 O39         3.4310   -2.9950   -1.7790 o         1 165     -0.597100
     26 C22         1.1150   -4.4390   -2.1470 c3        1 165     -0.087400
     27 C21         0.1170   -3.7950   -3.1030 c3        1 165     -0.090400
     28 C20        -0.5340   -2.6350   -2.3340 c3        1 165      0.082000
     29 N25         2.8290   -2.0160    0.2330 n         1 165     -0.458100
     30 C26         3.9900   -1.2800    0.5250 ca        1 165      0.067600
     31 C31         5.1470   -1.3180   -0.2690 ca        1 165     -0.119000
     32 C30         6.2550   -0.5620    0.1030 ca        1 165     -0.070100
     33 S34         7.7570   -0.4370   -0.6650 ss        1 165     -0.063100
     34 C33         8.3120    0.7000    0.5730 cc        1 165      0.547100
     35 N35         9.6350    1.1370    0.5380 nh        1 165     -0.853800
     36 N32         7.4120    0.9780    1.5220 nd        1 165     -0.585100
     37 C29         6.2380    0.2560    1.2770 ca        1 165      0.085400
     38 C28         5.0730    0.2870    2.0680 ca        1 165     -0.062000
     39 C27         3.9770   -0.4650    1.6970 ca        1 165     -0.166000
     40 H71        -4.1190    1.3740   -0.1310 h1        1 165      0.113700
     41 H72        -3.6050    1.8790    1.5090 h1        1 165      0.113700
     42 H4         -3.8680    4.1050    2.1070 ha        1 165      0.142000
     43 H3         -4.3930    6.4530    1.4790 ha        1 165      0.135500
     44 H2         -4.4910    7.1160   -0.9260 ha        1 165      0.134000
     45 H1         -4.0520    5.4180   -2.7030 ha        1 165      0.135500
     46 H6         -3.5140    3.0650   -2.0810 ha        1 165      0.142000
     47 HN9        -1.4610   -0.1000    1.6250 hn        1 165      0.462800
     48 H10        -1.9330   -0.8820   -1.1710 h1        1 165      0.095700
     49 H111       -2.8550   -3.0320   -0.2830 hc        1 165      0.059700
     50 H112       -2.7640   -2.4090    1.4170 hc        1 165      0.059700
     51 H131       -5.2630   -3.4650    0.2610 hc        1 165      0.042200
     52 H171       -3.9380   -0.4500   -1.6580 hc        1 165      0.042200
     53 H141       -7.4730   -2.6950    1.0600 hc        1 165      0.042450
     54 H161       -6.3030   -0.5020   -2.4620 hc        1 165      0.042450
     55 H151       -7.1070   -2.5670   -1.3770 hc        1 165      0.042200
     56 H12        -4.3700   -0.5540    0.7960 hc        1 165      0.048700
     57 H132       -5.1030   -2.6600    1.8730 hc        1 165      0.042200
     58 H142       -6.8510   -1.0130    1.2860 hc        1 165      0.042450
     59 H152       -8.1050   -1.1610   -0.8330 hc        1 165      0.042200
     60 H162       -6.1380    0.3260   -0.8630 hc        1 165      0.042450
     61 H172       -4.5530   -2.1410   -1.8580 hc        1 165      0.042200
     62 H23         1.1050   -4.0950    0.0350 h1        1 165      0.086700
     63 H221        2.1150   -4.5680   -2.6330 hc        1 165      0.076200
     64 H222        0.7560   -5.4440   -1.8140 hc        1 165      0.076200
     65 H211        0.6370   -3.4060   -4.0140 hc        1 165      0.060700
     66 H212       -0.6570   -4.5290   -3.4330 hc        1 165      0.060700
     67 H201       -1.6390   -2.8160   -2.2160 h1        1 165      0.055700
     68 H202       -0.3890   -1.6610   -2.8780 h1        1 165      0.055700
     69 H25         2.0920   -1.9370    0.9060 hn        1 165      0.346500
     70 H31         5.1940   -1.9350   -1.1820 ha        1 165      0.178000
     71 H351        9.9170    1.4430   -0.3700 hn        1 165      0.400800
     72 H352        9.8770    1.7890    1.2560 hn        1 165      0.400800
     73 H28         5.0420    0.9110    2.9750 ha        1 165      0.152000
     74 H27         3.0720   -0.4260    2.3250 ha        1 165      0.140000
@<TRIPOS>BOND
     1    1    2 1   
     2    1    3 1   
     3    1   40 1   
     4    1   41 1   
     5    2    9 2   
     6    2   10 2   
     7    2   11 1   
     8    3    4 ar  
     9    3    8 ar  
    10    4    5 ar  
    11    4   42 1   
    12    5    6 ar  
    13    5   43 1   
    14    6    7 ar  
    15    6   44 1   
    16    7    8 ar  
    17    7   45 1   
    18    8   46 1   
    19   11   12 1   
    20   11   47 1   
    21   12   13 1   
    22   12   15 1   
    23   12   48 1   
    24   13   14 2   
    25   13   22 1   
    26   15   16 1   
    27   15   49 1   
    28   15   50 1   
    29   16   17 1   
    30   16   18 1   
    31   16   56 1   
    32   17   19 1   
    33   17   51 1   
    34   17   57 1   
    35   18   20 1   
    36   18   52 1   
    37   18   61 1   
    38   19   21 1   
    39   19   53 1   
    40   19   58 1   
    41   20   21 1   
    42   20   54 1   
    43   20   60 1   
    44   21   55 1   
    45   21   59 1   
    46   22   23 1   
    47   22   28 1   
    48   23   24 1   
    49   23   26 1   
    50   23   62 1   
    51   24   25 2   
    52   24   29 1   
    53   26   27 1   
    54   26   63 1   
    55   26   64 1   
    56   27   28 1   
    57   27   65 1   
    58   27   66 1   
    59   28   67 1   
    60   28   68 1   
    61   29   30 1   
    62   29   69 1   
    63   30   31 ar  
    64   30   39 ar  
    65   31   32 ar  
    66   31   70 1   
    67   32   33 1   
    68   32   37 ar  
    69   33   34 1   
    70   34   35 1   
    71   34   36 2   
    72   35   71 1   
    73   35   72 1   
    74   36   37 1   
    75   37   38 ar  
    76   38   39 ar  
    77   38   73 1   
    78   39   74 1   
@<TRIPOS>SUBSTRUCTURE
     1 165         1 TEMP              0 ****  ****    0 ROOT
