@<TRIPOS>MOLECULE
165
   74    70     1     0     0
SMALL
bcc


@<TRIPOS>ATOM
      1 C7         -2.1380    1.8400   -3.2800 c3        1 165     -0.798000
      2 S8         -1.0650    2.3380   -1.8980 s4        1 165      2.019800
      3 C5         -2.1280    2.9340   -4.3560 c2        1 165     -0.070000
      4 C4         -0.9590    3.1990   -5.0560 c2        1 165     -0.109000
      5 C3         -0.9890    4.0240   -6.1660 c1        1 165     -0.130000
      6 C2         -2.1870    4.5870   -6.5810 c1        1 165     -0.122000
      7 C1         -3.3520    4.3250   -5.8860 c1        1 165     -0.122000
      8 C6         -3.3250    3.4980   -4.7730 c1        1 165     -0.117000
      9 O36         0.1050    2.9880   -2.3630 o         1 165     -0.528900
     10 O37        -1.6700    3.3770   -1.1160 o         1 165     -0.528900
     11 N9         -0.6940    1.0240   -0.9650 n2        1 165     -0.885000
     12 C10         0.5650    0.9630   -0.2710 c3        1 165      0.042000
     13 C18         0.4900   -0.0950    0.8150 c1        1 165      0.287000
     14 O38        -0.3410   -0.9800    0.7430 o         1 165     -0.391000
     15 C11         1.6750    0.6010   -1.2540 c3        1 165     -0.171000
     16 C12         2.1460    1.7190   -1.8350 c3        1 165     -0.102000
     17 C13         3.7370    1.7940   -1.7800 c3        1 165     -0.153500
     18 C17         2.0170    1.6660   -3.4490 c3        1 165     -0.153500
     19 C14         4.4160    0.5680   -2.3810 c3        1 165     -0.154000
     20 C16         2.6770    0.4440   -4.0560 c3        1 165     -0.154000
     21 C15         3.5740   -0.1190   -3.1980 c3        1 165     -0.156000
     22 N19         1.3890   -0.0180    1.9960 n2        1 165     -0.311000
     23 C23         1.3940   -0.8510    3.0440 c3        1 165      0.002000
     24 C24         0.0260   -1.4840    3.3560 c2        1 165      0.304000
     25 O39        -0.9440   -0.7850    3.4800 o         1 165     -0.358000
     26 C22         1.9650    0.1020    4.2230 c3        1 165     -0.166000
     27 C21         2.5080    1.3590    3.5350 c3        1 165     -0.169000
     28 C20         2.5380    1.0760    2.2580 c3        1 165     -0.034000
     29 N25        -0.0840   -2.9110    3.5440 n         1 165     -0.312000
     30 C26        -1.3920   -3.5090    3.8870 c2        1 165      0.075000
     31 C31        -2.3460   -3.1820    4.8670 c2        1 165     -0.119000
     32 C30        -3.2390   -4.1510    5.3240 c1        1 165     -0.296000
     33 S34        -4.3760   -4.1080    6.3780 s         1 165      0.388000
     34 C33        -5.0060   -5.5220    6.4420 c1        1 165     -0.118000
     35 N35        -6.1810   -5.8540    7.2120 n2        1 165     -0.292000
     36 N32        -4.3140   -6.3520    5.5090 n2        1 165     -0.158000
     37 C29        -3.1840   -5.4750    4.7950 c1        1 165     -0.054000
     38 C28        -2.2340   -5.7980    3.8190 c1        1 165     -0.062000
     39 C27        -1.3380   -4.8230    3.3620 c1        1 165     -0.167000
     40 H71        -1.8100    1.0050   -3.6620 h1        1 165      0.151500
     41 H72        -3.0610    1.7090   -2.9490 h1        1 165      0.151500
     42 H4         -0.1180    2.8040   -4.7660 ha        1 165      0.131000
     43 H3         -0.1560    4.2120   -6.6630 ha        1 165      0.134000
     44 H2         -2.2060    5.1680   -7.3610 ha        1 165      0.135500
     45 H1         -4.2030    4.7260   -6.1830 ha        1 165      0.135500
     46 H6         -4.1440    3.3170   -4.2840 ha        1 165      0.154000
     47 HN9        -1.3180    0.3730   -0.8320 hn        1 165      0.258000
     48 H10         0.7600    1.8430    0.1370 h1        1 165      0.130000
     49 H111        1.3210    0.0060   -1.9370 hc        1 165      0.100500
     50 H112        2.4070    0.1490   -0.7710 hc        1 165      0.100500
     51 H131        4.0280    2.5840   -2.2710 hc        1 165      0.080750
     52 H171        1.0610    1.6650   -3.6900 hc        1 165      0.080750
     53 H141        5.2050    0.8590   -2.9020 hc        1 165      0.080500
     54 H161        1.9820   -0.2190   -4.2780 hc        1 165      0.080500
     55 H151        3.0490   -0.7140   -2.6080 hc        1 165      0.081000
     56 H12         1.7310    2.5310   -1.4630 hc        1 165      0.084000
     57 H132        4.0170    1.8830   -0.8480 hc        1 165      0.080750
     58 H142        4.7130   -0.0250   -1.6530 hc        1 165      0.080500
     59 H152        4.1450   -0.6990   -3.7480 hc        1 165      0.081000
     60 H162        3.1470    0.7100   -4.8860 hc        1 165      0.080500
     61 H172        2.4450    2.4850   -3.8310 hc        1 165      0.080750
     62 H23         1.9600   -1.6430    2.8930 h1        1 165      0.125000
     63 H221        2.6940   -0.3630    4.7170 hc        1 165      0.115500
     64 H222        1.2410    0.3420    4.8400 hc        1 165      0.115500
     65 H211        3.4060    1.5580    3.8570 hc        1 165      0.100500
     66 H212        1.9090    2.1240    3.7010 hc        1 165      0.100500
     67 H201        2.3570    1.8800    1.7350 h1        1 165      0.095500
     68 H202        3.4300    0.7020    2.0110 h1        1 165      0.095500
     69 H25         0.6820   -3.4420    3.5350 hn        1 165      0.260000
     70 H31        -2.3620   -2.2820    5.2520 ha        1 165      0.178000
     71 H351       -6.5970   -6.6690    7.0920 hn        1 165      0.196000
     72 H352       -6.5080   -5.2590    7.8270 hn        1 165      0.196000
     73 H28        -2.1960   -6.7070    3.4550 ha        1 165      0.151000
     74 H27        -0.7420   -5.0240    2.6110 ha        1 165      0.140000
@<TRIPOS>BOND
     1    1    2 1   
     2    1    3 1   
     3    1   40 1   
     4    1   41 1   
     5    2    9 1   
     6    2   10 1   
     7    3    4 1   
     8    3    8 1   
     9    4    5 1   
    10    4   42 1   
    11    5   43 1   
    12    6    7 1   
    13    6   44 1   
    14    7   45 1   
    15    8   46 1   
    16   11   12 1   
    17   11   47 1   
    18   12   13 1   
    19   12   15 1   
    20   12   48 1   
    21   13   14 1   
    22   15   16 1   
    23   15   49 1   
    24   15   50 1   
    25   16   17 1   
    26   16   18 1   
    27   16   56 1   
    28   17   19 1   
    29   17   51 1   
    30   17   57 1   
    31   18   20 1   
    32   18   52 1   
    33   18   61 1   
    34   19   21 1   
    35   19   53 1   
    36   19   58 1   
    37   20   21 1   
    38   20   54 1   
    39   20   60 1   
    40   21   55 1   
    41   21   59 1   
    42   22   23 1   
    43   22   28 1   
    44   23   24 1   
    45   23   26 1   
    46   23   62 1   
    47   24   25 1   
    48   24   29 1   
    49   26   27 1   
    50   26   63 1   
    51   26   64 1   
    52   27   28 1   
    53   27   65 1   
    54   27   66 1   
    55   28   67 1   
    56   28   68 1   
    57   29   30 1   
    58   29   69 1   
    59   30   31 1   
    60   30   39 1   
    61   31   32 1   
    62   31   70 1   
    63   33   34 1   
    64   34   36 1   
    65   35   71 1   
    66   35   72 1   
    67   36   37 1   
    68   37   38 1   
    69   38   73 1   
    70   39   74 1   
@<TRIPOS>SUBSTRUCTURE
     1 165         1 TEMP              0 ****  ****    0 ROOT
