@<TRIPOS>MOLECULE
166
   54    56     1     0     0
SMALL
bcc


@<TRIPOS>ATOM
      1 C1          0.3820    0.8770    0.8100 c3        1 166     -0.077400
      2 C2          1.8740    1.0720    1.0000 c3        1 166     -0.093400
      3 C3          2.5620   -0.2010    1.4510 c3        1 166     -0.074400
      4 C4          4.0610   -0.0030    1.5360 c3        1 166     -0.166700
      5 C5          4.7490   -1.2950    1.9720 c2        1 166      0.588200
      6 N6          4.8260   -2.2810    0.9660 nv        1 166     -0.897800
      7 N7          5.1780   -1.5330    3.1760 n2        1 166     -0.842100
      8 O8          0.4730   -1.7310   -0.9820 oh        1 166     -0.618100
      9 O8A         1.8880   -0.3090   -1.9070 o         1 166     -0.551000
     10 O9         -2.2490   -1.5180   -2.3240 oh        1 166     -0.596800
     11 C10        -1.4870    0.2420   -0.7820 c3        1 166     -0.050400
     12 C11        -3.2570    1.6320   -1.6240 ca        1 166     -0.075300
     13 C12        -2.4490    1.3540   -0.4960 ca        1 166     -0.086300
     14 C13        -1.8010   -0.1770   -2.2530 c3        1 166      0.143100
     15 C14        -2.9450    0.7230   -2.7610 c3        1 166     -0.037100
     16 C36        -2.6630    2.0300    0.6940 ca        1 166     -0.107000
     17 C37        -3.6460    3.0370    0.7540 cp        1 166     -0.033000
     18 C38        -4.4120    3.3290   -0.3810 ca        1 166     -0.115000
     19 C39        -4.2270    2.6200   -1.5720 ca        1 166     -0.118000
     20 C43        -3.8640    3.7660    2.0010 cp        1 166     -0.075000
     21 C44        -5.1630    4.0760    2.4250 ca        1 166     -0.082500
     22 C45        -5.3770    4.7700    3.6120 ca        1 166     -0.185000
     23 C6         -4.2760    5.1620    4.3870 ca        1 166      0.128100
     24 C7         -2.9660    4.8610    3.9760 ca        1 166     -0.185000
     25 C8         -2.7730    4.1650    2.7900 ca        1 166     -0.082500
     26 O54        -4.4060    5.8500    5.5700 oh        1 166     -0.496100
     27 C16        -0.0150    0.6270   -0.6400 c3        1 166     -0.093700
     28 C15         0.8650   -0.4470   -1.2300 c         1 166      0.636100
     29 H12         0.0180    0.0290    1.4480 hc        1 166      0.059200
     30 H11        -0.1460    1.8090    1.1470 hc        1 166      0.059200
     31 H22         2.0450    1.8720    1.7680 hc        1 166      0.051700
     32 H21         2.3380    1.4290    0.0410 hc        1 166      0.051700
     33 H32         2.3290   -1.0280    0.7260 hc        1 166      0.052200
     34 H31         2.1650   -0.5150    2.4520 hc        1 166      0.052200
     35 H42         4.4580    0.3310    0.5410 hc        1 166      0.055700
     36 H41         4.2930    0.8130    2.2700 hc        1 166      0.055700
     37 H62         4.9890   -1.9060    0.0580 hn        1 166      0.396800
     38 H61         5.4020   -3.0670    1.1770 hn        1 166      0.396800
     39 HN7         4.9790   -0.8080    3.8310 hn        1 166      0.389400
     40 H10        -1.7000   -0.6280   -0.0990 hc        1 166      0.088700
     41 H13        -0.8890   -0.0570   -2.9010 h1        1 166      0.038700
     42 H142       -2.6210    1.2920   -3.6670 hc        1 166      0.073700
     43 H141       -3.8340    0.0990   -3.0350 hc        1 166      0.073700
     44 H36        -2.0960    1.7760    1.6030 ha        1 166      0.138000
     45 H38        -5.1710    4.1250   -0.3350 ha        1 166      0.136000
     46 H39        -4.8480    2.8430   -2.4510 ha        1 166      0.138000
     47 H44        -6.0260    3.7610    1.8170 ha        1 166      0.136500
     48 H45        -6.3990    5.0060    3.9410 ha        1 166      0.144000
     49 H7         -2.1170    5.1800    4.5970 ha        1 166      0.144000
     50 H8         -1.7490    3.9300    2.4590 ha        1 166      0.136500
     51 H54        -5.3500    5.9890    5.7330 ho        1 166      0.420000
     52 H16         0.1820    1.5630   -1.2380 hc        1 166      0.091700
     53 H63         1.1260   -2.3490   -1.3520 ho        1 166      0.448000
     54 H9         -1.5580   -2.0650   -1.9250 ho        1 166      0.414000
@<TRIPOS>BOND
     1    1    2 1   
     2    1   27 1   
     3    1   29 1   
     4    1   30 1   
     5    2    3 1   
     6    2   31 1   
     7    2   32 1   
     8    3    4 1   
     9    3   33 1   
    10    3   34 1   
    11    4    5 1   
    12    4   35 1   
    13    4   36 1   
    14    5    6 1   
    15    5    7 2   
    16    6   37 1   
    17    6   38 1   
    18    7   39 1   
    19    8   28 1   
    20    8   53 1   
    21    9   28 2   
    22   10   14 1   
    23   10   54 1   
    24   11   13 1   
    25   11   14 1   
    26   11   27 1   
    27   11   40 1   
    28   12   13 ar  
    29   12   15 1   
    30   12   19 ar  
    31   13   16 ar  
    32   14   15 1   
    33   14   41 1   
    34   15   42 1   
    35   15   43 1   
    36   16   17 ar  
    37   16   44 1   
    38   17   18 ar  
    39   17   20 1   
    40   18   19 ar  
    41   18   45 1   
    42   19   46 1   
    43   20   21 ar  
    44   20   25 ar  
    45   21   22 ar  
    46   21   47 1   
    47   22   23 ar  
    48   22   48 1   
    49   23   24 ar  
    50   23   26 1   
    51   24   25 ar  
    52   24   49 1   
    53   25   50 1   
    54   26   51 1   
    55   27   28 1   
    56   27   52 1   
@<TRIPOS>SUBSTRUCTURE
     1 166         1 TEMP              0 ****  ****    0 ROOT
