@<TRIPOS>MOLECULE
166
   53    55     1     0     0
SMALL
bcc


@<TRIPOS>ATOM
      1 C1          0.1990   -0.4860   -1.8990 c3        1 166     -0.057400
      2 C2          1.3800    0.3160   -2.4060 c3        1 166     -0.088400
      3 C3          2.5830   -0.5680   -2.6620 c3        1 166     -0.081400
      4 C4          3.7280    0.2510   -3.2170 c3        1 166     -0.168700
      5 C5          4.9380   -0.5810   -3.6250 c2        1 166      0.587200
      6 N6          5.9040    0.1500   -4.3630 nh        1 166     -0.897800
      7 N7          5.1670   -1.8190   -3.2990 n2        1 166     -0.860100
      8 O8         -2.1000   -0.3810   -3.9760 o         1 166     -0.842300
      9 O8A        -1.1590    1.6410   -3.9420 o         1 166     -0.842300
     10 O9         -4.2480   -0.9070   -2.2160 oh        1 166     -0.643800
     11 C10        -2.1660   -0.2810   -1.0750 c3        1 166     -0.035400
     12 C11        -3.4210    0.4770    0.8350 ca        1 166     -0.075300
     13 C12        -2.1400    0.0670    0.3850 ca        1 166     -0.053300
     14 C13        -3.5910    0.1470   -1.5420 c3        1 166      0.163100
     15 C14        -4.4110    0.4750   -0.2760 c3        1 166     -0.047100
     16 C36        -1.0830    0.0130    1.2780 ca        1 166     -0.112000
     17 C37        -1.2880    0.3660    2.6270 cp        1 166     -0.058000
     18 C38        -2.5580    0.7630    3.0580 ca        1 166     -0.134000
     19 C39        -3.6290    0.8220    2.1600 ca        1 166     -0.134000
     20 C43        -0.1720    0.3200    3.5690 cp        1 166     -0.046000
     21 C44        -0.3600   -0.1500    4.8780 ca        1 166     -0.090000
     22 C45         0.6960   -0.1970    5.7820 ca        1 166     -0.187000
     23 C6          1.9660    0.2340    5.3690 ca        1 166      0.108100
     24 C7          2.1740    0.7070    4.0660 ca        1 166     -0.187000
     25 C8          1.1060    0.7460    3.1760 ca        1 166     -0.090000
     26 O54         2.9760    0.1700    6.3060 oh        1 166     -0.507100
     27 C16        -1.0650    0.3630   -1.9020 c3        1 166     -0.184700
     28 C15        -1.4850    0.5560   -3.3860 c         1 166      0.914600
     29 H12         0.0300   -1.3760   -2.5640 hc        1 166      0.028200
     30 H11         0.4200   -0.8760   -0.8720 hc        1 166      0.028200
     31 H22         1.6480    1.1070   -1.6580 hc        1 166      0.058700
     32 H21         1.0730    0.8430   -3.3530 hc        1 166      0.058700
     33 H32         2.3020   -1.3760   -3.3880 hc        1 166      0.038200
     34 H31         2.8900   -1.0650   -1.7040 hc        1 166      0.038200
     35 H42         4.0630    0.9990   -2.4490 hc        1 166      0.063200
     36 H41         3.3520    0.8300   -4.1050 hc        1 166      0.063200
     37 H62         6.6150   -0.4030   -4.7900 hn        1 166      0.385300
     38 H61         5.4880    0.7940   -5.0000 hn        1 166      0.385300
     39 HN7         4.4760   -2.2210   -2.7040 hn        1 166      0.395400
     40 H10        -2.0920   -1.4000   -1.1860 hc        1 166      0.073700
     41 H13        -3.5250    1.0470   -2.2130 h1        1 166      0.067700
     42 H142       -4.9140    1.4680   -0.3780 hc        1 166      0.055700
     43 H141       -5.2000   -0.3030   -0.1110 hc        1 166      0.055700
     44 H36        -0.0830   -0.3030    0.9480 ha        1 166      0.139000
     45 H38        -2.7160    1.0450    4.1090 ha        1 166      0.118000
     46 H39        -4.6220    1.1420    2.5060 ha        1 166      0.122000
     47 H44        -1.3580   -0.4940    5.1910 ha        1 166      0.141500
     48 H45         0.5530   -0.5670    6.8060 ha        1 166      0.135500
     49 H7          3.1720    1.0430    3.7510 ha        1 166      0.135500
     50 H8          1.2620    1.1200    2.1520 ha        1 166      0.141500
     51 H54         3.7900    0.4720    5.8800 ho        1 166      0.414000
     52 H16        -0.8350    1.3780   -1.4800 hc        1 166      0.048700
     53 H9         -3.7440   -1.0570   -3.0370 ho        1 166      0.458000
@<TRIPOS>BOND
     1    1    2 1   
     2    1   27 1   
     3    1   29 1   
     4    1   30 1   
     5    2    3 1   
     6    2   31 1   
     7    2   32 1   
     8    3    4 1   
     9    3   33 1   
    10    3   34 1   
    11    4    5 1   
    12    4   35 1   
    13    4   36 1   
    14    5    6 1   
    15    5    7 2   
    16    6   37 1   
    17    6   38 1   
    18    7   39 1   
    19    8   28 1   
    20    9   28 1   
    21   10   14 1   
    22   10   53 1   
    23   11   13 1   
    24   11   14 1   
    25   11   27 1   
    26   11   40 1   
    27   12   13 ar  
    28   12   15 1   
    29   12   19 ar  
    30   13   16 ar  
    31   14   15 1   
    32   14   41 1   
    33   15   42 1   
    34   15   43 1   
    35   16   17 ar  
    36   16   44 1   
    37   17   18 ar  
    38   17   20 1   
    39   18   19 ar  
    40   18   45 1   
    41   19   46 1   
    42   20   21 ar  
    43   20   25 ar  
    44   21   22 ar  
    45   21   47 1   
    46   22   23 ar  
    47   22   48 1   
    48   23   24 ar  
    49   23   26 1   
    50   24   25 ar  
    51   24   49 1   
    52   25   50 1   
    53   26   51 1   
    54   27   28 1   
    55   27   52 1   
@<TRIPOS>SUBSTRUCTURE
     1 166         1 TEMP              0 ****  ****    0 ROOT
