@<TRIPOS>MOLECULE
166
   54    56     1     0     0
SMALL
bcc


@<TRIPOS>ATOM
      1 C1          0.6060    0.2750    0.9000 c3        1 166     -0.080400
      2 C2          1.7400    1.1960    1.3040 c3        1 166     -0.084400
      3 C3          2.5150    0.6670    2.4950 c3        1 166     -0.070400
      4 C4          3.7760   -0.0780    2.1060 c3        1 166     -0.165700
      5 C5          3.4510   -1.3820    1.3790 c2        1 166      0.582200
      6 N6          3.5150   -1.2980   -0.0310 nh        1 166     -0.901800
      7 N7          3.0690   -2.4720    1.9760 n2        1 166     -0.835100
      8 O8          2.1130    0.7320   -1.8970 oh        1 166     -0.603100
      9 O8A         1.1770   -1.2680   -1.8800 o         1 166     -0.574000
     10 O9         -1.6740   -1.7530   -2.3810 oh        1 166     -0.601800
     11 C10        -1.2790    0.0470   -0.7580 c3        1 166     -0.053400
     12 C11        -3.2870    1.1610   -1.4650 ca        1 166     -0.076300
     13 C12        -2.3230    1.0750   -0.4320 ca        1 166     -0.086300
     14 C13        -1.5840   -0.3510   -2.2340 c3        1 166      0.152100
     15 C14        -2.9650    0.2400   -2.5890 c3        1 166     -0.038100
     16 C36        -2.4450    1.8620    0.7010 ca        1 166     -0.108000
     17 C37        -3.5370    2.7430    0.8180 cp        1 166     -0.035000
     18 C38        -4.4870    2.8150   -0.2070 ca        1 166     -0.117000
     19 C39        -4.3640    2.0250   -1.3550 ca        1 166     -0.118000
     20 C43        -3.6750    3.5770    2.0110 cp        1 166     -0.072000
     21 C44        -4.9290    3.7570    2.6090 ca        1 166     -0.083000
     22 C45        -5.0670    4.5480    3.7460 ca        1 166     -0.185500
     23 C6         -3.9360    5.1710    4.2910 ca        1 166      0.126100
     24 C7         -2.6710    5.0030    3.7030 ca        1 166     -0.185500
     25 C8         -2.5520    4.2080    2.5700 ca        1 166     -0.083000
     26 O54        -3.9910    5.9670    5.4110 oh        1 166     -0.497100
     27 C16         0.1430    0.5530   -0.5310 c3        1 166     -0.095700
     28 C15         1.1280   -0.1050   -1.4630 c         1 166      0.658100
     29 H12         0.9270   -0.7980    0.9800 hc        1 166      0.062700
     30 H11        -0.2580    0.4100    1.6030 hc        1 166      0.062700
     31 H22         2.4330    1.3400    0.4310 hc        1 166      0.051200
     32 H21         1.3160    2.2040    1.5560 hc        1 166      0.051200
     33 H32         2.8150    1.5320    3.1470 hc        1 166      0.045700
     34 H31         1.8600    0.0000    3.1150 hc        1 166      0.045700
     35 H42         4.3620   -0.3220    3.0330 hc        1 166      0.055200
     36 H41         4.4240    0.5870    1.4760 hc        1 166      0.055200
     37 H62         4.3510   -0.8630   -0.3530 hn        1 166      0.396300
     38 H61         2.7500    0.2320   -2.4330 ho        1 166      0.440000
     39 HN7         2.9580   -2.3800    2.9620 hn        1 166      0.389400
     40 H10        -1.4450   -0.8660   -0.1170 hc        1 166      0.089700
     41 H13        -0.7980    0.0590   -2.9240 h1        1 166      0.037700
     42 H142       -3.7250   -0.5800   -2.6720 hc        1 166      0.072200
     43 H141       -2.9230    0.7790   -3.5670 hc        1 166      0.072200
     44 H36        -1.7060    1.8090    1.5130 ha        1 166      0.136000
     45 H38        -5.3370    3.5080   -0.1150 ha        1 166      0.135000
     46 H39        -5.1140    2.0930   -2.1560 ha        1 166      0.137000
     47 H44        -5.8140    3.2620    2.1810 ha        1 166      0.137500
     48 H45        -6.0530    4.6820    4.2130 ha        1 166      0.143000
     49 H7         -1.7970    5.5030    4.1440 ha        1 166      0.143000
     50 H8         -1.5650    4.0770    2.1000 ha        1 166      0.137500
     51 H54        -4.9120    5.9970    5.7100 ho        1 166      0.420000
     52 H16         0.1730    1.6640   -0.7230 hc        1 166      0.090700
     53 H63         3.3010   -2.1430   -0.5210 hn        1 166      0.396300
     54 H9         -0.7890   -2.1130   -2.2250 ho        1 166      0.428000
@<TRIPOS>BOND
     1    1    2 1   
     2    1   27 1   
     3    1   29 1   
     4    1   30 1   
     5    2    3 1   
     6    2   31 1   
     7    2   32 1   
     8    3    4 1   
     9    3   33 1   
    10    3   34 1   
    11    4    5 1   
    12    4   35 1   
    13    4   36 1   
    14    5    6 1   
    15    5    7 2   
    16    6   37 1   
    17    6   53 1   
    18    7   39 1   
    19    8   28 1   
    20    8   38 1   
    21    9   28 2   
    22   10   14 1   
    23   10   54 1   
    24   11   13 1   
    25   11   14 1   
    26   11   27 1   
    27   11   40 1   
    28   12   13 ar  
    29   12   15 1   
    30   12   19 ar  
    31   13   16 ar  
    32   14   15 1   
    33   14   41 1   
    34   15   42 1   
    35   15   43 1   
    36   16   17 ar  
    37   16   44 1   
    38   17   18 ar  
    39   17   20 1   
    40   18   19 ar  
    41   18   45 1   
    42   19   46 1   
    43   20   21 ar  
    44   20   25 ar  
    45   21   22 ar  
    46   21   47 1   
    47   22   23 ar  
    48   22   48 1   
    49   23   24 ar  
    50   23   26 1   
    51   24   25 ar  
    52   24   49 1   
    53   25   50 1   
    54   26   51 1   
    55   27   28 1   
    56   27   52 1   
@<TRIPOS>SUBSTRUCTURE
     1 166         1 TEMP              0 ****  ****    0 ROOT
