@<TRIPOS>MOLECULE
166
   54    56     1     0     0
SMALL
bcc


@<TRIPOS>ATOM
      1 C1          0.3840    0.8810    0.8070 c3        1 166     -0.077400
      2 C2          1.8750    1.0820    0.9960 c3        1 166     -0.093400
      3 C3          2.5700   -0.1900    1.4400 c3        1 166     -0.074400
      4 C4          4.0670    0.0140    1.5250 c3        1 166     -0.166700
      5 C5          4.7620   -1.2770    1.9540 c2        1 166      0.588200
      6 N6          4.8420   -2.2580    0.9440 nh        1 166     -0.897800
      7 N7          5.1930   -1.5180    3.1570 n2        1 166     -0.842100
      8 O8          0.4840   -1.7190   -0.9960 oh        1 166     -0.618100
      9 O8A         1.8910   -0.2870   -1.9160 o         1 166     -0.551000
     10 O9         -2.2410   -1.5120   -2.3340 oh        1 166     -0.596800
     11 C10        -1.4840    0.2440   -0.7850 c3        1 166     -0.050400
     12 C11        -3.2610    1.6300   -1.6200 ca        1 166     -0.075300
     13 C12        -2.4510    1.3520   -0.4940 ca        1 166     -0.086300
     14 C13        -1.7980   -0.1700   -2.2570 c3        1 166      0.143100
     15 C14        -2.9460    0.7280   -2.7600 c3        1 166     -0.037100
     16 C36        -2.6660    2.0220    0.7000 ca        1 166     -0.107000
     17 C37        -3.6530    3.0240    0.7640 cp        1 166     -0.033000
     18 C38        -4.4210    3.3180   -0.3680 ca        1 166     -0.115000
     19 C39        -4.2350    2.6150   -1.5620 ca        1 166     -0.118000
     20 C43        -3.8730    3.7480    2.0140 cp        1 166     -0.075000
     21 C44        -5.1730    4.0510    2.4410 ca        1 166     -0.082500
     22 C45        -5.3880    4.7390    3.6320 ca        1 166     -0.185000
     23 C6         -4.2880    5.1330    4.4060 ca        1 166      0.128100
     24 C7         -2.9770    4.8390    3.9930 ca        1 166     -0.185000
     25 C8         -2.7830    4.1490    2.8030 ca        1 166     -0.082500
     26 O54        -4.4190    5.8160    5.5920 oh        1 166     -0.496100
     27 C16        -0.0140    0.6350   -0.6440 c3        1 166     -0.093700
     28 C15         0.8700   -0.4320   -1.2380 c         1 166      0.636100
     29 H12        -0.1470    1.8100    1.1490 hc        1 166      0.059200
     30 H11         0.0240    0.0290    1.4420 hc        1 166      0.059200
     31 H22         2.0440    1.8790    1.7670 hc        1 166      0.051700
     32 H21         2.3360    1.4450    0.0380 hc        1 166      0.051700
     33 H32         2.1750   -0.5090    2.4410 hc        1 166      0.052200
     34 H31         2.3390   -1.0140    0.7130 hc        1 166      0.052200
     35 H42         4.4620    0.3540    0.5310 hc        1 166      0.055700
     36 H41         4.2970    0.8280    2.2620 hc        1 166      0.055700
     37 H62         5.4220   -3.0430    1.1510 hn        1 166      0.396800
     38 H61         1.1390   -2.3330   -1.3690 ho        1 166      0.448000
     39 HN7         4.9920   -0.7960    3.8150 hn        1 166      0.389400
     40 H10        -1.6930   -0.6290   -0.1050 hc        1 166      0.088700
     41 H13        -0.8880   -0.0430   -2.9060 h1        1 166      0.038700
     42 H142       -3.8340    0.1010   -3.0360 hc        1 166      0.073700
     43 H141       -2.6260    1.3020   -3.6650 hc        1 166      0.073700
     44 H36        -2.0970    1.7670    1.6060 ha        1 166      0.138000
     45 H38        -5.1840    4.1100   -0.3190 ha        1 166      0.136000
     46 H39        -4.8590    2.8380   -2.4400 ha        1 166      0.138000
     47 H44        -6.0350    3.7350    1.8330 ha        1 166      0.136500
     48 H45        -6.4100    4.9700    3.9620 ha        1 166      0.144000
     49 H7         -2.1280    5.1590    4.6130 ha        1 166      0.144000
     50 H8         -1.7580    3.9190    2.4700 ha        1 166      0.136500
     51 H54        -5.3630    5.9500    5.7570 ho        1 166      0.420000
     52 H16         0.1790    1.5750   -1.2370 hc        1 166      0.091700
     53 H63         5.0030   -1.8780    0.0380 hn        1 166      0.396800
     54 H9         -1.5470   -2.0580   -1.9380 ho        1 166      0.414000
@<TRIPOS>BOND
     1    1    2 1   
     2    1   27 1   
     3    1   29 1   
     4    1   30 1   
     5    2    3 1   
     6    2   31 1   
     7    2   32 1   
     8    3    4 1   
     9    3   33 1   
    10    3   34 1   
    11    4    5 1   
    12    4   35 1   
    13    4   36 1   
    14    5    6 1   
    15    5    7 2   
    16    6   37 1   
    17    6   53 1   
    18    7   39 1   
    19    8   28 1   
    20    8   38 1   
    21    9   28 2   
    22   10   14 1   
    23   10   54 1   
    24   11   13 1   
    25   11   14 1   
    26   11   27 1   
    27   11   40 1   
    28   12   13 ar  
    29   12   15 1   
    30   12   19 ar  
    31   13   16 ar  
    32   14   15 1   
    33   14   41 1   
    34   15   42 1   
    35   15   43 1   
    36   16   17 ar  
    37   16   44 1   
    38   17   18 ar  
    39   17   20 1   
    40   18   19 ar  
    41   18   45 1   
    42   19   46 1   
    43   20   21 ar  
    44   20   25 ar  
    45   21   22 ar  
    46   21   47 1   
    47   22   23 ar  
    48   22   48 1   
    49   23   24 ar  
    50   23   26 1   
    51   24   25 ar  
    52   24   49 1   
    53   25   50 1   
    54   26   51 1   
    55   27   28 1   
    56   27   52 1   
@<TRIPOS>SUBSTRUCTURE
     1 166         1 TEMP              0 ****  ****    0 ROOT
