@<TRIPOS>MOLECULE
166
   53    47     1     0     0
SMALL
bcc


@<TRIPOS>ATOM
      1 C1          0.8920   -1.5200   -0.1090 c3        1 166     -0.133000
      2 C2          2.2740   -2.0790   -0.2480 c3        1 166     -0.154000
      3 C3          2.2620   -3.5810    0.1410 c3        1 166     -0.154000
      4 C4          3.4450   -4.3000   -0.5350 c3        1 166     -0.187000
      5 C5          3.1960   -5.8100   -0.5160 c2        1 166      0.118000
      6 N6          2.3470   -6.4040   -1.4920 n3        1 166     -0.371000
      7 N7          3.7770   -6.5790    0.4280 n1        1 166     -0.396000
      8 O8          0.8640   -1.9610   -2.9730 o         1 166     -0.584000
      9 O8A         2.0640   -0.1230   -3.1220 o         1 166     -0.584000
     10 O9         -2.2030   -1.1510   -3.0150 oh        1 166     -0.366000
     11 C10        -0.8210   -0.1530   -1.3500 c3        1 166     -0.091000
     12 C11        -1.5860    2.0680   -1.8630 c1        1 166     -0.068000
     13 C12        -1.1680    1.2440   -0.7830 c1        1 166     -0.045000
     14 C13        -1.1780   -0.1640   -2.7740 c3        1 166      0.046000
     15 C14        -1.6870    1.1850   -3.1260 c3        1 166     -0.131000
     16 C36        -1.2140    1.7250    0.5170 c1        1 166     -0.112000
     17 C37        -1.6760    3.0320    0.7690 c1        1 166     -0.051000
     18 C38        -2.0910    3.8510   -0.2970 c1        1 166     -0.108500
     19 C39        -2.0450    3.3650   -1.6120 c1        1 166     -0.133000
     20 C43        -1.7330    3.5190    2.1020 c1        1 166     -0.051000
     21 C44        -0.7890    4.4620    2.5500 c1        1 166     -0.127000
     22 C45        -0.8330    4.9220    3.8750 c1        1 166     -0.127000
     23 C6         -1.8010    4.4490    4.7360 c1        1 166      0.064000
     24 C7         -2.7420    3.5070    4.2880 c1        1 166     -0.212000
     25 C8         -2.6980    3.0480    2.9640 c1        1 166     -0.108500
     26 O54        -1.8550    4.9270    6.0730 oh        1 166     -0.260000
     27 C16         0.6660   -0.4150   -1.1910 c3        1 166     -0.158000
     28 C15         1.2280   -0.8710   -2.4830 c2        1 166      0.328000
     29 H12         0.2470   -2.2270   -0.2320 hc        1 166      0.061500
     30 H11         0.7890   -1.1410    0.7590 hc        1 166      0.061500
     31 H22         2.5760   -1.9810   -1.1890 hc        1 166      0.075000
     32 H21         2.8960   -1.5860    0.3550 hc        1 166      0.075000
     33 H32         2.3450   -3.6710    1.1640 hc        1 166      0.090500
     34 H31         1.4090   -3.9930   -0.1600 hc        1 166      0.090500
     35 H42         4.2610   -4.1020   -0.0530 hc        1 166      0.107500
     36 H41         3.5300   -3.9950   -1.4590 hc        1 166      0.107500
     37 H62         2.1910   -5.9720   -2.2810 hn        1 166      0.232000
     38 H61         2.0600   -7.2460   -1.3770 hn        1 166      0.232000
     39 HN7         4.3420   -6.1840    1.0800 DU        1 166      0.115000
     40 H9         -2.1370   -1.4420   -3.8190 ho        1 166      0.254000
     41 H10        -1.3300   -0.8380   -0.8750 hc        1 166      0.126000
     42 H13        -0.4190   -0.3620   -3.2900 h1        1 166      0.100000
     43 H142       -1.1240    1.5700   -3.8370 hc        1 166      0.096500
     44 H141       -2.6350    1.1140   -3.3970 hc        1 166      0.096500
     45 H36        -0.8540    1.1870    1.2480 ha        1 166      0.140000
     46 H38        -2.3310    4.8000   -0.1270 ha        1 166      0.131500
     47 H39        -2.3360    3.9400   -2.3630 ha        1 166      0.123000
     48 H44        -0.1040    4.7980    1.9370 ha        1 166      0.139500
     49 H45        -0.1470    5.6080    4.2020 ha        1 166      0.139500
     50 H7         -3.4020    3.1840    4.8750 ha        1 166      0.129000
     51 H8         -3.3520    2.3440    2.6510 ha        1 166      0.131500
     52 H54        -2.4980    5.5700    6.1410 ho        1 166      0.212000
     53 H16         1.1250    0.4300   -0.9060 hc        1 166      0.089000
@<TRIPOS>BOND
     1    1    2 1   
     2    1   27 1   
     3    1   29 1   
     4    1   30 1   
     5    2    3 1   
     6    2   31 1   
     7    2   32 1   
     8    3    4 1   
     9    3   33 1   
    10    3   34 1   
    11    4    5 1   
    12    4   35 1   
    13    4   36 1   
    14    5    6 1   
    15    5    7 1   
    16    6   37 1   
    17    6   38 1   
    18    8   28 1   
    19    9   28 1   
    20   10   14 1   
    21   10   40 1   
    22   11   13 1   
    23   11   14 1   
    24   11   27 1   
    25   11   41 1   
    26   12   15 1   
    27   12   19 1   
    28   13   16 1   
    29   14   15 1   
    30   14   42 1   
    31   15   43 1   
    32   15   44 1   
    33   16   45 1   
    34   17   18 1   
    35   18   46 1   
    36   19   47 1   
    37   20   25 1   
    38   21   22 1   
    39   21   48 1   
    40   22   49 1   
    41   23   24 1   
    42   23   26 1   
    43   24   50 1   
    44   25   51 1   
    45   26   52 1   
    46   27   28 1   
    47   27   53 1   
@<TRIPOS>SUBSTRUCTURE
     1 166         1 TEMP              0 ****  ****    0 ROOT
