@<TRIPOS>MOLECULE
167
   56    50     1     0     0
SMALL
bcc


@<TRIPOS>ATOM
      1 C1         -0.7380    0.3510    2.6760 c3        1 167     -0.135000
      2 C2         -1.0700    1.3740    3.7180 c3        1 167     -0.169000
      3 C3         -1.9820    0.7170    4.8210 c3        1 167     -0.154000
      4 C4         -1.9860    1.6020    6.0770 c3        1 167     -0.177000
      5 C5         -2.7120    0.8640    7.2440 c2        1 167      0.081000
      6 N6         -1.9940    0.1230    8.1260 n3        1 167     -0.338000
      7 N7         -4.0340    0.9630    7.3770 n1        1 167     -0.337000
      8 O8          2.0440    2.5270    2.5910 o         1 167     -0.576000
      9 O8A         1.8520    0.6530    3.8860 o         1 167     -0.576000
     10 O9          3.1500   -1.4660    1.6780 oh        1 167     -0.370000
     11 C10         1.0990   -0.3760    1.1410 c3        1 167     -0.085000
     12 C11         1.6470   -0.1520   -1.1880 c1        1 167     -0.079000
     13 C12         0.5660   -0.3760   -0.3230 c1        1 167     -0.031000
     14 C13         2.5380   -0.2640    1.0960 c3        1 167      0.052000
     15 C14         2.9410   -0.1240   -0.3330 c3        1 167     -0.131000
     16 C36        -0.6880   -0.6270   -0.8390 c1        1 167     -0.131000
     17 C37        -0.8850   -0.6590   -2.2400 c1        1 167     -0.139000
     18 C38         0.1990   -0.4340   -3.1120 c1        1 167     -0.027500
     19 C39         1.4400   -0.1850   -2.6100 c1        1 167     -0.111000
     20 C43        -0.0190   -0.3800   -4.5030 c1        1 167     -0.027500
     21 C44         0.1670   -1.5150   -5.2840 c1        1 167     -0.150000
     22 C45         0.0120   -1.4410   -6.6540 c1        1 167      0.071000
     23 C24        -0.3310   -0.2210   -7.2520 c1        1 167     -0.158500
     24 C25        -0.5160    0.9170   -6.4620 c1        1 167     -0.158500
     25 C6         -0.3630    0.8420   -5.1070 c1        1 167     -0.139000
     26 C53         1.0430   -2.5930   -8.4360 c3        1 167     -0.073000
     27 O54         0.0460   -2.5950   -7.4120 os        1 167     -0.213000
     28 C16         0.5190    0.8010    1.8830 c3        1 167     -0.173000
     29 C15         1.5200    1.3340    2.8060 c2        1 167      0.333000
     30 H12        -1.5160    0.2540    2.0460 hc        1 167      0.067000
     31 H11        -0.5590   -0.5120    3.1110 hc        1 167      0.067000
     32 H22        -1.5540    2.1360    3.2950 hc        1 167      0.098500
     33 H21        -0.3000    1.6800    4.1010 hc        1 167      0.098500
     34 H32        -2.8300    0.6400    4.5030 hc        1 167      0.075000
     35 H31        -1.6360   -0.1680    5.0450 hc        1 167      0.075000
     36 H42        -1.0490    1.8010    6.3440 hc        1 167      0.101500
     37 H41        -2.4330    2.4010    5.8910 hc        1 167      0.101500
     38 H62        -2.3390   -0.6590    8.4500 hn        1 167      0.191000
     39 H61        -1.1460    0.3340    8.2930 hn        1 167      0.191000
     40 HN7        -4.5100    1.4540    6.7920 DU        1 167      0.138000
     41 H9          3.9070   -1.2570    2.0360 ho        1 167      0.257000
     42 H10         0.8580   -1.1620    1.5590 hc        1 167      0.114000
     43 H13         2.8130    0.4960    1.5800 h1        1 167      0.107000
     44 H142        3.5420   -0.9210   -0.5990 hc        1 167      0.095500
     45 H141        3.4150    0.7800   -0.4650 hc        1 167      0.095500
     46 H36        -1.4210   -0.8100   -0.2470 ha        1 167      0.138000
     47 H37        -1.7740   -0.7380   -2.5960 ha        1 167      0.129500
     48 H39         2.2370   -0.0690   -3.2520 ha        1 167      0.128000
     49 H44         0.4160   -2.4250   -4.8350 ha        1 167      0.154000
     50 H24        -0.4440   -0.1630   -8.2550 ha        1 167      0.126000
     51 H25        -0.7170    1.7360   -6.8620 ha        1 167      0.126000
     52 H6         -0.4990    1.6930   -4.5180 ha        1 167      0.129500
     53 H533        0.8030   -1.9220   -9.1370 h1        1 167      0.077667
     54 H532        1.9260   -2.3590   -8.0420 h1        1 167      0.077667
     55 H531        1.0880   -3.4290   -8.8150 h1        1 167      0.077667
     56 H16         0.2540    1.5270    1.2110 hc        1 167      0.089000
@<TRIPOS>BOND
     1    1    2 1   
     2    1   28 1   
     3    1   30 1   
     4    1   31 1   
     5    2    3 1   
     6    2   32 1   
     7    2   33 1   
     8    3    4 1   
     9    3   34 1   
    10    3   35 1   
    11    4    5 1   
    12    4   36 1   
    13    4   37 1   
    14    5    6 1   
    15    5    7 1   
    16    6   38 1   
    17    6   39 1   
    18    8   29 1   
    19    9   29 1   
    20   10   14 1   
    21   10   41 1   
    22   11   13 1   
    23   11   14 1   
    24   11   28 1   
    25   11   42 1   
    26   12   15 1   
    27   12   19 1   
    28   13   16 1   
    29   14   15 1   
    30   14   43 1   
    31   15   44 1   
    32   15   45 1   
    33   16   46 1   
    34   17   18 1   
    35   17   47 1   
    36   19   48 1   
    37   20   25 1   
    38   21   22 1   
    39   21   49 1   
    40   22   27 1   
    41   23   24 1   
    42   23   50 1   
    43   24   51 1   
    44   25   52 1   
    45   26   27 1   
    46   26   53 1   
    47   26   54 1   
    48   26   55 1   
    49   28   29 1   
    50   28   56 1   
@<TRIPOS>SUBSTRUCTURE
     1 167         1 TEMP              0 ****  ****    0 ROOT
