@<TRIPOS>MOLECULE
167
   56    58     1     0     0
SMALL
bcc


@<TRIPOS>ATOM
      1 C1         -0.3620    0.4170   -2.7990 c3        1 167     -0.057400
      2 C2         -1.3180   -0.4310   -3.6150 c3        1 167     -0.090400
      3 C3         -2.1490    0.4210   -4.5500 c3        1 167     -0.077400
      4 C4         -3.1130   -0.4330   -5.3480 c3        1 167     -0.125700
      5 C5         -3.6670    0.3560   -6.5340 c2        1 167      0.607200
      6 N6         -2.7840    0.4480   -7.6340 nh        1 167     -0.957800
      7 N7         -4.8830    0.8110   -6.4780 n2        1 167     -0.856100
      8 O8          2.4990    0.1450   -3.9130 o         1 167     -0.842800
      9 O8A         1.5980   -1.8920   -4.0080 o         1 167     -0.842800
     10 O9          3.9220    0.8090   -1.5530 oh        1 167     -0.643800
     11 C10         1.5500    0.3020   -1.1730 c3        1 167     -0.038400
     12 C11         2.0160   -0.2540    1.1230 ca        1 167     -0.087300
     13 C12         0.9940    0.1060    0.2070 ca        1 167     -0.038300
     14 C13         3.0320   -0.1700   -1.0570 c3        1 167      0.163100
     15 C14         3.3370   -0.3630    0.4440 c3        1 167     -0.045100
     16 C36        -0.3080    0.2520    0.6640 ca        1 167     -0.130000
     17 C37        -0.5930    0.0450    2.0180 ca        1 167     -0.120000
     18 C38         0.4140   -0.3100    2.9220 cp        1 167     -0.076000
     19 C39         1.7360   -0.4620    2.4620 ca        1 167     -0.112000
     20 C43         0.1010   -0.5290    4.3320 cp        1 167      0.022000
     21 C44        -0.8140    0.2990    4.9890 ca        1 167     -0.151000
     22 C45        -1.1050    0.0710    6.3450 ca        1 167      0.116100
     23 C24        -0.4940   -0.9700    7.0510 ca        1 167     -0.215000
     24 C25         0.4180   -1.7880    6.3820 ca        1 167     -0.102000
     25 C6          0.7160   -1.5760    5.0420 ca        1 167     -0.156000
     26 O54        -2.0250    0.9520    6.8930 os        1 167     -0.330900
     27 C16         0.7930   -0.4240   -2.2740 c3        1 167     -0.183700
     28 C15         1.7100   -0.7500   -3.4860 c         1 167      0.913600
     29 H12        -0.9180    0.9070   -1.9590 hc        1 167      0.027700
     30 H11         0.0630    1.2370   -3.4380 hc        1 167      0.027700
     31 H22        -0.7200   -1.1780   -4.2100 hc        1 167      0.058200
     32 H21        -1.9900   -1.0110   -2.9310 hc        1 167      0.058200
     33 H32        -2.7230    1.1870   -3.9640 hc        1 167      0.036700
     34 H31        -1.4600    0.9800   -5.2360 hc        1 167      0.036700
     35 H42        -2.5930   -1.3530   -5.7260 hc        1 167      0.066700
     36 H41        -3.9520   -0.7740   -4.6880 hc        1 167      0.066700
     37 H62        -2.9020    1.2310   -8.2340 hn        1 167      0.395300
     38 H61        -1.8320    0.2450   -7.4250 hn        1 167      0.395300
     39 HN7        -5.1980    1.3290   -7.2710 hn        1 167      0.365400
     40 H10         1.5590    1.4040   -1.4090 hc        1 167      0.074700
     41 H13         3.1740   -1.1350   -1.6160 h1        1 167      0.067700
     42 H142        3.8080   -1.3600    0.6250 hc        1 167      0.055200
     43 H141        4.0420    0.4290    0.8020 hc        1 167      0.055200
     44 H36        -1.1210    0.5180   -0.0260 ha        1 167      0.139000
     45 H37        -1.6280    0.1550    2.3730 ha        1 167      0.123000
     46 H39         2.5360   -0.7360    3.1640 ha        1 167      0.125000
     47 H44        -1.3050    1.1290    4.4610 ha        1 167      0.153000
     48 H24        -0.7180   -1.1510    8.1100 ha        1 167      0.128000
     49 H25         0.9030   -2.6120    6.9270 ha        1 167      0.124000
     50 H6          1.4300   -2.2330    4.5230 ha        1 167      0.140000
     51 H533       -3.0850    1.5570    8.4830 h1        1 167      0.038367
     52 H532       -2.7970   -0.2580    8.4210 h1        1 167      0.038367
     53 H531       -1.4320    0.8690    8.9020 h1        1 167      0.038367
     54 H16         0.3990   -1.3950   -1.8730 hc        1 167      0.049700
     55 C53        -2.3410    0.7500    8.2630 c3        1 167      0.116700
     56 H9          3.7410    0.8770   -2.5090 ho        1 167      0.458000
@<TRIPOS>BOND
     1    1    2 1   
     2    1   27 1   
     3    1   29 1   
     4    1   30 1   
     5    2    3 1   
     6    2   31 1   
     7    2   32 1   
     8    3    4 1   
     9    3   33 1   
    10    3   34 1   
    11    4    5 1   
    12    4   35 1   
    13    4   36 1   
    14    5    6 1   
    15    5    7 2   
    16    6   37 1   
    17    6   38 1   
    18    7   39 1   
    19    8   28 1   
    20    9   28 1   
    21   10   14 1   
    22   10   56 1   
    23   11   13 1   
    24   11   14 1   
    25   11   27 1   
    26   11   40 1   
    27   12   13 ar  
    28   12   15 1   
    29   12   19 ar  
    30   13   16 ar  
    31   14   15 1   
    32   14   41 1   
    33   15   42 1   
    34   15   43 1   
    35   16   17 ar  
    36   16   44 1   
    37   17   18 ar  
    38   17   45 1   
    39   18   19 ar  
    40   18   20 1   
    41   19   46 1   
    42   20   21 ar  
    43   20   25 ar  
    44   21   22 ar  
    45   21   47 1   
    46   22   23 ar  
    47   22   26 1   
    48   23   24 ar  
    49   23   48 1   
    50   24   25 ar  
    51   24   49 1   
    52   25   50 1   
    53   26   55 1   
    54   27   28 1   
    55   27   54 1   
    56   51   55 1   
    57   52   55 1   
    58   53   55 1   
@<TRIPOS>SUBSTRUCTURE
     1 167         1 TEMP              0 ****  ****    0 ROOT
