@<TRIPOS>MOLECULE
167
   57    58     1     0     0
SMALL
bcc


@<TRIPOS>ATOM
      1 C1         -1.5240   -0.5740   -0.0250 c3        1 167     -0.155000
      2 C2         -0.9850    0.3850    1.0160 c3        1 167     -0.159000
      3 C3         -2.0000    0.6110    2.1210 c3        1 167     -0.095000
      4 C4         -1.4590    1.5160    3.1610 c2        1 167     -0.260000
      5 C5         -2.0280    2.6540    3.4980 c1        1 167      0.014000
      6 N6         -0.7160    4.6220    1.6150 n3        1 167     -0.414000
      7 N7         -2.6340    3.6400    3.9260 n2        1 167     -0.188000
      8 O8          1.9230   -1.1130   -0.7660 os        1 167     -0.348000
      9 O8A         0.6280   -2.6820    0.0560 o         1 167     -0.286000
     10 O9          2.6720   -2.6380   -2.2450 oh        1 167     -0.366000
     11 C10        -1.1620   -1.5670   -2.2880 c3        1 167     -0.143000
     12 C11         0.7390   -0.9330   -3.7990 c2        1 167      0.026000
     13 C12        -0.1650   -2.0530   -3.3410 c3        1 167     -0.063000
     14 C13         2.5550   -1.2480   -2.0290 c3        1 167      0.221000
     15 C14         1.8940   -0.5950   -3.1980 c2        1 167     -0.220000
     16 C36        -0.9390   -2.6780   -4.4650 c2        1 167     -0.170000
     17 C37        -1.3910   -1.9910   -5.5240 c2        1 167     -0.133000
     18 C38        -1.1070   -0.5440   -5.6030 cy        1 167     -0.034000
     19 C39         0.2920   -0.2940   -5.0020 cv        1 167     -0.113000
     20 C43        -0.5420    0.1090   -6.9120 cy        1 167     -0.150000
     21 C44         0.7790    0.2710   -6.1350 cv        1 167     -0.112000
     22 C45         2.0400    0.5740   -6.8070 c3        1 167     -0.118000
     23 C24         1.9960    0.0650   -8.2110 c2        1 167     -0.034000
     24 C25         0.8960   -0.4630   -8.7950 c2        1 167     -0.262000
     25 C6         -0.3670   -0.6610   -8.1400 c1        1 167      0.008000
     26 O54         4.5080   -1.5280   -5.8530 o         1 167     -0.310000
     27 C16        -0.5060   -0.8360   -1.1260 c3        1 167     -0.125000
     28 C15         0.6450   -1.6430   -0.5950 c2        1 167      0.327000
     29 H12        -1.1320   -3.7550   -4.3510 ha        1 167      0.134000
     30 H11        -2.4530   -0.1470   -0.4870 hc        1 167      0.097500
     31 H22        -1.8010   -1.5460    0.4620 hc        1 167      0.097500
     32 H21        -0.0370   -0.0300    1.4510 hc        1 167      0.083000
     33 H32        -0.7300    1.3650    0.5350 hc        1 167      0.083000
     34 H31        -2.2590   -0.3750    2.5970 hc        1 167      0.086500
     35 H42        -2.9460    1.0240    1.6810 hc        1 167      0.086500
     36 H41        -0.5510    1.1820    3.6850 ha        1 167      0.154000
     37 H62        -0.6200    3.6270    1.5940 hn        1 167      0.138000
     38 H61        -1.0030    4.9430    0.7140 hn        1 167      0.138000
     39 HN7        -2.4490    4.5460    3.5460 hn        1 167      0.210000
     40 H10        -1.9030   -0.8750   -2.7700 hc        1 167      0.101500
     41 H13        -1.7250   -2.4560   -1.8990 hc        1 167      0.101500
     42 H142        3.5730   -0.7840   -1.8430 h2        1 167      0.116000
     43 H141        2.4840    0.2460   -3.6020 ha        1 167      0.141000
     44 H36         0.4890   -2.8480   -2.8730 hc        1 167      0.128000
     45 H37        -1.9510   -2.4480   -6.3520 ha        1 167      0.155000
     46 H39        -1.9330    0.0570   -5.1570 hc        1 167      0.115000
     47 H44        -1.0700    1.0650   -7.1620 hc        1 167      0.149000
     48 H24         2.2240    1.6850   -6.8310 hc        1 167      0.129500
     49 H25         2.9580    0.1250   -8.7490 ha        1 167      0.134000
     50 H6          0.9480   -0.8230   -9.8380 ha        1 167      0.149000
     51 H16        -0.0970    0.1490   -1.4960 hc        1 167      0.123000
     52 C53         4.2820   -2.5590   -5.2200 c2        1 167      0.138000
     53 H63         0.1650    5.0320    1.8400 hn        1 167      0.138000
     54 H9          2.9290   -3.0450   -1.4050 ho        1 167      0.236000
     55 H533        4.6700   -3.5450   -5.5530 h4        1 167      0.086000
     56 H532        2.9130    0.1060   -6.2660 hc        1 167      0.129500
     57 H531        3.6790   -2.5590   -4.2850 h4        1 167      0.086000
@<TRIPOS>BOND
     1    1    2 1   
     2    1   27 1   
     3    1   30 1   
     4    1   31 1   
     5    2    3 1   
     6    2   32 1   
     7    2   33 1   
     8    3    4 1   
     9    3   34 1   
    10    3   35 1   
    11    4    5 1   
    12    4   36 1   
    13    5    7 1   
    14    6   37 1   
    15    6   38 1   
    16    6   53 1   
    17    7   39 1   
    18    8   14 1   
    19    8   28 1   
    20    9   28 1   
    21   10   14 1   
    22   10   54 1   
    23   11   13 1   
    24   11   27 1   
    25   11   40 1   
    26   11   41 1   
    27   12   13 1   
    28   12   15 1   
    29   12   19 1   
    30   13   16 1   
    31   13   44 1   
    32   14   15 1   
    33   14   42 1   
    34   15   43 1   
    35   16   17 1   
    36   16   29 1   
    37   17   18 1   
    38   17   45 1   
    39   18   19 1   
    40   18   20 1   
    41   18   46 1   
    42   19   21 1   
    43   20   21 1   
    44   20   25 1   
    45   20   47 1   
    46   21   22 1   
    47   22   23 1   
    48   22   48 1   
    49   22   56 1   
    50   23   24 1   
    51   23   49 1   
    52   24   25 1   
    53   24   50 1   
    54   26   52 1   
    55   27   28 1   
    56   27   51 1   
    57   52   55 1   
    58   52   57 1   
@<TRIPOS>SUBSTRUCTURE
     1 167         1 TEMP              0 ****  ****    0 ROOT
