@<TRIPOS>MOLECULE
168
   59    58     1     0     0
SMALL
bcc


@<TRIPOS>ATOM
      1 C2         -4.7820  -10.7830    0.5200 c3        1 168     -0.150100
      2 C1         -4.9670   -9.3350    1.0020 c         1 168      0.635100
      3 O1         -5.9360   -9.0390    1.6780 o         1 168     -0.541000
      4 OP1        -3.9720   -8.3470    0.7050 os        1 168     -0.442900
      5 CP2        -4.2560   -7.0450    1.2670 c3        1 168      0.112400
      6 CP3        -3.2050   -6.0210    0.7600 c3        1 168      0.085000
      7 NP4        -3.4200   -4.7440    1.4150 n         1 168     -0.571900
      8 CP5        -2.3090   -3.8400    1.6220 c         1 168      0.660100
      9 OP5        -1.2460   -4.2700    2.0110 o         1 168     -0.615100
     10 CP6        -2.5220   -2.3220    1.4990 c3        1 168     -0.186400
     11 CP7        -1.1640   -1.6050    1.5880 c3        1 168      0.099000
     12 NP8        -1.2850   -0.2690    1.0430 n         1 168     -0.538900
     13 CP9        -0.1060    0.5680    0.9050 c         1 168      0.663100
     14 OP9         0.8270    0.4260    1.6580 o         1 168     -0.618100
     15 CPA        -0.0390    1.6190   -0.2100 c3        1 168      0.074100
     16 OPA         0.1910    0.9950   -1.4150 oh        1 168     -0.598800
     17 CPB         1.0960    2.5990    0.0790 c3        1 168     -0.077000
     18 CPD         0.7540    3.4250    1.3090 c3        1 168     -0.092100
     19 CPE         2.3750    1.8300    0.3260 c3        1 168     -0.092100
     20 CPC         1.2860    3.5380   -1.1320 c3        1 168      0.136400
     21 OA6         2.4660    4.3510   -0.9320 os        1 168     -0.434900
     22 CT1         2.7930    5.1780   -2.0460 c         1 168      0.635100
     23 OT1         2.1070    5.1420   -3.0540 o         1 168     -0.541000
     24 CT2         4.0160    6.1170   -1.9780 c3        1 168     -0.087000
     25 CT3         4.3440    6.6320   -3.3830 c3        1 168     -0.089767
     26 CT4         3.7010    7.2990   -1.0640 c3        1 168     -0.089767
     27 CT5         5.2300    5.3410   -1.4180 c3        1 168     -0.089767
     28 H21        -4.7090  -11.3850    1.3040 hc        1 168      0.077700
     29 H22        -3.9650  -10.8490   -0.0200 hc        1 168      0.077700
     30 H23        -5.5610  -11.0500   -0.0290 hc        1 168      0.077700
     31 HP21       -4.2180   -7.0960    2.2400 h1        1 168      0.055700
     32 HP22       -5.1540   -6.7570    0.9900 h1        1 168      0.055700
     33 HP31       -3.2970   -5.9110   -0.2070 h1        1 168      0.075700
     34 HP32       -2.3020   -6.3480    0.9670 h1        1 168      0.075700
     35 HP4        -4.2540   -4.5020    1.6740 hn        1 168      0.309500
     36 HP61       -2.9390   -2.1200    0.6450 hc        1 168      0.075700
     37 HP62       -3.1000   -2.0150    2.2240 hc        1 168      0.075700
     38 HP71       -0.4970   -2.1060    1.0780 h1        1 168      0.071700
     39 HP72       -0.8860   -1.5510    2.5240 h1        1 168      0.071700
     40 HP8        -2.1020    0.0390    0.7630 hn        1 168      0.341500
     41 HPA        -0.8870    2.1040   -0.2510 h1        1 168      0.069700
     42 HPA0       -0.5910    0.7600   -1.7840 ho        1 168      0.414000
     43 HPD1        0.6090    2.8260    2.0760 hc        1 168      0.049367
     44 HPD2       -0.0690    3.9470    1.1380 hc        1 168      0.049367
     45 HPD3        1.4970    4.0390    1.5080 hc        1 168      0.049367
     46 HPE1        2.3410    0.9820   -0.1530 hc        1 168      0.049367
     47 HPE2        2.4730    1.6610    1.2780 hc        1 168      0.049367
     48 HPE3        3.1380    2.3540    0.0060 hc        1 168      0.049367
     49 HPC1        1.3930    3.0020   -1.9470 h1        1 168      0.050200
     50 HPC2        0.5010    4.1190   -1.2230 h1        1 168      0.050200
     51 HT31        3.5880    7.1590   -3.7230 hc        1 168      0.048256
     52 HT32        4.5080    5.8750   -3.9770 hc        1 168      0.048256
     53 HT33        5.1460    7.1970   -3.3450 hc        1 168      0.048256
     54 HT41        2.8670    7.7290   -1.3600 hc        1 168      0.048256
     55 HT42        4.4360    7.9490   -1.1050 hc        1 168      0.048256
     56 HT43        3.5960    6.9820   -0.1470 hc        1 168      0.048256
     57 HT51        5.3390    4.4970   -1.9170 hc        1 168      0.048256
     58 HT52        6.0430    5.8870   -1.5160 hc        1 168      0.048256
     59 HT53        5.0820    5.1420   -0.4690 hc        1 168      0.048256
@<TRIPOS>BOND
     1    1    2 1   
     2    1   28 1   
     3    1   29 1   
     4    1   30 1   
     5    2    3 2   
     6    2    4 1   
     7    4    5 1   
     8    5    6 1   
     9    5   31 1   
    10    5   32 1   
    11    6    7 1   
    12    6   33 1   
    13    6   34 1   
    14    7    8 1   
    15    7   35 1   
    16    8    9 2   
    17    8   10 1   
    18   10   11 1   
    19   10   36 1   
    20   10   37 1   
    21   11   12 1   
    22   11   38 1   
    23   11   39 1   
    24   12   13 1   
    25   12   40 1   
    26   13   14 2   
    27   13   15 1   
    28   15   16 1   
    29   15   17 1   
    30   15   41 1   
    31   16   42 1   
    32   17   18 1   
    33   17   19 1   
    34   17   20 1   
    35   18   43 1   
    36   18   44 1   
    37   18   45 1   
    38   19   46 1   
    39   19   47 1   
    40   19   48 1   
    41   20   21 1   
    42   20   49 1   
    43   20   50 1   
    44   21   22 1   
    45   22   23 2   
    46   22   24 1   
    47   24   25 1   
    48   24   26 1   
    49   24   27 1   
    50   25   51 1   
    51   25   52 1   
    52   25   53 1   
    53   26   54 1   
    54   26   55 1   
    55   26   56 1   
    56   27   57 1   
    57   27   58 1   
    58   27   59 1   
@<TRIPOS>SUBSTRUCTURE
     1 168         1 TEMP              0 ****  ****    0 ROOT
