@<TRIPOS>MOLECULE
168
   61    60     1     0     0
SMALL
bcc


@<TRIPOS>ATOM
      1 C2          0.2060    0.1370   -1.2340 c3        1 168     -0.164100
      2 C1          1.5270    0.3510   -1.8680 c         1 168      0.689100
      3 O1          1.8180    0.8430   -2.9670 o         1 168     -0.637000
      4 OP1         2.5990    0.0450   -1.0540 os        1 168     -0.452900
      5 CP2         3.7980   -0.4860   -1.5980 c3        1 168      0.122400
      6 CP3         4.4560    0.3480   -2.7010 c3        1 168      0.077800
      7 NP4         4.4220    1.8210   -2.4330 n4        1 168     -0.662800
      8 CP5         4.7080    2.6070   -3.6850 c         1 168      0.547100
      9 OP5         5.8720    2.9100   -3.8900 o         1 168     -0.381100
     10 CP6         3.5180    2.9530   -4.5400 c3        1 168     -0.188400
     11 CP7         4.0080    3.3650   -5.9290 c3        1 168      0.095800
     12 NP8         2.9220    3.8170   -6.8350 n4        1 168     -0.695800
     13 CP9         3.4060    3.9090   -8.3000 c         1 168      0.510100
     14 OP9         4.0150    2.9380   -8.6960 o         1 168     -0.371100
     15 CPA         3.0190    5.1850   -9.0750 c3        1 168      0.118100
     16 OPA         3.3330    4.9140  -10.4130 oh        1 168     -0.524800
     17 CPB         3.8650    6.4040   -8.6210 c3        1 168     -0.055000
     18 CPD         3.4120    6.9060   -7.2620 c3        1 168     -0.111100
     19 CPE         5.3400    6.0470   -8.6010 c3        1 168     -0.111100
     20 CPC         3.6140    7.5020   -9.6770 c3        1 168      0.148400
     21 OA6         4.3680    8.6450   -9.2690 os        1 168     -0.466900
     22 CT1         4.2520    9.7660  -10.0760 c         1 168      0.642100
     23 OT1         3.4780    9.6760  -11.0250 o         1 168     -0.508000
     24 CT2         5.1190   10.9200   -9.6210 c3        1 168     -0.080000
     25 CT3         4.9160   12.0850  -10.5800 c3        1 168     -0.092767
     26 CT4         4.7040   11.3260   -8.2140 c3        1 168     -0.092767
     27 CT5         6.5760   10.4810   -9.6350 c3        1 168     -0.092767
     28 H21         0.2800    0.2210   -0.1200 hc        1 168      0.111700
     29 H22        -0.5310    0.8810   -1.6270 hc        1 168      0.111700
     30 H23        -0.1480   -0.8980   -1.4870 hc        1 168      0.111700
     31 HP21        4.4640   -0.5750   -0.6920 h1        1 168      0.117700
     32 HP22        3.5970   -1.5080   -2.0260 h1        1 168      0.117700
     33 HP31        3.9150    0.1660   -3.6760 hx        1 168      0.123700
     34 HP32        5.5340    0.0310   -2.8080 hx        1 168      0.123700
     35 HP4         5.1190    2.0530   -1.7100 hn        1 168      0.478800
     36 HP61        2.8090    2.0750   -4.6020 hc        1 168      0.132200
     37 HP62        2.9660    3.7970   -4.0360 hc        1 168      0.132200
     38 HP71        4.5280    2.4860   -6.4210 hx        1 168      0.137200
     39 HP72        4.7630    4.2050   -5.8420 hx        1 168      0.137200
     40 HP8         2.5790    4.7400   -6.5400 hn        1 168      0.459300
     41 HPA         1.9210    5.3810   -8.9180 h1        1 168      0.086700
     42 HPA0        2.5670    4.5000  -10.8410 ho        1 168      0.445000
     43 HPD1        2.3010    6.8790   -7.1600 hc        1 168      0.056700
     44 HPD2        3.8900    6.3340   -6.4300 hc        1 168      0.056700
     45 HPD3        3.7370    7.9760   -7.1500 hc        1 168      0.056700
     46 HPE1        5.9410    6.9670   -8.3890 hc        1 168      0.056700
     47 HPE2        5.6530    5.6410   -9.5950 hc        1 168      0.056700
     48 HPE3        5.5500    5.2830   -7.8130 hc        1 168      0.056700
     49 HPC1        3.9640    7.1680  -10.6890 h1        1 168      0.075700
     50 HPC2        2.5250    7.7690   -9.7180 h1        1 168      0.075700
     51 HT31        3.8450   12.4010  -10.5890 hc        1 168      0.053256
     52 HT32        5.5480   12.9470  -10.2580 hc        1 168      0.053256
     53 HT33        5.2050   11.7890  -11.6180 hc        1 168      0.053256
     54 HT41        3.6450   11.6780   -8.2040 hc        1 168      0.053256
     55 HT42        5.3590   12.1580   -7.8580 hc        1 168      0.053256
     56 HT43        4.8060   10.4610   -7.5150 hc        1 168      0.053256
     57 HT51        7.2220   11.3210   -9.2820 hc        1 168      0.053256
     58 HT52        6.7230    9.6030   -8.9610 hc        1 168      0.053256
     59 HT53        6.8900   10.2010  -10.6690 hc        1 168      0.053256
     60 HP42        3.4810    2.0600   -2.0840 hn        1 168      0.478800
     61 HP82        2.1410    3.1520   -6.7960 hn        1 168      0.459300
@<TRIPOS>BOND
     1    1    2 1   
     2    1   28 1   
     3    1   29 1   
     4    1   30 1   
     5    2    3 2   
     6    2    4 1   
     7    4    5 1   
     8    5    6 1   
     9    5   31 1   
    10    5   32 1   
    11    6    7 1   
    12    6   33 1   
    13    6   34 1   
    14    7    8 1   
    15    7   35 1   
    16    7   60 1   
    17    8    9 2   
    18    8   10 1   
    19   10   11 1   
    20   10   36 1   
    21   10   37 1   
    22   11   12 1   
    23   11   38 1   
    24   11   39 1   
    25   12   13 1   
    26   12   40 1   
    27   12   61 1   
    28   13   14 2   
    29   13   15 1   
    30   15   16 1   
    31   15   17 1   
    32   15   41 1   
    33   16   42 1   
    34   17   18 1   
    35   17   19 1   
    36   17   20 1   
    37   18   43 1   
    38   18   44 1   
    39   18   45 1   
    40   19   46 1   
    41   19   47 1   
    42   19   48 1   
    43   20   21 1   
    44   20   49 1   
    45   20   50 1   
    46   21   22 1   
    47   22   23 2   
    48   22   24 1   
    49   24   25 1   
    50   24   26 1   
    51   24   27 1   
    52   25   51 1   
    53   25   52 1   
    54   25   53 1   
    55   26   54 1   
    56   26   55 1   
    57   26   56 1   
    58   27   57 1   
    59   27   58 1   
    60   27   59 1   
@<TRIPOS>SUBSTRUCTURE
     1 168         1 TEMP              0 ****  ****    0 ROOT
