@<TRIPOS>MOLECULE
168
   61    60     1     0     0
SMALL
bcc


@<TRIPOS>ATOM
      1 C2          0.1930    0.1440   -1.2280 c3        1 168     -0.164100
      2 C1          1.5110    0.3530   -1.8680 c         1 168      0.689100
      3 O1          1.8000    0.8480   -2.9670 o         1 168     -0.637000
      4 OP1         2.5860    0.0370   -1.0620 os        1 168     -0.452900
      5 CP2         3.7790   -0.4990   -1.6150 c3        1 168      0.122400
      6 CP3         4.4360    0.3360   -2.7180 c3        1 168      0.077800
      7 NP4         4.4130    1.8070   -2.4440 ny        1 168     -0.662800
      8 CP5         4.6970    2.5960   -3.6940 c         1 168      0.547100
      9 OP5         5.8620    2.8930   -3.9030 o         1 168     -0.381100
     10 CP6         3.5040    2.9540   -4.5400 c3        1 168     -0.188400
     11 CP7         3.9900    3.3660   -5.9310 c3        1 168      0.095800
     12 NP8         2.9020    3.8310   -6.8290 ny        1 168     -0.695800
     13 CP9         3.3770    3.9210   -8.2970 c         1 168      0.510100
     14 OP9         3.9730    2.9440   -8.6990 o         1 168     -0.371100
     15 CPA         2.9980    5.2020   -9.0670 c3        1 168      0.118100
     16 OPA         3.3000    4.9300  -10.4080 oh        1 168     -0.524800
     17 CPB         3.8590    6.4110   -8.6170 c3        1 168     -0.055000
     18 CPD         3.4200    6.9150   -7.2540 c3        1 168     -0.111100
     19 CPE         5.3300    6.0390   -8.6060 c3        1 168     -0.111100
     20 CPC         3.6130    7.5140   -9.6680 c3        1 168      0.148400
     21 OA6         4.3820    8.6480   -9.2640 os        1 168     -0.466900
     22 CT1         4.2750    9.7710  -10.0700 c         1 168      0.642100
     23 OT1         3.4950    9.6900  -11.0150 o         1 168     -0.508000
     24 CT2         5.1560   10.9150   -9.6180 c3        1 168     -0.080000
     25 CT3         4.9630   12.0820  -10.5760 c3        1 168     -0.092767
     26 CT4         4.7530   11.3250   -8.2090 c3        1 168     -0.092767
     27 CT5         6.6090   10.4600   -9.6390 c3        1 168     -0.092767
     28 H21        -0.5420    0.8940   -1.6140 hc        1 168      0.111700
     29 H22        -0.1690   -0.8870   -1.4840 hc        1 168      0.111700
     30 H23         0.2730    0.2220   -0.1140 hc        1 168      0.111700
     31 HP21        3.5700   -1.5180   -2.0450 h1        1 168      0.117700
     32 HP22        4.4490   -0.5970   -0.7130 h1        1 168      0.117700
     33 HP31        5.5110    0.0120   -2.8330 hx        1 168      0.123700
     34 HP32        3.8880    0.1600   -3.6900 hx        1 168      0.123700
     35 HP4         3.4740    2.0500   -2.0880 hn        1 168      0.478800
     36 HP61        2.7880    2.0830   -4.6010 hc        1 168      0.132200
     37 HP62        2.9630    3.8020   -4.0310 hc        1 168      0.132200
     38 HP71        4.4980    2.4840   -6.4290 hx        1 168      0.137200
     39 HP72        4.7530    4.1990   -5.8470 hx        1 168      0.137200
     40 HP8         2.5700    4.7570   -6.5310 hn        1 168      0.459300
     41 HPA         1.9030    5.4090   -8.9030 h1        1 168      0.086700
     42 HPA0        2.5280    4.5250  -10.8310 ho        1 168      0.445000
     43 HPD1        2.3090    6.8990   -7.1450 hc        1 168      0.056700
     44 HPD2        3.8980    6.3380   -6.4250 hc        1 168      0.056700
     45 HPD3        3.7570    7.9820   -7.1420 hc        1 168      0.056700
     46 HPE1        5.6330    5.6320   -9.6030 hc        1 168      0.056700
     47 HPE2        5.5380    5.2710   -7.8210 hc        1 168      0.056700
     48 HPE3        5.9430    6.9520   -8.3960 hc        1 168      0.056700
     49 HPC1        2.5270    7.7920   -9.7020 h1        1 168      0.075200
     50 HPC2        3.9530    7.1780  -10.6840 h1        1 168      0.075200
     51 HT31        5.2430   11.7840  -11.6150 hc        1 168      0.053256
     52 HT32        5.6060   12.9370  -10.2560 hc        1 168      0.053256
     53 HT33        3.8950   12.4100  -10.5790 hc        1 168      0.053256
     54 HT41        4.8480   10.4580   -7.5110 hc        1 168      0.053256
     55 HT42        5.4180   12.1490   -7.8560 hc        1 168      0.053256
     56 HT43        3.6970   11.6890   -8.1940 hc        1 168      0.053256
     57 HT51        7.2650   11.2920   -9.2880 hc        1 168      0.053256
     58 HT52        6.9150   10.1770  -10.6750 hc        1 168      0.053256
     59 HT53        6.7490    9.5790   -8.9660 hc        1 168      0.053256
     60 HP42        5.1150    2.0310   -1.7230 hn        1 168      0.478800
     61 HP82        2.1150    3.1730   -6.7860 hn        1 168      0.459300
@<TRIPOS>BOND
     1    1    2 1   
     2    1   28 1   
     3    1   29 1   
     4    1   30 1   
     5    2    3 2   
     6    2    4 1   
     7    4    5 1   
     8    5    6 1   
     9    5   31 1   
    10    5   32 1   
    11    6    7 1   
    12    6   33 1   
    13    6   34 1   
    14    7    8 1   
    15    7   35 1   
    16    7   60 1   
    17    8    9 2   
    18    8   10 1   
    19   10   11 1   
    20   10   36 1   
    21   10   37 1   
    22   11   12 1   
    23   11   38 1   
    24   11   39 1   
    25   12   13 1   
    26   12   40 1   
    27   12   61 1   
    28   13   14 2   
    29   13   15 1   
    30   15   16 1   
    31   15   17 1   
    32   15   41 1   
    33   16   42 1   
    34   17   18 1   
    35   17   19 1   
    36   17   20 1   
    37   18   43 1   
    38   18   44 1   
    39   18   45 1   
    40   19   46 1   
    41   19   47 1   
    42   19   48 1   
    43   20   21 1   
    44   20   49 1   
    45   20   50 1   
    46   21   22 1   
    47   22   23 2   
    48   22   24 1   
    49   24   25 1   
    50   24   26 1   
    51   24   27 1   
    52   25   51 1   
    53   25   52 1   
    54   25   53 1   
    55   26   54 1   
    56   26   55 1   
    57   26   56 1   
    58   27   57 1   
    59   27   58 1   
    60   27   59 1   
@<TRIPOS>SUBSTRUCTURE
     1 168         1 TEMP              0 ****  ****    0 ROOT
