@<TRIPOS>MOLECULE
168
   59    58     1     0     0
SMALL
bcc


@<TRIPOS>ATOM
      1 C2          1.1370    2.4240    8.4080 c3        1 168     -0.150100
      2 C1          1.2780    0.9560    8.2110 c         1 168      0.632100
      3 O1          2.0130    0.1640    8.8030 o         1 168     -0.537000
      4 OP1         0.4590    0.4650    7.2280 os        1 168     -0.456900
      5 CP2         0.5210   -0.9490    6.9830 c3        1 168      0.108400
      6 CP3        -0.5960   -1.2660    5.9820 c3        1 168      0.085000
      7 NP4        -0.4330   -0.6660    4.6900 n         1 168     -0.564900
      8 CP5        -0.0840   -1.3970    3.5700 c         1 168      0.658100
      9 OP5        -0.0100   -2.6410    3.6030 o         1 168     -0.599100
     10 CP6         0.1860   -0.6360    2.2850 c3        1 168     -0.184400
     11 CP7        -1.0110    0.2270    1.8810 c3        1 168      0.088000
     12 NP8        -0.8830    0.8170    0.5770 n         1 168     -0.558900
     13 CP9        -1.7180    0.4860   -0.4700 c         1 168      0.630100
     14 OP9        -2.7280   -0.2280   -0.3150 o         1 168     -0.603100
     15 CPA        -1.4230    1.0960   -1.8510 c3        1 168      0.084100
     16 OPA        -2.6470    1.3720   -2.4970 oh        1 168     -0.582800
     17 CPB        -0.5300    0.1590   -2.6940 c3        1 168     -0.078000
     18 CPD         0.7630   -0.1440   -1.9580 c3        1 168     -0.096100
     19 CPE        -1.2600   -1.1340   -3.0170 c3        1 168     -0.096100
     20 CPC        -0.2140    0.9160   -3.9930 c3        1 168      0.143400
     21 OA6         0.5310    0.0190   -4.8320 os        1 168     -0.442900
     22 CT1         0.9880    0.5290   -6.0180 c         1 168      0.634100
     23 OT1         0.7480    1.7100   -6.2720 o         1 168     -0.537000
     24 CT2         1.7500   -0.4850   -6.8470 c3        1 168     -0.088000
     25 CT3         2.1660    0.1640   -8.1580 c3        1 168     -0.089100
     26 CT4         2.9810   -0.9280   -6.0690 c3        1 168     -0.089100
     27 CT5         0.8480   -1.6810   -7.1200 c3        1 168     -0.089100
     28 H21         2.1270    2.9100    8.2210 hc        1 168      0.077033
     29 H22         0.3750    2.8520    7.7150 hc        1 168      0.077033
     30 H23         0.8300    2.6180    9.4650 hc        1 168      0.077033
     31 HP21        1.5400   -1.2020    6.5910 h1        1 168      0.064200
     32 HP22        0.3450   -1.5000    7.9430 h1        1 168      0.064200
     33 HP31       -0.6410   -2.3880    5.8700 h1        1 168      0.076700
     34 HP32       -1.5720   -0.9020    6.4140 h1        1 168      0.076700
     35 HP4        -0.3430    0.3220    4.6700 hn        1 168      0.313500
     36 HP61        1.1020   -0.0040    2.4200 hc        1 168      0.074700
     37 HP62        0.4070   -1.3980    1.4890 hc        1 168      0.074700
     38 HP71       -1.9490   -0.4010    1.9080 h1        1 168      0.071700
     39 HP72       -1.1300    1.0670    2.6250 h1        1 168      0.071700
     40 HP8        -0.0280    1.2770    0.3700 hn        1 168      0.308500
     41 HPA        -0.9280    2.1040   -1.7550 h1        1 168      0.087700
     42 HPA0       -3.2070    0.5830   -2.4230 ho        1 168      0.429000
     43 HPD1        1.2330    0.7960   -1.5820 hc        1 168      0.047033
     44 HPD2        0.5770   -0.8310   -1.0970 hc        1 168      0.047033
     45 HPD3        1.4790   -0.6430   -2.6570 hc        1 168      0.047033
     46 HPE1       -2.1390   -0.9270   -3.6760 hc        1 168      0.047033
     47 HPE2       -0.5730   -1.8300   -3.5570 hc        1 168      0.047033
     48 HPE3       -1.6210   -1.6230   -2.0800 hc        1 168      0.047033
     49 HPC1       -1.1580    1.2120   -4.5210 h1        1 168      0.062700
     50 HPC2        0.4070    1.8270   -3.7880 h1        1 168      0.062700
     51 HT31        2.7380   -0.5700   -8.7750 hc        1 168      0.047811
     52 HT32        1.2660    0.4980   -8.7270 hc        1 168      0.047811
     53 HT33        2.8080    1.0560   -7.9620 hc        1 168      0.047811
     54 HT41        3.6630   -0.0620   -5.8930 hc        1 168      0.047811
     55 HT42        2.6790   -1.3570   -5.0830 hc        1 168      0.047811
     56 HT43        3.5330   -1.7060   -6.6500 hc        1 168      0.047811
     57 HT51       -0.0500   -1.3660   -7.7020 hc        1 168      0.047811
     58 HT52        1.4070   -2.4470   -7.7080 hc        1 168      0.047811
     59 HT53        0.5120   -2.1360   -6.1570 hc        1 168      0.047811
@<TRIPOS>BOND
     1    1    2 1   
     2    1   28 1   
     3    1   29 1   
     4    1   30 1   
     5    2    3 2   
     6    2    4 1   
     7    4    5 1   
     8    5    6 1   
     9    5   31 1   
    10    5   32 1   
    11    6    7 1   
    12    6   33 1   
    13    6   34 1   
    14    7    8 1   
    15    7   35 1   
    16    8    9 2   
    17    8   10 1   
    18   10   11 1   
    19   10   36 1   
    20   10   37 1   
    21   11   12 1   
    22   11   38 1   
    23   11   39 1   
    24   12   13 1   
    25   12   40 1   
    26   13   14 2   
    27   13   15 1   
    28   15   16 1   
    29   15   17 1   
    30   15   41 1   
    31   16   42 1   
    32   17   18 1   
    33   17   19 1   
    34   17   20 1   
    35   18   43 1   
    36   18   44 1   
    37   18   45 1   
    38   19   46 1   
    39   19   47 1   
    40   19   48 1   
    41   20   21 1   
    42   20   49 1   
    43   20   50 1   
    44   21   22 1   
    45   22   23 2   
    46   22   24 1   
    47   24   25 1   
    48   24   26 1   
    49   24   27 1   
    50   25   51 1   
    51   25   52 1   
    52   25   53 1   
    53   26   54 1   
    54   26   55 1   
    55   26   56 1   
    56   27   57 1   
    57   27   58 1   
    58   27   59 1   
@<TRIPOS>SUBSTRUCTURE
     1 168         1 TEMP              0 ****  ****    0 ROOT
