@<TRIPOS>MOLECULE
168
   61    60     1     0     0
SMALL
bcc


@<TRIPOS>ATOM
      1 C2          0.2210    0.1450   -1.2230 c3        1 168     -0.164100
      2 C1          1.5390    0.3540   -1.8630 c         1 168      0.689100
      3 O1          1.8270    0.8460   -2.9640 o         1 168     -0.637000
      4 OP1         2.6140    0.0430   -1.0570 os        1 168     -0.452900
      5 CP2         3.8080   -0.4930   -1.6080 c3        1 168      0.122400
      6 CP3         4.4630    0.3410   -2.7130 c3        1 168      0.077800
      7 NP4         4.4380    1.8130   -2.4430 n4        1 168     -0.662800
      8 CP5         4.7190    2.5990   -3.6950 c         1 168      0.547100
      9 OP5         5.8830    2.9000   -3.9060 o         1 168     -0.381100
     10 CP6         3.5250    2.9500   -4.5430 c3        1 168     -0.188400
     11 CP7         4.0100    3.3640   -5.9340 c3        1 168      0.095800
     12 NP8         2.9200    3.8190   -6.8340 n4        1 168     -0.695800
     13 CP9         3.3970    3.9130   -8.3010 c         1 168      0.510100
     14 OP9         4.0050    2.9430   -8.7020 o         1 168     -0.371100
     15 CPA         3.0080    5.1910   -9.0720 c3        1 168      0.118100
     16 OPA         3.3150    4.9220  -10.4120 oh        1 168     -0.524800
     17 CPB         3.8570    6.4080   -8.6200 c3        1 168     -0.055000
     18 CPD         3.4110    6.9080   -7.2580 c3        1 168     -0.111100
     19 CPE         5.3310    6.0510   -8.6080 c3        1 168     -0.111100
     20 CPC         3.6010    7.5090   -9.6720 c3        1 168      0.148400
     21 OA6         4.3590    8.6510   -9.2660 os        1 168     -0.466900
     22 CT1         4.2410    9.7730  -10.0710 c         1 168      0.642100
     23 OT1         3.4630    9.6850  -11.0170 o         1 168     -0.508000
     24 CT2         5.1100   10.9250   -9.6180 c3        1 168     -0.080000
     25 CT3         4.9050   12.0920  -10.5750 c3        1 168     -0.092767
     26 CT4         4.7010   11.3300   -8.2090 c3        1 168     -0.092767
     27 CT5         6.5670   10.4850   -9.6370 c3        1 168     -0.092767
     28 H21        -0.5150    0.8930   -1.6110 hc        1 168      0.111700
     29 H22         0.3010    0.2280   -0.1090 hc        1 168      0.111700
     30 H23        -0.1390   -0.8880   -1.4750 hc        1 168      0.111700
     31 HP21        4.4790   -0.5860   -0.7050 h1        1 168      0.117700
     32 HP22        3.6010   -1.5130   -2.0350 h1        1 168      0.117700
     33 HP31        5.5400    0.0190   -2.8270 hx        1 168      0.123700
     34 HP32        3.9170    0.1610   -3.6850 hx        1 168      0.123700
     35 HP4         5.1390    2.0410   -1.7240 hn        1 168      0.478800
     36 HP61        2.8140    2.0750   -4.6040 hc        1 168      0.132200
     37 HP62        2.9790    3.7950   -4.0350 hc        1 168      0.132200
     38 HP71        4.5260    2.4850   -6.4300 hx        1 168      0.137200
     39 HP72        4.7670    4.2020   -5.8500 hx        1 168      0.137200
     40 HP8         2.1390    3.1550   -6.7930 hn        1 168      0.459300
     41 HPA         1.9110    5.3870   -8.9100 h1        1 168      0.086700
     42 HPA0        2.5470    4.5090  -10.8370 ho        1 168      0.445000
     43 HPD1        2.3000    6.8820   -7.1500 hc        1 168      0.056700
     44 HPD2        3.7380    7.9780   -7.1450 hc        1 168      0.056700
     45 HPD3        3.8930    6.3340   -6.4290 hc        1 168      0.056700
     46 HPE1        5.9350    6.9700   -8.3970 hc        1 168      0.056700
     47 HPE2        5.6400    5.6460   -9.6040 hc        1 168      0.056700
     48 HPE3        5.5450    5.2850   -7.8220 hc        1 168      0.056700
     49 HPC1        3.9460    7.1760  -10.6870 h1        1 168      0.075200
     50 HPC2        2.5130    7.7770   -9.7070 h1        1 168      0.075200
     51 HT31        5.1900   11.7970  -11.6140 hc        1 168      0.053256
     52 HT32        5.5390   12.9530  -10.2540 hc        1 168      0.053256
     53 HT33        3.8340   12.4090  -10.5790 hc        1 168      0.053256
     54 HT41        3.6420   11.6830   -8.1950 hc        1 168      0.053256
     55 HT42        5.3570   12.1610   -7.8540 hc        1 168      0.053256
     56 HT43        4.8040   10.4640   -7.5110 hc        1 168      0.053256
     57 HT51        6.7150    9.6060   -8.9650 hc        1 168      0.053256
     58 HT52        7.2140   11.3240   -9.2850 hc        1 168      0.053256
     59 HT53        6.8770   10.2070  -10.6730 hc        1 168      0.053256
     60 HP42        3.4980    2.0550   -2.0880 hn        1 168      0.478800
     61 HP82        2.5790    4.7420   -6.5360 hn        1 168      0.459300
@<TRIPOS>BOND
     1    1    2 1   
     2    1   28 1   
     3    1   29 1   
     4    1   30 1   
     5    2    3 2   
     6    2    4 1   
     7    4    5 1   
     8    5    6 1   
     9    5   31 1   
    10    5   32 1   
    11    6    7 1   
    12    6   33 1   
    13    6   34 1   
    14    7    8 1   
    15    7   35 1   
    16    7   60 1   
    17    8    9 2   
    18    8   10 1   
    19   10   11 1   
    20   10   36 1   
    21   10   37 1   
    22   11   12 1   
    23   11   38 1   
    24   11   39 1   
    25   12   13 1   
    26   12   40 1   
    27   12   61 1   
    28   13   14 2   
    29   13   15 1   
    30   15   16 1   
    31   15   17 1   
    32   15   41 1   
    33   16   42 1   
    34   17   18 1   
    35   17   19 1   
    36   17   20 1   
    37   18   43 1   
    38   18   44 1   
    39   18   45 1   
    40   19   46 1   
    41   19   47 1   
    42   19   48 1   
    43   20   21 1   
    44   20   49 1   
    45   20   50 1   
    46   21   22 1   
    47   22   23 2   
    48   22   24 1   
    49   24   25 1   
    50   24   26 1   
    51   24   27 1   
    52   25   51 1   
    53   25   52 1   
    54   25   53 1   
    55   26   54 1   
    56   26   55 1   
    57   26   56 1   
    58   27   57 1   
    59   27   58 1   
    60   27   59 1   
@<TRIPOS>SUBSTRUCTURE
     1 168         1 TEMP              0 ****  ****    0 ROOT
