@<TRIPOS>MOLECULE
169
   66    58     1     0     0
SMALL
bcc


@<TRIPOS>ATOM
      1 C1       -869.6140 -897.2350  348.0100 c1        1 169      0.255000
      2 C2       -868.7920 -896.3870  347.6840 c1        1 169     -0.301000
      3 C3       -213.2980 -339.7920  -28.8430 c3        1 169     -0.276000
      4 C4       -867.8900 -895.4540  347.3260 c2        1 169      0.342000
      5 N1         -3.9000  -65.4440   55.8610 n3        1 169     -0.329000
      6 C5         -7.5370  -69.0100   56.3150 c3        1 169     -0.276000
      7 C6         -4.2280  -61.8440   54.7200 c1        1 169      0.071000
      8 C7         -2.8760  -64.4240   55.7330 c3        1 169     -0.037000
      9 C8         -1.4980  -64.9310   56.1190 c3        1 169     -0.238000
     10 O1         -2.0100  -59.3860   54.4710 o         1 169     -0.253000
     11 N2         -3.7950  -60.7840   54.4580 n2        1 169     -0.279000
     12 C10        -2.3680  -56.9000   52.5390 c2        1 169     -0.265000
     13 C11        -2.3300  -56.2750   51.1910 c2        1 169      0.232000
     14 N3         -4.0150  -58.5250   53.5170 n         1 169     -0.173000
     15 C12        -3.6570  -57.4530   52.8620 c1        1 169     -0.003000
     16 O2         -1.2750  -55.9420   50.6530 o         1 169     -0.270000
     17 C15       428.3560  617.8130 -264.0860 c3        1 169     -0.074000
     18 N4        428.2280  617.5000 -265.4980 n3        1 169     -0.316000
     19 C16       427.1670  616.6290 -265.8700 c2        1 169      0.092000
     20 N5        426.7670  616.8270 -267.3300 n4        1 169     -0.055000
     21 N6        426.4150  615.8010 -265.2350 n2        1 169     -0.220000
     22 C17        -8.0570  -58.0310   53.8690 c1        1 169      0.435000
     23 O3         -7.1070  -58.7390   54.0270 o         1 169     -0.216000
     24 O4         -9.0040  -57.3370   53.7170 o         1 169     -0.216000
     25 C18        -5.2130  -65.2120   55.5770 c2        1 169      0.402000
     26 O5         -5.6870  -64.0240   55.1510 oh        1 169     -0.284000
     27 N7         -6.1960  -66.1430   55.6870 n3        1 169     -0.343000
     28 H11A       -4.3070  -68.2990   56.6340 ha        1 169      0.002000
     29 H12A     -870.3360 -897.9820  348.2960 ha        1 169      0.295000
     30 H13        -4.0610  -68.8940   56.8470 ha        1 169      0.002000
     31 H31      -212.2350 -339.9550  -28.5630 hc        1 169      0.069125
     32 H32      -213.9050 -339.6450  -27.9230 hc        1 169      0.069125
     33 H33      -213.6750 -340.6790  -29.3970 hc        1 169      0.069125
     34 H41      -213.3780 -338.8900  -29.4880 hc        1 169      0.069125
     35 H42      -866.8000 -895.6190  347.4810 ha        1 169      0.205000
     36 H43      -868.2080 -894.4930  346.8650 ha        1 169      0.205000
     37 H51        -7.6320  -68.7180   55.2460 hc        1 169      0.069125
     38 H52        -6.4710  -69.2130   56.5600 hc        1 169      0.069125
     39 H61        -7.9290  -68.1980   56.9670 hc        1 169      0.069125
     40 H62        -8.1320  -69.9350   56.4920 hc        1 169      0.069125
     41 H71        -3.1540  -63.5500   56.3930 h1        1 169      0.107000
     42 H72        -3.6130  -66.3510   56.1740 hn        1 169      0.275000
     43 H81        -1.1730  -65.7760   55.4650 hc        1 169      0.110667
     44 H82        -2.8590  -64.0640   54.6620 h1        1 169      0.107000
     45 H10        -4.9850  -63.2750   55.0390 ho        1 169      0.348000
     46 H11        -3.3210  -56.1290   50.7080 h4        1 169      0.124000
     47 HN3        -0.7720  -64.0880   55.9930 hc        1 169      0.110667
     48 H12        -1.4660  -65.2650   57.1850 hc        1 169      0.110667
     49 H131       -0.4080  -56.2450   53.0680 ha        1 169      0.145500
     50 H132       -1.3080  -57.2100   54.3890 ha        1 169      0.145500
     51 H141      430.1070  616.5860 -263.6200 hc        1 169      0.101000
     52 H142      429.1770  617.1970 -262.1930 hc        1 169      0.101000
     53 H151  