@<TRIPOS>MOLECULE
169
   62    60     1     0     0
SMALL
bcc


@<TRIPOS>ATOM
      1 C1         -5.1000    4.9400    3.5650 c3        1 169     -0.225000
      2 C2         -3.5970    5.2200    3.6140 c3        1 169      0.080000
      3 C3         -3.1590    5.3520    5.0500 c3        1 169     -0.225000
      4 C4         -3.2980    6.5170    2.8680 c3        1 169     -0.225000
      5 N1         -2.1590    1.6950    3.0180 n         1 169     -0.289000
      6 C5         -2.0450    0.4260    3.6370 c3        1 169     -0.084000
      7 C6         -0.6630   -0.1790    3.4460 c3        1 169     -0.083000
      8 C7         -1.7590    1.7000    1.6510 c3        1 169     -0.084000
      9 C8         -0.3780    1.0980    1.4600 c3        1 169     -0.083000
     10 C9          0.2210   -1.3460    1.3920 c1        1 169      0.351000
     11 O1          0.2990   -2.4120    1.9840 o         1 169     -0.409000
     12 N2         -0.2620   -0.1730    2.0790 n2        1 169     -0.282000
     13 C10         1.3180   -2.5690   -1.9190 c3        1 169     -0.155000
     14 C11         0.1910   -3.5380   -1.8530 c2        1 169      0.192000
     15 N3          0.6260   -1.2590   -0.0160 n3        1 169     -0.324000
     16 C12         1.6670   -2.0970   -0.5100 c3        1 169     -0.080000
     17 O2         -0.8470   -3.3060   -2.4470 o         1 169     -0.341000
     18 C13         2.5350   -3.2450   -2.5460 c3        1 169     -0.135000
     19 C14         2.4070   -3.2090   -4.0750 c3        1 169     -0.174000
     20 C15         3.5170   -4.0710   -4.7060 c3        1 169     -0.051000
     21 N4          3.7580   -3.6290   -6.0730 n3        1 169     -0.327000
     22 C16         4.5570   -4.4430   -6.9710 c2        1 169      0.166000
     23 N5          4.0360   -5.6800   -7.4730 n3        1 169     -0.321000
     24 N6          5.7730   -4.0400   -7.3280 n1        1 169     -0.382000
     25 C17         2.9560   -1.3250   -0.5460 c2        1 169      0.326000
     26 O3          3.9440   -1.7180    0.1280 o         1 169     -0.558500
     27 O4          3.0590   -0.2920   -1.2810 o         1 169     -0.558500
     28 C18        -2.6340    2.8780    3.7120 c2        1 169      0.364000
     29 O5         -2.9530    2.8060    4.8660 o         1 169     -0.411000
     30 N7         -2.8640    4.1010    2.9750 n         1 169     -0.345000
     31 H11A       -5.3680    4.7670    2.6420 hc        1 169      0.083222
     32 H12A       -5.3050    4.1560    4.1170 hc        1 169      0.083222
     33 H13        -5.5940    5.7280    3.9110 hc        1 169      0.083222
     34 H31        -3.7060    4.7810    5.6090 hc        1 169      0.083222
     35 H32        -2.2150    5.0830    5.1310 hc        1 169      0.083222
     36 H33        -3.2590    6.2860    5.3380 hc        1 169      0.083222
     37 H41        -3.5570    6.4230    1.9440 hc        1 169      0.083222
     38 H42        -2.3330    6.7130    2.9210 hc        1 169      0.083222
     39 H43        -3.8090    7.2590    3.2800 hc        1 169      0.083222
     40 H51        -2.7070   -0.1730    3.2540 h1        1 169      0.109000
     41 H52        -2.2210    0.5230    4.5980 h1        1 169      0.109000
     42 H61        -0.0100    0.3380    3.9760 h1        1 169      0.113000
     43 H62        -0.6740   -1.0920    3.7650 h1        1 169      0.113000
     44 H71        -2.4070    1.1820    1.1280 h1        1 169      0.109000
     45 H72        -1.7520    2.6160    1.3290 h1        1 169      0.109000
     46 H81        -0.2050    1.0020    0.5060 h1        1 169      0.113000
     47 H82         0.2870    1.7010    1.8440 h1        1 169      0.113000
     48 H10         1.0520   -1.7940   -2.4690 hc        1 169      0.119000
     49 H11         0.3120   -4.3870   -1.4080 h4        1 169      0.113000
     50 HN3         0.2550   -0.6290   -0.5560 hn        1 169      0.229000
     51 H12         1.7670   -2.8690    0.0750 h1        1 169      0.112000
     52 H131        2.5830   -4.1770   -2.2440 hc        1 169      0.089500
     53 H132        3.3410   -2.7750   -2.2780 hc        1 169      0.089500
     54 H141        2.4930   -2.2890   -4.3860 hc        1 169      0.108000
     55 H142        1.5340   -3.5610   -4.3360 hc        1 169      0.108000
     56 H151        3.2380   -5.0100   -4.7120 h1        1 169      0.075500
     57 H152        4.3420   -3.9780   -4.1820 h1        1 169      0.075500
     58 HN4         3.4000   -2.8410   -6.3670 hn        1 169      0.202000
     59 HN51        3.1870   -5.9420   -7.2520 hn        1 169      0.183500
     60 HN55        4.5500   -6.2050   -8.0190 hn        1 169      0.183500
     61 HN6         6.1030   -3.2560   -7.0110 DU        1 169      0.141000
     62 HN7        -2.4690    4.2220    2.1480 hn        1 169      0.208000
@<TRIPOS>BOND
     1    1    2 1   
     2    1   31 1   
     3    1   32 1   
     4    1   33 1   
     5    2    3 1   
     6    2    4 1   
     7    2   30 1   
     8    3   34 1   
     9    3   35 1   
    10    3   36 1   
    11    4   37 1   
    12    4   38 1   
    13    4   39 1   
    14    5    6 1   
    15    5    8 1   
    16    5   28 1   
    17    6    7 1   
    18    6   40 1   
    19    6   41 1   
    20    7   12 1   
    21    7   42 1   
    22    7   43 1   
    23    8    9 1   
    24    8   44 1   
    25    8   45 1   
    26    9   12 1   
    27    9   46 1   
    28    9   47 1   
    29   10   11 1   
    30   10   15 1   
    31   13   14 1   
    32   13   16 1   
    33   13   18 1   
    34   13   48 1   
    35   14   17 1   
    36   14   49 1   
    37   15   16 1   
    38   15   50 1   
    39   16   25 1   
    40   16   51 1   
    41   18   19 1   
    42   18   52 1   
    43   18   53 1   
    44   19   20 1   
    45   19   54 1   
    46   19   55 1   
    47   20   21 1   
    48   20   56 1   
    49   20   57 1   
    50   21   22 1   
    51   21   58 1   
    52   22   23 1   
    53   22   24 1   
    54   23   59 1   
    55   23   60 1   
    56   25   26 1   
    57   25   27 1   
    58   28   29 1   
    59   28   30 1   
    60   30   62 1   
@<TRIPOS>SUBSTRUCTURE
     1 169         1 TEMP              0 ****  ****    0 ROOT
