@<TRIPOS>MOLECULE
169
   62    62     1     0     0
SMALL
bcc


@<TRIPOS>ATOM
      1 C1         -0.9640    0.8470    8.7690 c3        1 169     -0.106767
      2 C2         -0.2710   -0.1550    7.8230 c3        1 169      0.114400
      3 C3          1.2130   -0.2130    8.2190 c3        1 169     -0.106767
      4 C4         -0.8890   -1.5380    8.0860 c3        1 169     -0.106767
      5 N1         -0.4950   -0.2740    4.0590 n         1 169     -0.426800
      6 C5         -0.7890    1.0810    3.6280 c3        1 169      0.036500
      7 C6          0.3930    1.7770    2.9130 c3        1 169      0.034000
      8 C7          0.0910   -1.0700    2.9870 c3        1 169      0.036500
      9 C8          1.2400   -0.3840    2.2130 c3        1 169      0.034000
     10 O1         -0.4690    2.0540    0.3660 o         1 169     -0.648100
     11 N2          0.9870    0.9980    1.8480 n         1 169     -0.446800
     12 C10         1.0500    0.4380   -3.0310 c3        1 169     -0.158700
     13 C11         1.4970    1.8710   -3.1430 c         1 169      0.589900
     14 N3          1.2120    0.7680   -0.5860 n         1 169     -0.475900
     15 C12         0.4140    0.1630   -1.6530 c3        1 169     -0.071300
     16 O2          2.5520    2.2130   -3.6840 o         1 169     -0.577100
     17 C15        -0.3190   -0.0810   -6.5880 c3        1 169      0.182800
     18 N4          0.2920   -0.2980   -7.8880 nh        1 169     -0.796200
     19 C16        -0.5770   -0.5030   -9.0100 c2        1 169      0.741100
     20 N5          0.0830   -0.9340  -10.2200 nh        1 169     -0.933800
     21 N6         -1.8690   -0.2960   -8.9140 n2        1 169     -0.867100
     22 C17         0.2700   -1.3930   -1.4550 c         1 169      0.899600
     23 O3          1.0870   -1.9630   -0.6760 o         1 169     -0.824800
     24 O4         -0.6660   -1.9680   -2.0680 o         1 169     -0.824800
     25 C18         0.0060   -0.5170    5.3700 c         1 169      0.731100
     26 O5          0.7940   -1.4720    5.5820 o         1 169     -0.643100
     27 N7         -0.4370    0.2960    6.4380 n         1 169     -0.533900
     28 H11A       -0.8040    0.5150    9.8220 hc        1 169      0.042811
     29 H12A       -0.5340    1.8700    8.6480 hc        1 169      0.042811
     30 H13        -2.0620    0.8880    8.5730 hc        1 169      0.042811
     31 H31         1.6950    0.7850    8.0880 hc        1 169      0.042811
     32 H32         1.2910   -0.5120    9.2910 hc        1 169      0.042811
     33 H33         1.7540   -0.9630    7.5920 hc        1 169      0.042811
     34 H41        -1.9830   -1.5310    7.8670 hc        1 169      0.042811
     35 H42        -0.3940   -2.3080    7.4450 hc        1 169      0.042811
     36 H43        -0.7410   -1.8130    9.1570 hc        1 169      0.042811
     37 H51        -1.6510    1.0030    2.9030 h1        1 169      0.072200
     38 H52        -1.1140    1.7380    4.4760 h1        1 169      0.072200
     39 H61         0.0220    2.7590    2.5070 h1        1 169      0.076950
     40 H62         1.2100    1.9800    3.6620 h1        1 169      0.076950
     41 H71         0.4820   -2.0410    3.3970 h1        1 169      0.072200
     42 H72        -0.7510   -1.2970    2.2720 h1        1 169      0.072200
     43 H81         1.4400   -1.0270    1.3030 h1        1 169      0.076950
     44 H82         2.1630   -0.3830    2.8600 h1        1 169      0.076950
     45 H10         1.9370   -0.2440   -3.1570 hc        1 169      0.078700
     46 H11         0.7980    2.6230   -2.7110 h4        1 169     -0.000800
     47 HN3         1.9690    0.1480   -0.3430 hn        1 169      0.295500
     48 H12        -0.6200    0.6130   -1.6390 h1        1 169      0.077700
     49 H131       -0.5160   -0.7970   -3.8760 hc        1 169      0.075700
     50 H132       -0.7190    0.9790   -4.1760 hc        1 169      0.075700
     51 H141        1.4090    0.8770   -5.6500 hc        1 169      0.046700
     52 H142        1.3590   -0.9210   -5.4610 hc        1 169      0.046700
     53 H151       -1.0570   -0.8960   -6.3320 h1        1 169      0.055700
     54 H152       -0.8910    0.8890   -6.6380 h1        1 169      0.055700
     55 HN4         1.0160   -0.9900   -7.8420 hn        1 169      0.388800
     56 HN51       -0.3090   -0.5190  -11.0380 hn        1 169      0.378300
     57 HN55        1.0760   -0.8380  -10.2100 hn        1 169      0.378300
     58 HN6        -2.3730   -0.3680   -9.7710 hn        1 169      0.378400
     59 HN7        -1.3020    0.7690    6.2930 hn        1 169      0.286500
     60 C9          0.4900    1.2590    0.5230 c         1 169      0.726100
     61 C13         0.0370    0.1510   -4.1340 c3        1 169     -0.086400
     62 C14         0.7250    0.0040   -5.4740 c3        1 169     -0.092400
@<TRIPOS>BOND
     1    1    2 1   
     2    1   28 1   
     3    1   29 1   
     4    1   30 1   
     5    2    3 1   
     6    2    4 1   
     7    2   27 1   
     8    3   31 1   
     9    3   32 1   
    10    3   33 1   
    11    4   34 1   
    12    4   35 1   
    13    4   36 1   
    14    5    6 1   
    15    5    8 1   
    16    5   25 1   
    17    6    7 1   
    18    6   37 1   
    19    6   38 1   
    20    7   11 1   
    21    7   39 1   
    22    7   40 1   
    23    8    9 1   
    24    8   41 1   
    25    8   42 1   
    26    9   11 1   
    27    9   43 1   
    28    9   44 1   
    29   10   60 2   
    30   11   60 1   
    31   12   13 1   
    32   12   15 1   
    33   12   45 1   
    34   12   61 1   
    35   13   16 2   
    36   13   46 1   
    37   14   15 1   
    38   14   47 1   
    39   14   60 1   
    40   15   22 1   
    41   15   48 1   
    42   17   18 1   
    43   17   53 1   
    44   17   54 1   
    45   17   62 1   
    46   18   19 1   
    47   18   55 1   
    48   19   20 1   
    49   19   21 2   
    50   20   56 1   
    51   20   57 1   
    52   21   58 1   
    53   22   23 1   
    54   22   24 1   
    55   25   26 2   
    56   25   27 1   
    57   27   59 1   
    58   49   61 1   
    59   50   61 1   
    60   51   62 1   
    61   52   62 1   
    62   61   62 1   
@<TRIPOS>SUBSTRUCTURE
     1 169         1 TEMP              0 ****  ****    0 ROOT
