@<TRIPOS>MOLECULE
16A
   62    61     1     0     0
SMALL
bcc


@<TRIPOS>ATOM
      1 C1        -10.6650   -0.6420   -2.0820 c3        1 16A     -0.093100
      2 C2         -9.4100   -1.0690   -2.8380 c3        1 16A     -0.080400
      3 C3         -8.2030   -0.2320   -2.3500 c3        1 16A     -0.079400
      4 C4         -6.9140   -0.7530   -3.0160 c3        1 16A     -0.079400
      5 C5         -5.7210    0.1640   -2.6250 c3        1 16A     -0.079400
      6 C6         -4.3880   -0.5770   -2.8990 c3        1 16A     -0.079400
      7 C7         -3.1970    0.3600   -2.5700 c3        1 16A     -0.079400
      8 C8         -1.8760   -0.4620   -2.5760 c3        1 16A     -0.079400
      9 C9         -0.6930    0.4550   -2.1860 c3        1 16A     -0.079400
     10 C10         0.5040   -0.4200   -1.7100 c3        1 16A     -0.079400
     11 C11         1.5910    0.4850   -1.1000 c3        1 16A     -0.079400
     12 C12         2.6670   -0.3920   -0.3930 c3        1 16A     -0.079400
     13 C13         3.5700    0.5060    0.4690 c3        1 16A     -0.079400
     14 C14         4.5290   -0.3760    1.3080 c3        1 16A     -0.080400
     15 C15         5.3000    0.5080    2.3100 c3        1 16A     -0.103400
     16 C16         6.0190   -0.3840    3.3290 c3        1 16A      0.113800
     17 N1          6.7900    0.4490    4.2520 n4        1 16A     -0.604800
     18 C17         7.8110    1.1660    3.5190 c3        1 16A      0.089100
     19 C18         7.4080   -0.3840    5.2430 c3        1 16A      0.089100
     20 C19         5.9180    1.3840    4.8930 c3        1 16A      0.089100
     21 H11       -11.4500   -1.1200   -2.4490 hc        1 16A      0.033367
     22 H12       -10.5640   -0.8620   -1.1270 hc        1 16A      0.033367
     23 H13       -10.7950    0.3260   -2.1820 hc        1 16A      0.033367
     24 H21        -9.2380   -2.0140   -2.6750 hc        1 16A      0.038700
     25 H22        -9.5420   -0.9220   -3.7990 hc        1 16A      0.038700
     26 H31        -8.3390    0.7110   -2.5920 hc        1 16A      0.039700
     27 H32        -8.1240   -0.3110   -1.3840 hc        1 16A      0.039700
     28 H41        -6.7370   -1.6630   -2.7130 hc        1 16A      0.039700
     29 H42        -7.0240   -0.7490   -3.9870 hc        1 16A      0.039700
     30 H51        -5.7530    0.9880   -3.1590 hc        1 16A      0.039700
     31 H52        -5.7800    0.3880   -1.6740 hc        1 16A      0.039700
     32 H61        -4.3470   -0.8380   -3.8440 hc        1 16A      0.040700
     33 H62        -4.3380   -1.3740   -2.3380 hc        1 16A      0.040700
     34 H71        -3.1440    1.0720   -3.2470 hc        1 16A      0.040700
     35 H72        -3.3300    0.7600   -1.6860 hc        1 16A      0.040700
     36 H81        -1.7240   -0.8250   -3.4660 hc        1 16A      0.040700
     37 H82        -1.9460   -1.1970   -1.9310 hc        1 16A      0.040700
     38 H91        -0.9670    1.0520   -1.4630 hc        1 16A      0.041700
     39 H92        -0.4190    0.9890   -2.9680 hc        1 16A      0.041700
     40 H101        0.1930   -1.0610   -1.0330 hc        1 16A      0.042700
     41 H102        0.8740   -0.9060   -2.4720 hc        1 16A      0.042700
     42 H111        2.0180    1.0140   -1.8160 hc        1 16A      0.042700
     43 H112        1.1840    1.0890   -0.4490 hc        1 16A      0.042700
     44 H121        2.2280   -1.0490    0.1730 hc        1 16A      0.045700
     45 H122        3.2100   -0.8500   -1.0670 hc        1 16A      0.045700
     46 H131        3.0130    1.0490    1.0720 hc        1 16A      0.047700
     47 H132        4.0850    1.0870   -0.1020 hc        1 16A      0.047700
     48 H141        5.1680   -0.8280    0.7090 hc        1 16A      0.054700
     49 H142        4.0130   -1.0430    1.7940 hc        1 16A      0.054700
     50 H151        5.9550    1.0470    1.8310 hc        1 16A      0.064700
     51 H152        4.6710    1.0980    2.7780 hc        1 16A      0.064700
     52 H161        5.3570   -0.9040    3.8330 hx        1 16A      0.098700
     53 H162        6.6250   -0.9960    2.8570 hx        1 16A      0.098700
     54 H171        8.2480    0.5560    2.8870 hx        1 16A      0.101700
     55 H172        7.4000    1.9080    3.0260 hx        1 16A      0.101700
     56 H173        8.4770    1.5190    4.1460 hx        1 16A      0.101700
     57 H181        6.7110   -0.8630    5.7530 hx        1 16A      0.101700
     58 H182        7.9940   -1.0330    4.8030 hx        1 16A      0.101700
     59 H183        7.9390    0.1750    5.8570 hx        1 16A      0.101700
     60 H191        5.0560    0.9490    5.0840 hx        1 16A      0.101700
     61 H192        5.7720    2.1540    4.3010 hx        1 16A      0.101700
     62 H193        6.3280    1.6910    5.7400 hx        1 16A      0.101700
@<TRIPOS>BOND
     1    1    2 1   
     2    1   21 1   
     3    1   22 1   
     4    1   23 1   
     5    2    3 1   
     6    2   24 1   
     7    2   25 1   
     8    3    4 1   
     9    3   26 1   
    10    3   27 1   
    11    4    5 1   
    12    4   28 1   
    13    4   29 1   
    14    5    6 1   
    15    5   30 1   
    16    5   31 1   
    17    6    7 1   
    18    6   32 1   
    19    6   33 1   
    20    7    8 1   
    21    7   34 1   
    22    7   35 1   
    23    8    9 1   
    24    8   36 1   
    25    8   37 1   
    26    9   10 1   
    27    9   38 1   
    28    9   39 1   
    29   10   11 1   
    30   10   40 1   
    31   10   41 1   
    32   11   12 1   
    33   11   42 1   
    34   11   43 1   
    35   12   13 1   
    36   12   44 1   
    37   12   45 1   
    38   13   14 1   
    39   13   46 1   
    40   13   47 1   
    41   14   15 1   
    42   14   48 1   
    43   14   49 1   
    44   15   16 1   
    45   15   50 1   
    46   15   51 1   
    47   16   17 1   
    48   16   52 1   
    49   16   53 1   
    50   17   18 1   
    51   17   19 1   
    52   17   20 1   
    53   18   54 1   
    54   18   55 1   
    55   18   56 1   
    56   19   57 1   
    57   19   58 1   
    58   19   59 1   
    59   20   60 1   
    60   20   61 1   
    61   20   62 1   
@<TRIPOS>SUBSTRUCTURE
     1 16A         1 TEMP              0 ****  ****    0 ROOT
