@<TRIPOS>MOLECULE
16A
   62    61     1     0     0
SMALL
bcc


@<TRIPOS>ATOM
      1 C1          0.0210   -0.0000   -0.0830 c3        1 16A     -0.093100
      2 C2          1.5280   -0.0000   -0.0410 c3        1 16A     -0.080400
      3 C3          2.0430    0.0000    1.3820 c3        1 16A     -0.079400
      4 C4          3.5570    0.0000    1.4200 c3        1 16A     -0.079400
      5 C5          4.0710    0.0010    2.8430 c3        1 16A     -0.079400
      6 C6          5.5840    0.0010    2.8810 c3        1 16A     -0.079400
      7 C7          6.0980    0.0010    4.3040 c3        1 16A     -0.079400
      8 C8          7.6110    0.0010    4.3410 c3        1 16A     -0.079400
      9 C9          8.1250    0.0020    5.7650 c3        1 16A     -0.079400
     10 C10         9.6380    0.0020    5.8020 c3        1 16A     -0.079400
     11 C11        10.1510    0.0020    7.2260 c3        1 16A     -0.079400
     12 C12        11.6650    0.0020    7.2620 c3        1 16A     -0.079400
     13 C13        12.1760    0.0030    8.6870 c3        1 16A     -0.079400
     14 C14        13.6900    0.0030    8.7190 c3        1 16A     -0.080400
     15 C15        14.1940    0.0030   10.1500 c3        1 16A     -0.103400
     16 C16        15.7160    0.0030   10.1370 c3        1 16A      0.113800
     17 N1         16.3780    0.0040   11.4950 n4        1 16A     -0.604800
     18 C17        15.9920   -1.2150   12.2650 c3        1 16A      0.089100
     19 C18        17.8600    0.0040   11.2930 c3        1 16A      0.089100
     20 C19        15.9920    1.2220   12.2640 c3        1 16A      0.089100
     21 H11        -0.3370   -0.0010   -1.1410 hc        1 16A      0.033367
     22 H12        -0.3880   -0.9050    0.4280 hc        1 16A      0.033367
     23 H13        -0.3880    0.9050    0.4270 hc        1 16A      0.033367
     24 H21         1.9200   -0.9030   -0.5800 hc        1 16A      0.038700
     25 H22         1.9200    0.9020   -0.5810 hc        1 16A      0.038700
     26 H31         1.6530    0.9030    1.9220 hc        1 16A      0.039700
     27 H32         1.6530   -0.9020    1.9230 hc        1 16A      0.039700
     28 H41         3.9460   -0.9020    0.8790 hc        1 16A      0.039700
     29 H42         3.9460    0.9030    0.8790 hc        1 16A      0.039700
     30 H51         3.6810   -0.9020    3.3840 hc        1 16A      0.039700
     31 H52         3.6810    0.9040    3.3840 hc        1 16A      0.039700
     32 H61         5.9730   -0.9020    2.3400 hc        1 16A      0.040700
     33 H62         5.9730    0.9030    2.3400 hc        1 16A      0.040700
     34 H71         5.7080    0.9040    4.8450 hc        1 16A      0.040700
     35 H72         5.7080   -0.9010    4.8450 hc        1 16A      0.040700
     36 H81         8.0010    0.9040    3.8000 hc        1 16A      0.040700
     37 H82         8.0010   -0.9020    3.8010 hc        1 16A      0.040700
     38 H91         7.7350    0.9050    6.3050 hc        1 16A      0.041700
     39 H92         7.7350   -0.9010    6.3060 hc        1 16A      0.041700
     40 H101       10.0270    0.9040    5.2610 hc        1 16A      0.042700
     41 H102       10.0270   -0.9010    5.2620 hc        1 16A      0.042700
     42 H111        9.7610    0.9050    7.7660 hc        1 16A      0.042700
     43 H112        9.7610   -0.9010    7.7660 hc        1 16A      0.042700
     44 H121       12.0530   -0.9010    6.7220 hc        1 16A      0.045700
     45 H122       12.0530    0.9050    6.7210 hc        1 16A      0.045700
     46 H131       11.7860    0.9070    9.2260 hc        1 16A      0.047700
     47 H132       11.7860   -0.9010    9.2260 hc        1 16A      0.047700
     48 H141       14.0770    0.9070    8.1780 hc        1 16A      0.054700
     49 H142       14.0770   -0.9020    8.1790 hc        1 16A      0.054700
     50 H151       13.8000    0.9110   10.6800 hc        1 16A      0.064700
     51 H152       13.8000   -0.9040   10.6800 hc        1 16A      0.064700
     52 H161       16.0840   -0.9130    9.5920 hx        1 16A      0.098700
     53 H162       16.0840    0.9190    9.5910 hx        1 16A      0.098700
     54 H171       14.8930   -1.1860   12.4900 hx        1 16A      0.101700
     55 H172       16.5690   -1.2430   13.2280 hx        1 16A      0.101700
     56 H173       16.2280   -2.1290   11.6570 hx        1 16A      0.101700
     57 H181       18.1580    0.9210   10.7200 hx        1 16A      0.101700
     58 H182       18.1590   -0.9140   10.7200 hx        1 16A      0.101700
     59 H183       18.3720    0.0040   12.2930 hx        1 16A      0.101700
     60 H191       16.5680    1.2510   13.2270 hx        1 16A      0.101700
     61 H192       14.8930    1.1920   12.4900 hx        1 16A      0.101700
     62 H193       16.2270    2.1360   11.6560 hx        1 16A      0.101700
@<TRIPOS>BOND
     1    1    2 1   
     2    1   21 1   
     3    1   22 1   
     4    1   23 1   
     5    2    3 1   
     6    2   24 1   
     7    2   25 1   
     8    3    4 1   
     9    3   26 1   
    10    3   27 1   
    11    4    5 1   
    12    4   28 1   
    13    4   29 1   
    14    5    6 1   
    15    5   30 1   
    16    5   31 1   
    17    6    7 1   
    18    6   32 1   
    19    6   33 1   
    20    7    8 1   
    21    7   34 1   
    22    7   35 1   
    23    8    9 1   
    24    8   36 1   
    25    8   37 1   
    26    9   10 1   
    27    9   38 1   
    28    9   39 1   
    29   10   11 1   
    30   10   40 1   
    31   10   41 1   
    32   11   12 1   
    33   11   42 1   
    34   11   43 1   
    35   12   13 1   
    36   12   44 1   
    37   12   45 1   
    38   13   14 1   
    39   13   46 1   
    40   13   47 1   
    41   14   15 1   
    42   14   48 1   
    43   14   49 1   
    44   15   16 1   
    45   15   50 1   
    46   15   51 1   
    47   16   17 1   
    48   16   52 1   
    49   16   53 1   
    50   17   18 1   
    51   17   19 1   
    52   17   20 1   
    53   18   54 1   
    54   18   55 1   
    55   18   56 1   
    56   19   57 1   
    57   19   58 1   
    58   19   59 1   
    59   20   60 1   
    60   20   61 1   
    61   20   62 1   
@<TRIPOS>SUBSTRUCTURE
     1 16A         1 TEMP              0 ****  ****    0 ROOT
