@<TRIPOS>MOLECULE
16A
   62    61     1     0     0
SMALL
bcc


@<TRIPOS>ATOM
      1 C1         11.6200   -0.4290   -0.0050 c3        1 16A     -0.093100
      2 C2         10.3800    0.4270    0.0050 c3        1 16A     -0.080400
      3 C3          9.1230   -0.4160   -0.0050 c3        1 16A     -0.079400
      4 C4          7.8800    0.4480    0.0050 c3        1 16A     -0.079400
      5 C5          6.6240   -0.3970   -0.0040 c3        1 16A     -0.079400
      6 C6          5.3810    0.4670    0.0050 c3        1 16A     -0.079400
      7 C7          4.1250   -0.3780   -0.0040 c3        1 16A     -0.079400
      8 C8          2.8830    0.4860    0.0050 c3        1 16A     -0.079400
      9 C9          1.6270   -0.3590   -0.0040 c3        1 16A     -0.079400
     10 C10         0.3850    0.5060    0.0050 c3        1 16A     -0.079400
     11 C11        -0.8710   -0.3400   -0.0040 c3        1 16A     -0.079400
     12 C12        -2.1130    0.5260    0.0060 c3        1 16A     -0.079400
     13 C13        -3.3670   -0.3220   -0.0040 c3        1 16A     -0.079400
     14 C14        -4.6080    0.5470    0.0060 c3        1 16A     -0.080400
     15 C15        -5.8610   -0.3100   -0.0030 c3        1 16A     -0.103400
     16 C16        -7.0810    0.6000    0.0070 c3        1 16A      0.113800
     17 N1         -8.4170   -0.1040   -0.0010 n4        1 16A     -0.604800
     18 C17        -8.5600   -0.9660    1.2080 c3        1 16A      0.089100
     19 C18        -9.4940    0.9340    0.0100 c3        1 16A      0.089100
     20 C19        -8.5600   -0.9400   -1.2290 c3        1 16A      0.089100
     21 H11        12.5340    0.2120    0.0020 hc        1 16A      0.033367
     22 H12        11.6480   -1.0930    0.8930 hc        1 16A      0.033367
     23 H13        11.6480   -1.0730   -0.9170 hc        1 16A      0.033367
     24 H21        10.3830    1.0840    0.9140 hc        1 16A      0.038700
     25 H22        10.3830    1.1040   -0.8910 hc        1 16A      0.038700
     26 H31         9.1180   -1.0730   -0.9140 hc        1 16A      0.039700
     27 H32         9.1180   -1.0930    0.8910 hc        1 16A      0.039700
     28 H41         7.8860    1.1040    0.9150 hc        1 16A      0.039700
     29 H42         7.8860    1.1240   -0.8900 hc        1 16A      0.039700
     30 H51         6.6190   -1.0540   -0.9140 hc        1 16A      0.039700
     31 H52         6.6190   -1.0730    0.8910 hc        1 16A      0.039700
     32 H61         5.3870    1.1230    0.9150 hc        1 16A      0.040700
     33 H62         5.3870    1.1430   -0.8900 hc        1 16A      0.040700
     34 H71         4.1200   -1.0340   -0.9140 hc        1 16A      0.040700
     35 H72         4.1200   -1.0540    0.8910 hc        1 16A      0.040700
     36 H81         2.8880    1.1430    0.9150 hc        1 16A      0.040700
     37 H82         2.8880    1.1630   -0.8900 hc        1 16A      0.040700
     38 H91         1.6220   -1.0150   -0.9140 hc        1 16A      0.041700
     39 H92         1.6220   -1.0350    0.8920 hc        1 16A      0.041700
     40 H101        0.3900    1.1620    0.9160 hc        1 16A      0.042700
     41 H102        0.3900    1.1820   -0.8900 hc        1 16A      0.042700
     42 H111       -0.8750   -0.9960   -0.9140 hc        1 16A      0.042700
     43 H112       -0.8750   -1.0160    0.8920 hc        1 16A      0.042700
     44 H121       -2.1070    1.1810    0.9160 hc        1 16A      0.045700
     45 H122       -2.1070    1.2010   -0.8900 hc        1 16A      0.045700
     46 H131       -3.3710   -0.9770   -0.9140 hc        1 16A      0.047700
     47 H132       -3.3710   -0.9970    0.8930 hc        1 16A      0.047700
     48 H141       -4.6010    1.2010    0.9180 hc        1 16A      0.054700
     49 H142       -4.6010    1.2210   -0.8910 hc        1 16A      0.054700
     50 H151       -5.8560   -0.9600   -0.9180 hc        1 16A      0.064700
     51 H152       -5.8560   -0.9800    0.8960 hc        1 16A      0.064700
     52 H161       -7.0550    1.2480    0.9300 hx        1 16A      0.098700
     53 H162       -7.0550    1.2680   -0.9030 hx        1 16A      0.098700
     54 H171       -8.3910   -0.3470    2.1290 hx        1 16A      0.101700
     55 H172       -9.5940   -1.4030    1.2320 hx        1 16A      0.101700
     56 H173       -7.8070   -1.7970    1.1700 hx        1 16A      0.101700
     57 H181       -9.3950    1.5830   -0.9000 hx        1 16A      0.101700
     58 H182      -10.4970    0.4300    0.0050 hx        1 16A      0.101700
     59 H183       -9.3950    1.5630    0.9340 hx        1 16A      0.101700
     60 H191       -7.8070   -1.7710   -1.2080 hx        1 16A      0.101700
     61 H192       -9.5940   -1.3760   -1.2620 hx        1 16A      0.101700
     62 H193       -8.3910   -0.3010   -2.1360 hx        1 16A      0.101700
@<TRIPOS>BOND
     1    1    2 1   
     2    1   21 1   
     3    1   22 1   
     4    1   23 1   
     5    2    3 1   
     6    2   24 1   
     7    2   25 1   
     8    3    4 1   
     9    3   26 1   
    10    3   27 1   
    11    4    5 1   
    12    4   28 1   
    13    4   29 1   
    14    5    6 1   
    15    5   30 1   
    16    5   31 1   
    17    6    7 1   
    18    6   32 1   
    19    6   33 1   
    20    7    8 1   
    21    7   34 1   
    22    7   35 1   
    23    8    9 1   
    24    8   36 1   
    25    8   37 1   
    26    9   10 1   
    27    9   38 1   
    28    9   39 1   
    29   10   11 1   
    30   10   40 1   
    31   10   41 1   
    32   11   12 1   
    33   11   42 1   
    34   11   43 1   
    35   12   13 1   
    36   12   44 1   
    37   12   45 1   
    38   13   14 1   
    39   13   46 1   
    40   13   47 1   
    41   14   15 1   
    42   14   48 1   
    43   14   49 1   
    44   15   16 1   
    45   15   50 1   
    46   15   51 1   
    47   16   17 1   
    48   16   52 1   
    49   16   53 1   
    50   17   18 1   
    51   17   19 1   
    52   17   20 1   
    53   18   54 1   
    54   18   55 1   
    55   18   56 1   
    56   19   57 1   
    57   19   58 1   
    58   19   59 1   
    59   20   60 1   
    60   20   61 1   
    61   20   62 1   
@<TRIPOS>SUBSTRUCTURE
     1 16A         1 TEMP              0 ****  ****    0 ROOT
