@<TRIPOS>MOLECULE
16B
   34    35     1     0     0
SMALL
bcc


@<TRIPOS>ATOM
      1 OAA         0.5120    1.6600   -2.0640 o         1 16B     -0.924500
      2 PAE         1.3510    1.0660   -0.9470 p5        1 16B      1.341900
      3 OAD         1.0850    1.7840    0.3550 o         1 16B     -0.924500
      4 OAF         1.5890   -0.4070   -0.9590 o         1 16B     -0.924500
      5 O5'         2.8930    1.7870   -1.2790 os        1 16B     -0.568200
      6 C5'         2.9640    2.7510   -2.2440 c3        1 16B      0.226400
      7 C4'         2.8090    4.1870   -1.6840 c3        1 16B      0.061100
      8 O4'         2.7630    5.1140   -2.7950 os        1 16B     -0.435600
      9 C3'         1.5350    4.4050   -0.8440 c3        1 16B      0.074100
     10 O3'         1.8420    4.5650    0.5210 oh        1 16B     -0.662800
     11 C2'         0.8780    5.6760   -1.4060 c3        1 16B      0.108100
     12 O2'         1.1400    6.8560   -0.6740 oh        1 16B     -0.615800
     13 C1'         1.5240    5.8190   -2.8240 c3        1 16B      0.259500
     14 NAM         0.6570    5.3300   -3.9040 n         1 16B     -0.359000
     15 CAL         0.3780    6.1910   -5.0210 c         1 16B      0.817900
     16 OAK         0.8450    7.3560   -5.0280 o         1 16B     -0.674500
     17 NAG        -0.4300    5.7470   -6.0830 nc        1 16B     -0.734100
     18 CAN         0.1510    4.0570   -3.9020 cc        1 16B      0.085600
     19 CAI        -0.6410    3.6040   -4.9460 cd        1 16B     -0.448600
     20 CAH        -0.9010    4.4930   -6.0430 cd        1 16B      0.634500
     21 NAB        -1.6130    3.9360   -7.1810 nh        1 16B     -0.516700
     22 OAC        -2.3210    4.8110   -7.9100 oh        1 16B     -0.426300
     23 H3          2.1930    2.5870   -3.0480 h1        1 16B     -0.001300
     24 H4          3.9880    2.7130   -2.7230 h1        1 16B     -0.001300
     25 H5          3.7190    4.4740   -1.0940 h1        1 16B      0.047700
     26 H6          0.8440    3.5050   -0.9760 h1        1 16B      0.162700
     27 H7          1.7100    3.6710    0.9120 ho        1 16B      0.493000
     28 H8         -0.2380    5.5860   -1.4500 h1        1 16B      0.073700
     29 H9          1.8720    6.6650   -0.0730 ho        1 16B      0.421000
     30 H10         1.7860    6.8950   -3.0510 h2        1 16B      0.110700
     31 H11         0.3730    3.3520   -3.0310 h4        1 16B      0.305000
     32 H12        -1.0190    2.5750   -4.9100 ha        1 16B      0.174000
     33 H13        -2.2920    3.2660   -6.8170 hn        1 16B      0.389800
     34 H14        -1.6650    5.3540   -8.3860 ho        1 16B      0.431000
@<TRIPOS>BOND
     1    1    2 1   
     2    2    3 1   
     3    2    4 1   
     4    2    5 1   
     5    5    6 1   
     6    6    7 1   
     7    6   23 1   
     8    6   24 1   
     9    7    8 1   
    10    7    9 1   
    11    7   25 1   
    12    8   13 1   
    13    9   10 1   
    14    9   11 1   
    15    9   26 1   
    16   10   27 1   
    17   11   12 1   
    18   11   13 1   
    19   11   28 1   
    20   12   29 1   
    21   13   14 1   
    22   13   30 1   
    23   14   15 1   
    24   14   18 1   
    25   15   16 2   
    26   15   17 1   
    27   17   20 2   
    28   18   19 2   
    29   18   31 1   
    30   19   20 1   
    31   19   32 1   
    32   20   21 1   
    33   21   22 1   
    34   21   33 1   
    35   22   34 1   
@<TRIPOS>SUBSTRUCTURE
     1 16B         1 TEMP              0 ****  ****    0 ROOT
