@<TRIPOS>MOLECULE
16B
   34    35     1     0     0
SMALL
bcc


@<TRIPOS>ATOM
      1 OAA         3.6070   -2.0530   -1.3700 oh        1 16B     -0.786400
      2 PAE         4.0360   -0.4890   -1.1380 p5        1 16B      1.431800
      3 OAD         3.7920   -0.3170    0.3140 o         1 16B     -0.844500
      4 OAF         5.2840   -0.1920   -1.8640 o         1 16B     -0.844500
      5 O5'         2.7840    0.2360   -1.9290 os        1 16B     -0.580200
      6 C5'         1.5150    0.1250   -1.3580 c3        1 16B      0.181400
      7 C4'         0.9760    1.5160   -0.9910 c3        1 16B      0.122100
      8 O4'        -0.4370    1.5640   -1.2630 os        1 16B     -0.403600
      9 C3'         1.1910    1.8720    0.4930 c3        1 16B      0.103100
     10 O3'         1.5670    3.2410    0.5570 oh        1 16B     -0.610800
     11 C2'        -0.1840    1.6150    1.1400 c3        1 16B      0.077100
     12 O2'        -0.4370    2.5920    2.1310 oh        1 16B     -0.639800
     13 C1'        -1.1910    1.7150   -0.0490 c3        1 16B      0.294500
     14 NAM        -2.3140    0.7960    0.0520 n         1 16B     -0.331400
     15 CAL        -3.4620    1.2770    0.7860 c         1 16B      0.740500
     16 OAK        -3.3790    2.3970    1.3760 o         1 16B     -0.731100
     17 NAG        -4.6190    0.5120    0.8640 ne        1 16B     -0.789100
     18 CAN        -2.2960   -0.4410   -0.5020 c1        1 16B     -0.048900
     19 CAI        -3.4680   -1.2280   -0.3910 cf        1 16B     -0.570700
     20 CAH        -4.6060   -0.7090    0.2620 cf        1 16B      0.604500
     21 NAB        -5.8430   -1.4860    0.2000 nh        1 16B     -0.523700
     22 OAC        -6.7000   -1.3100    1.2210 oh        1 16B     -0.446300
     23 H3          0.8180   -0.3230   -2.1220 h1        1 16B      0.042700
     24 H4          1.5500   -0.5370   -0.4500 h1        1 16B      0.042700
     25 H5          1.4370    2.2940   -1.6590 h1        1 16B      0.080700
     26 H6          1.9980    1.2440    0.9620 h1        1 16B      0.111700
     27 H7          1.4080    3.5260    1.4650 ho        1 16B      0.404000
     28 H8         -0.2030    0.5990    1.6170 h1        1 16B      0.067700
     29 H9         -1.4000    2.7090    2.1730 ho        1 16B      0.444000
     30 H10        -1.6170    2.7680   -0.0880 h2        1 16B      0.070700
     31 H11         3.0920   -2.3870   -0.6450 ho        1 16B      0.422000
     32 H12        -3.4560   -2.2240   -0.8410 ha        1 16B      0.118000
     33 H13        -5.5680   -2.4680    0.2540 hn        1 16B      0.363800
     34 H14        -6.9790   -0.3770    1.1800 ho        1 16B      0.430000
@<TRIPOS>BOND
     1    1    2 1   
     2    1   31 1   
     3    2    3 1   
     4    2    4 1   
     5    2    5 1   
     6    5    6 1   
     7    6    7 1   
     8    6   23 1   
     9    6   24 1   
    10    7    8 1   
    11    7    9 1   
    12    7   25 1   
    13    8   13 1   
    14    9   10 1   
    15    9   11 1   
    16    9   26 1   
    17   10   27 1   
    18   11   12 1   
    19   11   13 1   
    20   11   28 1   
    21   12   29 1   
    22   13   14 1   
    23   13   30 1   
    24   14   15 1   
    25   14   18 2   
    26   15   16 2   
    27   15   17 1   
    28   17   20 2   
    29   18   19 2   
    30   19   20 1   
    31   19   32 1   
    32   20   21 1   
    33   21   22 1   
    34   21   33 1   
    35   22   34 1   
@<TRIPOS>SUBSTRUCTURE
     1 16B         1 TEMP              0 ****  ****    0 ROOT
