@<TRIPOS>MOLECULE
16B
   34    31     1     0     0
SMALL
bcc


@<TRIPOS>ATOM
      1 OAA        -1.5460   -5.4100    1.3380 o         1 16B     -1.049333
      2 PAE        -0.0890   -5.3140    0.9480 p3        1 16B      2.526000
      3 OAD         0.7480   -5.0540    2.1820 o         1 16B     -1.049333
      4 OAF         0.3480   -6.6140    0.3080 o         1 16B     -1.049333
      5 O5'         0.1080   -4.1120   -0.0940 o         1 16B     -0.735000
      6 C5'         0.0090   -2.7740    0.3850 c3        1 16B      0.015000
      7 C4'        -0.1800   -1.8180   -0.7990 c3        1 16B     -0.067000
      8 O4'        -1.0560   -0.9310   -0.5120 os        1 16B     -0.280000
      9 C3'         1.1900   -1.0260   -1.0950 c3        1 16B      0.168000
     10 O3'         2.0660   -1.8360   -1.9430 oh        1 16B     -0.696000
     11 C2'         0.8480    0.0600   -1.7170 c3        1 16B     -0.089000
     12 O2'         0.8750   -0.1590   -3.1970 oh        1 16B     -0.369000
     13 C1'        -0.5850    0.3500   -1.2460 c3        1 16B      0.114000
     14 NAM        -0.5980    1.3760   -0.4260 n3        1 16B     -0.235000
     15 CAL        -1.2400    1.2540    0.8830 c1        1 16B      0.341000
     16 OAK        -1.8230    0.2300    1.1810 o         1 16B     -0.369000
     17 NAG        -1.1790    2.3680    1.8390 n1        1 16B     -0.293000
     18 CAN        -0.0740    2.6340   -0.8480 c2        1 16B      0.100000
     19 CAI        -0.0890    3.7820    0.0780 c1        1 16B     -0.370000
     20 CAH        -0.6600    3.6250    1.4310 c1        1 16B      0.111000
     21 NAB        -0.6680    4.7340    2.3400 n2        1 16B     -0.108000
     22 OAC        -1.3070    4.6230    3.5580 oh        1 16B     -0.271000
     23 H3          0.8290   -2.5390    0.8670 h1        1 16B      0.060500
     24 H4         -0.7580   -2.7000    0.9900 h1        1 16B      0.060500
     25 H5         -0.4580   -2.3190   -1.5950 h1        1 16B      0.128000
     26 H6          1.6400   -0.8070   -0.2560 h1        1 16B     -0.025000
     27 H7          2.9120   -1.6950   -1.7140 ho        1 16B      0.215000
     28 H8          1.4420    0.7940   -1.4700 h1        1 16B      0.062000
     29 H9          1.3520    0.4850   -3.5830 ho        1 16B      0.238000
     30 H10        -1.1620    0.5280   -2.0170 h2        1 16B      0.145000
     31 H11         0.2110    2.7580   -1.7760 h4        1 16B      0.201000
     32 H12         0.2710    4.6490   -0.2080 ha        1 16B      0.154000
     33 H13        -0.2300    5.5080    2.1230 hn        1 16B      0.186000
     34 H14        -1.1480    5.3520    4.0440 ho        1 16B      0.230000
@<TRIPOS>BOND
     1    1    2 1   
     2    2    3 1   
     3    2    4 1   
     4    5    6 1   
     5    6    7 1   
     6    6   23 1   
     7    6   24 1   
     8    7    8 1   
     9    7    9 1   
    10    7   25 1   
    11    8   13 1   
    12    9   10 1   
    13    9   11 1   
    14    9   26 1   
    15   10   27 1   
    16   11   12 1   
    17   11   13 1   
    18   11   28 1   
    19   12   29 1   
    20   13   14 1   
    21   13   30 1   
    22   14   15 1   
    23   14   18 1   
    24   15   16 1   
    25   17   20 1   
    26   18   19 1   
    27   18   31 1   
    28   19   32 1   
    29   21   22 1   
    30   21   33 1   
    31   22   34 1   
@<TRIPOS>SUBSTRUCTURE
     1 16B         1 TEMP              0 ****  ****    0 ROOT
