@<TRIPOS>MOLECULE
16C
  106   105     1     0     0
SMALL
bcc


@<TRIPOS>ATOM
      1 O19         1.4650    3.6670   -1.7280 o         1 16C     -0.413100
      2 C19         2.0450    2.6080   -1.5570 c         1 16C      0.555100
      3 N2          2.4310    2.3090   -0.1180 n4        1 16C     -0.678800
      4 C2          1.2580    1.8320    0.6870 c3        1 16C      0.076500
      5 C1          0.8180    0.4130    0.2680 c3        1 16C      0.112400
      6 O1          1.9500   -0.4240    0.1580 oh        1 16C     -0.624800
      7 C3          1.6020    1.8490    2.2080 c3        1 16C      0.184300
      8 C4          2.1300    3.1730    2.6420 c2        1 16C     -0.330200
      9 C5          1.4500    4.3220    2.7360 c2        1 16C     -0.067200
     10 C6          0.0310    4.5450    2.3720 c3        1 16C     -0.085200
     11 C7         -0.6640    5.5020    3.3240 c3        1 16C     -0.079400
     12 C8         -0.2980    6.9470    3.0620 c3        1 16C     -0.081400
     13 C9         -1.0070    7.8710    4.0300 c3        1 16C     -0.080400
     14 C10        -0.6470    9.3180    3.7680 c3        1 16C     -0.078400
     15 C11        -1.3550   10.2420    4.7360 c3        1 16C     -0.079400
     16 C12        -0.9960   11.6890    4.4750 c3        1 16C     -0.078400
     17 C13        -1.7040   12.6120    5.4440 c3        1 16C     -0.079400
     18 C14        -1.3450   14.0600    5.1830 c3        1 16C     -0.078400
     19 C15        -2.0520   14.9830    6.1520 c3        1 16C     -0.079400
     20 C16        -1.6940   16.4310    5.8920 c3        1 16C     -0.079400
     21 C17        -2.4000   17.3560    6.8600 c3        1 16C     -0.080400
     22 C18        -2.0460   18.7980    6.6050 c3        1 16C     -0.093100
     23 O3          0.4020    1.4480    2.8480 oh        1 16C     -0.595800
     24 C20         2.4530    1.5700   -2.5590 c3        1 16C     -0.157400
     25 C21         1.7180    1.7740   -3.8710 c3        1 16C     -0.081400
     26 C22         2.1920    0.7660   -4.8970 c3        1 16C     -0.080400
     27 C23         1.4550    0.9500   -6.2080 c3        1 16C     -0.079400
     28 C24         1.9260   -0.0540   -7.2400 c3        1 16C     -0.079400
     29 C25         1.1900    0.1270   -8.5510 c3        1 16C     -0.079400
     30 C26         1.6590   -0.8750   -9.5840 c3        1 16C     -0.079400
     31 C27         0.9240   -0.6950  -10.8950 c3        1 16C     -0.079400
     32 C28         1.3930   -1.6970  -11.9280 c3        1 16C     -0.079400
     33 C29         0.6580   -1.5170  -13.2390 c3        1 16C     -0.079400
     34 C30         1.1270   -2.5190  -14.2730 c3        1 16C     -0.079400
     35 C31         0.3920   -2.3390  -15.5840 c3        1 16C     -0.079400
     36 C32         0.8610   -3.3400  -16.6180 c3        1 16C     -0.079400
     37 C33         0.1260   -3.1620  -17.9300 c3        1 16C     -0.080400
     38 C34         0.5900   -4.1570  -18.9620 c3        1 16C     -0.093100
     39 HN2         2.8010    3.1590    0.3300 hn        1 16C      0.464300
     40 H2          0.4010    2.5500    0.5080 hx        1 16C      0.126700
     41 H11         0.3440    0.4400   -0.7520 h1        1 16C      0.094700
     42 H12         0.0710    0.0450    1.0220 h1        1 16C      0.094700
     43 HO1         1.9500   -1.0360    0.9060 ho        1 16C      0.443000
     44 H3          2.3690    1.0420    2.4070 h1        1 16C      0.064700
     45 H4          3.1860    3.1430    2.9670 ha        1 16C      0.147000
     46 H5          1.9720    5.2230    3.1160 ha        1 16C      0.154000
     47 H61        -0.0050    4.9720    1.3300 hc        1 16C      0.061200
     48 H62        -0.5330    3.5730    2.3530 hc        1 16C      0.061200
     49 H71        -1.7740    5.3770    3.2070 hc        1 16C      0.056700
     50 H72        -0.4100    5.2340    4.3830 hc        1 16C      0.056700
     51 H81         0.8110    7.0860    3.1580 hc        1 16C      0.039200
     52 H82        -0.5770    7.2230    2.0100 hc        1 16C      0.039200
     53 H91        -0.7290    7.5990    5.0820 hc        1 16C      0.046200
     54 H92        -2.1170    7.7360    3.9350 hc        1 16C      0.046200
     55 H101       -0.9270    9.5910    2.7160 hc        1 16C      0.040200
     56 H102        0.4620    9.4540    3.8620 hc        1 16C      0.040200
     57 H111       -1.0770    9.9690    5.7880 hc        1 16C      0.042200
     58 H112       -2.4650   10.1070    4.6420 hc        1 16C      0.042200
     59 H121        0.1130   11.8250    4.5690 hc        1 16C      0.040200
     60 H122       -1.2750   11.9620    3.4240 hc        1 16C      0.040200
     61 H131       -1.4250   12.3390    6.4960 hc        1 16C      0.041200
     62 H132       -2.8140   12.4770    5.3500 hc        1 16C      0.041200
     63 H141       -0.2350   14.1950    5.2770 hc        1 16C      0.039700
     64 H142       -1.6240   14.3330    4.1310 hc        1 16C      0.039700
     65 H151       -1.7730   14.7100    7.2040 hc        1 16C      0.040700
     66 H152       -3.1620   14.8480    6.0590 hc        1 16C      0.040700
     67 H161       -1.9730   16.7040    4.8400 hc        1 16C      0.039700
     68 H162       -0.5840   16.5670    5.9850 hc        1 16C      0.039700
     69 H171       -2.1210   17.0790    7.9110 hc        1 16C      0.038700
     70 H172       -3.5100   17.2170    6.7660 hc        1 16C      0.038700
     71 H181       -0.9470   18.9610    6.7180 hc        1 16C      0.033700
     72 H182       -2.5780   19.4620    7.3290 hc        1 16C      0.033700
     73 H183       -2.3400   19.0990    5.5700 hc        1 16C      0.033700
     74 HO3         0.3280    1.9350    3.6800 ho        1 16C      0.446000
     75 H201        3.5630    1.6620   -2.7240 hc        1 16C      0.109700
     76 H202        2.2480    0.5370   -2.1560 hc        1 16C      0.109700
     77 H211        0.6140    1.6620   -3.7080 hc        1 16C      0.068200
     78 H212        1.8950    2.8170   -4.2480 hc        1 16C      0.068200
     79 H221        2.0230   -0.2750   -4.5140 hc        1 16C      0.049200
     80 H222        3.2950    0.8860   -5.0660 hc        1 16C      0.049200
     81 H231        1.6220    1.9910   -6.5920 hc        1 16C      0.047700
     82 H232        0.3520    0.8290   -6.0420 hc        1 16C      0.047700
     83 H241        1.7600   -1.0950   -6.8570 hc        1 16C      0.043200
     84 H242        3.0290    0.0670   -7.4080 hc        1 16C      0.043200
     85 H251        1.3560    1.1680   -8.9350 hc        1 16C      0.043200
     86 H252        0.0870    0.0070   -8.3840 hc        1 16C      0.043200
     87 H261        1.4940   -1.9160   -9.2000 hc        1 16C      0.041200
     88 H262        2.7620   -0.7550   -9.7520 hc        1 16C      0.041200
     89 H271        1.0890    0.3460  -11.2790 hc        1 16C      0.041200
     90 H272       -0.1780   -0.8150  -10.7280 hc        1 16C      0.041200
     91 H281        2.4960   -1.5770  -12.0960 hc        1 16C      0.040700
     92 H282        1.2280   -2.7380  -11.5450 hc        1 16C      0.040700
     93 H291       -0.4450   -1.6370  -13.0720 hc        1 16C      0.040700
     94 H292        0.8230   -0.4760  -13.6230 hc        1 16C      0.040700
     95 H301        2.2300   -2.3990  -14.4410 hc        1 16C      0.039700
     96 H302        0.9620   -3.5600  -13.8890 hc        1 16C      0.039700
     97 H311       -0.7110   -2.4590  -15.4170 hc        1 16C      0.039700
     98 H312        0.5570   -1.2980  -15.9680 hc        1 16C      0.039700
     99 H321        1.9630   -3.2200  -16.7860 hc        1 16C      0.039700
    100 H322        0.6960   -4.3820  -16.2350 hc        1 16C      0.039700
    101 H331       -0.9760   -3.2810  -17.7600 hc        1 16C      0.038700
    102 H332        0.2910   -2.1190  -18.3110 hc        1 16C      0.038700
    103 H341        0.4110   -5.2020  -18.6110 hc        1 16C      0.033367
    104 H342        0.0360   -4.0080  -19.9210 hc        1 16C      0.033367
    105 H343        1.6820   -4.0370  -19.1630 hc        1 16C      0.033367
    106 H22         3.1470    1.5720   -0.1010 hn        1 16C      0.464300
@<TRIPOS>BOND
     1    1    2 2   
     2    2    3 1   
     3    2   24 1   
     4    3    4 1   
     5    3   39 1   
     6    3  106 1   
     7    4    5 1   
     8    4    7 1   
     9    4   40 1   
    10    5    6 1   
    11    5   41 1   
    12    5   42 1   
    13    6   43 1   
    14    7    8 1   
    15    7   23 1   
    16    7   44 1   
    17    8    9 2   
    18    8   45 1   
    19    9   10 1   
    20    9   46 1   
    21   10   11 1   
    22   10   47 1   
    23   10   48 1   
    24   11   12 1   
    25   11   49 1   
    26   11   50 1   
    27   12   13 1   
    28   12   51 1   
    29   12   52 1   
    30   13   14 1   
    31   13   53 1   
    32   13   54 1   
    33   14   15 1   
    34   14   55 1   
    35   14   56 1   
    36   15   16 1   
    37   15   57 1   
    38   15   58 1   
    39   16   17 1   
    40   16   59 1   
    41   16   60 1   
    42   17   18 1   
    43   17   61 1   
    44   17   62 1   
    45   18   19 1   
    46   18   63 1   
    47   18   64 1   
    48   19   20 1   
    49   19   65 1   
    50   19   66 1   
    51   20   21 1   
    52   20   67 1   
    53   20   68 1   
    54   21   22 1   
    55   21   69 1   
    56   21   70 1   
    57   22   71 1   
    58   22   72 1   
    59   22   73 1   
    60   23   74 1   
    61   24   25 1   
    62   24   75 1   
    63   24   76 1   
    64   25   26 1   
    65   25   77 1   
    66   25   78 1   
    67   26   27 1   
    68   26   79 1   
    69   26   80 1   
    70   27   28 1   
    71   27   81 1   
    72   27   82 1   
    73   28   29 1   
    74   28   83 1   
    75   28   84 1   
    76   29   30 1   
    77   29   85 1   
    78   29   86 1   
    79   30   31 1   
    80   30   87 1   
    81   30   88 1   
    82   31   32 1   
    83   31   89 1   
    84   31   90 1   
    85   32   33 1   
    86   32   91 1   
    87   32   92 1   
    88   33   34 1   
    89   33   93 1   
    90   33   94 1   
    91   34   35 1   
    92   34   95 1   
    93   34   96 1   
    94   35   36 1   
    95   35   97 1   
    96   35   98 1   
    97   36   37 1   
    98   36   99 1   
    99   36  100 1   
   100   37   38 1   
   101   37  101 1   
   102   37  102 1   
   103   38  103 1   
   104   38  104 1   
   105   38  105 1   
@<TRIPOS>SUBSTRUCTURE
     1 16C         1 TEMP              0 ****  ****    0 ROOT
