@<TRIPOS>MOLECULE
16C
  105   102     1     0     0
SMALL
bcc


@<TRIPOS>ATOM
      1 O19        -3.6360   -1.9930   -0.7390 o         1 16C     -0.386000
      2 C19        -2.5490   -1.5970   -0.3680 c1        1 16C      0.304000
      3 N2         -2.2890   -1.4330    1.0180 n2        1 16C     -0.384000
      4 C2         -3.3160   -1.6830    1.9670 c3        1 16C     -0.040000
      5 C1         -3.4080   -3.1700    2.2310 c3        1 16C     -0.036000
      6 O1         -4.6150   -3.6680    1.6990 oh        1 16C     -0.334000
      7 C3         -2.9970   -0.9610    3.2560 c3        1 16C      0.054000
      8 C4         -4.1890   -1.0360    4.1840 c2        1 16C     -0.237000
      9 C5         -4.2120   -0.3000    5.3130 c1        1 16C     -0.116000
     10 C6         -3.0450    0.6010    5.6520 c2        1 16C     -0.152000
     11 C7         -3.4070    1.4720    6.8360 c3        1 16C     -0.154000
     12 C8         -2.2360    2.3670    7.1800 c3        1 16C     -0.158000
     13 C9         -2.7250    3.5430    7.9970 c3        1 16C     -0.157000
     14 C10        -1.5680    4.4770    8.2780 c3        1 16C     -0.157000
     15 C11        -2.0270    5.9100    8.1230 c3        1 16C     -0.158000
     16 C12        -0.8570    6.8420    8.3510 c3        1 16C     -0.158000
     17 C13        -0.9430    8.0040    7.3860 c3        1 16C     -0.157000
     18 C14        -0.5800    9.2850    8.1050 c3        1 16C     -0.158000
     19 C15        -0.6970   10.4510    7.1480 c3        1 16C     -0.158000
     20 C16        -0.8250   11.7380    7.9340 c3        1 16C     -0.158000
     21 C17        -1.2390   12.8570    7.0050 c3        1 16C     -0.159000
     22 C18        -1.7060   14.0430    7.8210 c3        1 16C     -0.210000
     23 O3         -1.8850   -1.5670    3.8710 oh        1 16C     -0.329000
     24 C20        -1.4850   -1.2440   -1.3830 c3        1 16C     -0.176000
     25 C21        -1.5220   -2.2410   -2.5210 c3        1 16C     -0.153000
     26 C22        -0.1080   -2.5950   -2.9280 c3        1 16C     -0.158000
     27 C23        -0.0870   -2.9900   -4.3890 c3        1 16C     -0.157000
     28 C24         1.2860   -3.5130   -4.7500 c3        1 16C     -0.158000
     29 C25         1.3650   -3.7320   -6.2460 c3        1 16C     -0.158000
     30 C26         2.7190   -4.3060   -6.6010 c3        1 16C     -0.157000
     31 C27         2.7070   -4.7730   -8.0400 c3        1 16C     -0.158000
     32 C28         3.9980   -5.5010   -8.3450 c3        1 16C     -0.157000
     33 C29         3.9330   -6.0800   -9.7420 c3        1 16C     -0.158000
     34 C30         5.1340   -6.9690   -9.9760 c3        1 16C     -0.157000
     35 C31         4.9590   -7.7220  -11.2760 c3        1 16C     -0.158000
     36 C32         5.9790   -8.8370  -11.3550 c3        1 16C     -0.158000
     37 C33         5.6940   -9.6970  -12.5670 c3        1 16C     -0.159000
     38 C34         6.6200  -10.8940  -12.5650 c3        1 16C     -0.210000
     39 HN2        -1.4700   -1.1470    1.2980 hn        1 16C      0.234000
     40 H2         -4.1700   -1.3610    1.6160 h1        1 16C      0.132000
     41 H11        -3.3860   -3.3320    3.1970 h1        1 16C      0.084500
     42 H12        -2.6520   -3.6240    1.8060 h1        1 16C      0.084500
     43 HO1        -4.7160   -4.5190    1.9380 ho        1 16C      0.229000
     44 H3         -2.7930   -0.0250    3.0640 h1        1 16C      0.124000
     45 H4         -4.9420   -1.6180    3.9660 ha        1 16C      0.140000
     46 H5         -4.9810   -0.3480    5.9120 ha        1 16C      0.126000
     47 H61        -2.8360    1.1680    4.8820 ha        1 16C      0.101500
     48 H62        -2.2650    0.0550    5.8750 ha        1 16C      0.101500
     49 H71        -3.6210    0.9050    7.6040 hc        1 16C      0.080000
     50 H72        -4.1830    2.0220    6.6100 hc        1 16C      0.080000
     51 H81        -1.8210    2.6920    6.3560 hc        1 16C      0.081000
     52 H82        -1.5800    1.8600    7.6980 hc        1 16C      0.081000
     53 H91        -3.0960    3.2210    8.8430 hc        1 16C      0.079000
     54 H92        -3.4160    4.0220    7.4990 hc        1 16C      0.079000
     55 H101       -0.8430    4.2970    7.6470 hc        1 16C      0.079000
     56 H102       -1.2480    4.3340    9.1910 hc        1 16C      0.079000
     57 H111       -2.3790    6.0440    7.2200 hc        1 16C      0.079000
     58 H112       -2.7280    6.1010    8.7780 hc        1 16C      0.079000
     59 H121       -0.8820    7.1780    9.2690 hc        1 16C      0.079000
     60 H122       -0.0210    6.3570    8.2040 hc        1 16C      0.079000
     61 H131       -0.3210    7.8590    6.6450 hc        1 16C      0.079000
     62 H132       -1.8540    8.0730    7.0380 hc        1 16C      0.079000
     63 H141        0.3380    9.2250    8.4350 hc        1 16C      0.079000
     64 H142       -1.1890    9.4190    8.8590 hc        1 16C      0.079000
     65 H151       -1.4890   10.3330    6.5850 hc        1 16C      0.079000
     66 H152        0.1010   10.4920    6.5840 hc        1 16C      0.079000
     67 H161       -1.5000   11.6270    8.6330 hc        1 16C      0.079000
     68 H162        0.0360   11.9560    8.3440 hc        1 16C      0.079000
     69 H171       -1.9680   12.5500    6.4300 hc        1 16C      0.078000
     70 H172       -0.4770   13.1220    6.4530 hc        1 16C      0.078000
     71 H181       -2.0520   14.7370    7.2210 hc        1 16C      0.072000
     72 H182       -2.4160   13.7580    8.4340 hc        1 16C      0.072000
     73 H183       -0.9540   14.4010    8.3370 hc        1 16C      0.072000
     74 HO3        -2.1600   -2.0700    4.5510 ho        1 16C      0.205000
     75 H201       -0.6050   -1.2690   -0.9560 hc        1 16C      0.103500
     76 H202       -1.6520   -0.3450   -1.7320 hc        1 16C      0.103500
     77 H211       -1.9890   -3.0500   -2.2300 hc        1 16C      0.099500
     78 H212       -1.9920   -1.8490   -3.2830 hc        1 16C      0.099500
     79 H221        0.4740   -1.8210   -2.7910 hc        1 16C      0.077500
     80 H222        0.2110   -3.3430   -2.3830 hc        1 16C      0.077500
     81 H231       -0.2950   -2.2090   -4.9400 hc        1 16C      0.082500
     82 H232       -0.7540   -3.6880   -4.5470 hc        1 16C      0.082500
     83 H241        1.9640   -2.8620   -4.4800 hc        1 16C      0.078000
     84 H242        1.4450   -4.3600   -4.2880 hc        1 16C      0.078000
     85 H251        0.6630   -4.3550   -6.5210 hc        1 16C      0.080000
     86 H252        1.2410   -2.8780   -6.7070 hc        1 16C      0.080000
     87 H261        2.9160   -5.0630   -6.0140 hc        1 16C      0.078500
     88 H262        3.4050   -3.6180   -6.4870 hc        1 16C      0.078500
     89 H271        2.6210   -3.9990   -8.6330 hc        1 16C      0.079000
     90 H272        1.9500   -5.3760   -8.1810 hc        1 16C      0.079000
     91 H281        4.1240   -6.2240   -7.6980 hc        1 16C      0.079000
     92 H282        4.7470   -4.8760   -8.2860 hc        1 16C      0.079000
     93 H291        3.1140   -6.6060   -9.8390 hc        1 16C      0.079000
     94 H292        3.9330   -5.3520  -10.3960 hc        1 16C      0.079000
     95 H301        5.2170   -7.6060   -9.2380 hc        1 16C      0.079000
     96 H302        5.9420   -6.4200  -10.0230 hc        1 16C      0.079000
     97 H311        5.0870   -7.1090  -12.0280 hc        1 16C      0.079000
     98 H312        4.0580   -8.1010  -11.3140 hc        1 16C      0.079000
     99 H321        6.8760   -8.4530  -11.4320 hc        1 16C      0.079000
    100 H322        5.9270   -9.3850  -10.5470 hc        1 16C      0.079000
    101 H331        5.8400   -9.1730  -13.3800 hc        1 16C      0.078000
    102 H332        4.7650  -10.0030  -12.5380 hc        1 16C      0.078000
    103 H341        7.5350  -10.5990  -12.7550 hc        1 16C      0.072000
    104 H342        6.3320  -11.5310  -13.2530 hc        1 16C      0.072000
    105 H343        6.5920  -11.3270  -11.6860 hc        1 16C      0.072000
@<TRIPOS>BOND
     1    1    2 1   
     2    2   24 1   
     3    3    4 1   
     4    3   39 1   
     5    4    5 1   
     6    4    7 1   
     7    4   40 1   
     8    5    6 1   
     9    5   41 1   
    10    5   42 1   
    11    6   43 1   
    12    7    8 1   
    13    7   23 1   
    14    7   44 1   
    15    8    9 1   
    16    8   45 1   
    17    9   46 1   
    18   10   11 1   
    19   10   47 1   
    20   10   48 1   
    21   11   12 1   
    22   11   49 1   
    23   11   50 1   
    24   12   13 1   
    25   12   51 1   
    26   12   52 1   
    27   13   14 1   
    28   13   53 1   
    29   13   54 1   
    30   14   15 1   
    31   14   55 1   
    32   14   56 1   
    33   15   16 1   
    34   15   57 1   
    35   15   58 1   
    36   16   17 1   
    37   16   59 1   
    38   16   60 1   
    39   17   18 1   
    40   17   61 1   
    41   17   62 1   
    42   18   19 1   
    43   18   63 1   
    44   18   64 1   
    45   19   20 1   
    46   19   65 1   
    47   19   66 1   
    48   20   21 1   
    49   20   67 1   
    50   20   68 1   
    51   21   22 1   
    52   21   69 1   
    53   21   70 1   
    54   22   71 1   
    55   22   72 1   
    56   22   73 1   
    57   23   74 1   
    58   24   25 1   
    59   24   75 1   
    60   24   76 1   
    61   25   26 1   
    62   25   77 1   
    63   25   78 1   
    64   26   27 1   
    65   26   79 1   
    66   26   80 1   
    67   27   28 1   
    68   27   81 1   
    69   27   82 1   
    70   28   29 1   
    71   28   83 1   
    72   28   84 1   
    73   29   30 1   
    74   29   85 1   
    75   29   86 1   
    76   30   31 1   
    77   30   87 1   
    78   30   88 1   
    79   31   32 1   
    80   31   89 1   
    81   31   90 1   
    82   32   33 1   
    83   32   91 1   
    84   32   92 1   
    85   33   34 1   
    86   33   93 1   
    87   33   94 1   
    88   34   35 1   
    89   34   95 1   
    90   34   96 1   
    91   35   36 1   
    92   35   97 1   
    93   35   98 1   
    94   36   37 1   
    95   36   99 1   
    96   36  100 1   
    97   37   38 1   
    98   37  101 1   
    99   37  102 1   
   100   38  103 1   
   101   38  104 1   
   102   38  105 1   
@<TRIPOS>SUBSTRUCTURE
     1 16C         1 TEMP              0 ****  ****    0 ROOT
