@<TRIPOS>MOLECULE
16C
  106   105     1     0     0
SMALL
bcc


@<TRIPOS>ATOM
      1 O19        -0.7330   -1.0870    1.3110 o         1 16C     -0.417100
      2 C19         0.0540   -0.7570    0.4370 c         1 16C      0.553100
      3 N2          0.9210    0.4500    0.7060 n4        1 16C     -0.665800
      4 C2          0.7640    1.0500    2.0730 c3        1 16C      0.121500
      5 C1          1.4190    0.2030    3.1790 c3        1 16C      0.114400
      6 O1          2.6420   -0.3260    2.6930 oh        1 16C     -0.637800
      7 C3          1.2890    2.5150    2.0640 c3        1 16C      0.177300
      8 C4          2.7280    2.5940    1.6880 c2        1 16C     -0.298200
      9 C5          3.3790    3.6070    1.1080 c2        1 16C     -0.077200
     10 C6          2.8220    4.8930    0.6260 c3        1 16C     -0.081200
     11 C7          2.4290    5.8070    1.7730 c3        1 16C     -0.079400
     12 C8          1.6000    6.9730    1.2800 c3        1 16C     -0.083400
     13 C9          1.2460    7.9120    2.4130 c3        1 16C     -0.080400
     14 C10         0.4020    9.0690    1.9210 c3        1 16C     -0.079400
     15 C11         0.0470   10.0080    3.0540 c3        1 16C     -0.079400
     16 C12        -0.7990   11.1630    2.5620 c3        1 16C     -0.079400
     17 C13        -1.1530   12.1040    3.6940 c3        1 16C     -0.079400
     18 C14        -2.0010   13.2580    3.2030 c3        1 16C     -0.079400
     19 C15        -2.3540   14.2000    4.3350 c3        1 16C     -0.079400
     20 C16        -3.2020   15.3540    3.8440 c3        1 16C     -0.079400
     21 C17        -3.5560   16.2970    4.9740 c3        1 16C     -0.079400
     22 C18        -4.4010   17.4470    4.4900 c3        1 16C     -0.093100
     23 O3          0.4150    3.1790    1.1590 oh        1 16C     -0.634800
     24 C20         0.2740   -1.4320   -0.8850 c3        1 16C     -0.164400
     25 C21         0.4440   -0.4770   -2.0480 c3        1 16C     -0.094400
     26 C22         0.3980   -1.2380   -3.3600 c3        1 16C     -0.079400
     27 C23         0.6040   -0.3030   -4.5330 c3        1 16C     -0.080400
     28 C24         0.5490   -1.0590   -5.8440 c3        1 16C     -0.079400
     29 C25         0.7550   -0.1270   -7.0190 c3        1 16C     -0.078400
     30 C26         0.7000   -0.8810   -8.3300 c3        1 16C     -0.079400
     31 C27         0.9040    0.0500   -9.5060 c3        1 16C     -0.078400
     32 C28         0.8480   -0.7040  -10.8180 c3        1 16C     -0.079400
     33 C29         1.0510    0.2270  -11.9940 c3        1 16C     -0.078400
     34 C30         0.9940   -0.5260  -13.3060 c3        1 16C     -0.079400
     35 C31         1.1960    0.4040  -14.4830 c3        1 16C     -0.079400
     36 C32         1.1390   -0.3490  -15.7940 c3        1 16C     -0.079400
     37 C33         1.3400    0.5810  -16.9730 c3        1 16C     -0.079400
     38 C34         1.2830   -0.1650  -18.2810 c3        1 16C     -0.093100
     39 HN2         1.9080    0.1830    0.5830 hn        1 16C      0.478300
     40 H2         -0.3490    1.0930    2.2890 hx        1 16C      0.130700
     41 H11         0.7310   -0.6460    3.4520 h1        1 16C      0.075200
     42 H12         1.5900    0.8560    4.0760 h1        1 16C      0.075200
     43 HO1         3.1290   -0.6730    3.4520 ho        1 16C      0.452000
     44 H3          1.1490    2.9240    3.1080 h1        1 16C      0.085700
     45 H4          3.3090    1.7090    2.0150 ha        1 16C      0.147000
     46 H5          4.4720    3.5030    0.9580 ha        1 16C      0.142000
     47 H61         1.9370    4.7040   -0.0410 hc        1 16C      0.063700
     48 H62         3.5870    5.4180   -0.0080 hc        1 16C      0.063700
     49 H71         3.3540    6.1880    2.2800 hc        1 16C      0.043700
     50 H72         1.8500    5.2300    2.5430 hc        1 16C      0.043700
     51 H81         2.1710    7.5330    0.4920 hc        1 16C      0.044200
     52 H82         0.6610    6.5920    0.7980 hc        1 16C      0.044200
     53 H91         2.1860    8.3060    2.8830 hc        1 16C      0.042200
     54 H92         0.6880    7.3510    3.2090 hc        1 16C      0.042200
     55 H101       -0.5380    8.6770    1.4500 hc        1 16C      0.042200
     56 H102        0.9600    9.6310    1.1270 hc        1 16C      0.042200
     57 H111       -0.5090    9.4470    3.8500 hc        1 16C      0.041200
     58 H112        0.9870   10.4040    3.5230 hc        1 16C      0.041200
     59 H121       -0.2430   11.7260    1.7660 hc        1 16C      0.041200
     60 H122       -1.7390   10.7690    2.0930 hc        1 16C      0.041200
     61 H131       -0.2140   12.5000    4.1620 hc        1 16C      0.040700
     62 H132       -1.7080   11.5420    4.4910 hc        1 16C      0.040700
     63 H141       -1.4460   13.8200    2.4060 hc        1 16C      0.040200
     64 H142       -2.9410   12.8630    2.7360 hc        1 16C      0.040200
     65 H151       -1.4140   14.5960    4.8020 hc        1 16C      0.040200
     66 H152       -2.9080   13.6390    5.1330 hc        1 16C      0.040200
     67 H161       -2.6490   15.9150    3.0460 hc        1 16C      0.040200
     68 H162       -4.1430   14.9580    3.3770 hc        1 16C      0.040200
     69 H171       -2.6150   16.6910    5.4400 hc        1 16C      0.039200
     70 H172       -4.1080   15.7330    5.7720 hc        1 16C      0.039200
     71 H181       -5.3550   17.0750    4.0450 hc        1 16C      0.034033
     72 H182       -4.6500   18.1290    5.3380 hc        1 16C      0.034033
     73 H183       -3.8580   18.0350    3.7120 hc        1 16C      0.034033
     74 HO3         0.4870    4.1310    1.3210 ho        1 16C      0.452000
     75 H201       -0.6180   -2.0990   -1.0630 hc        1 16C      0.120200
     76 H202        1.1770   -2.0990   -0.7890 hc        1 16C      0.120200
     77 H211        1.4260    0.0610   -1.9760 hc        1 16C      0.050200
     78 H212       -0.3730    0.2920   -2.0410 hc        1 16C      0.050200
     79 H221       -0.5920   -1.7560   -3.4610 hc        1 16C      0.057200
     80 H222        1.1930   -2.0300   -3.3640 hc        1 16C      0.057200
     81 H231        1.5960    0.2120   -4.4370 hc        1 16C      0.043700
     82 H232       -0.1870    0.4930   -4.5250 hc        1 16C      0.043700
     83 H241       -0.4430   -1.5730   -5.9410 hc        1 16C      0.046200
     84 H242        1.3390   -1.8560   -5.8530 hc        1 16C      0.046200
     85 H251       -0.0340    0.6710   -7.0100 hc        1 16C      0.041200
     86 H252        1.7480    0.3880   -6.9230 hc        1 16C      0.041200
     87 H261        1.4890   -1.6780   -8.3400 hc        1 16C      0.042700
     88 H262       -0.2920   -1.3960   -8.4270 hc        1 16C      0.042700
     89 H271        0.1150    0.8480   -9.4970 hc        1 16C      0.040200
     90 H272        1.8960    0.5650   -9.4110 hc        1 16C      0.040200
     91 H281        1.6370   -1.5010  -10.8280 hc        1 16C      0.041200
     92 H282       -0.1440   -1.2190  -10.9140 hc        1 16C      0.041200
     93 H291        2.0430    0.7430  -11.9000 hc        1 16C      0.039700
     94 H292        0.2620    1.0240  -11.9840 hc        1 16C      0.039700
     95 H301        0.0020   -1.0420  -13.4010 hc        1 16C      0.040700
     96 H302        1.7840   -1.3230  -13.3170 hc        1 16C      0.040700
     97 H311        0.4070    1.2020  -14.4720 hc        1 16C      0.039700
     98 H312        2.1880    0.9200  -14.3890 hc        1 16C      0.039700
     99 H321        0.1470   -0.8650  -15.8890 hc        1 16C      0.040200
    100 H322        1.9280   -1.1460  -15.8060 hc        1 16C      0.040200
    101 H331        2.3320    1.0970  -16.8760 hc        1 16C      0.038700
    102 H332        0.5510    1.3790  -16.9580 hc        1 16C      0.038700
    103 H341        0.2920   -0.6650  -18.4070 hc        1 16C      0.034367
    104 H342        2.0780   -0.9480  -18.3240 hc        1 16C      0.034367
    105 H343        1.4340    0.5380  -19.1350 hc        1 16C      0.034367
    106 H22         0.6900    1.1790    0.0130 hn        1 16C      0.478300
@<TRIPOS>BOND
     1    1    2 2   
     2    2    3 1   
     3    2   24 1   
     4    3    4 1   
     5    3   39 1   
     6    3  106 1   
     7    4    5 1   
     8    4    7 1   
     9    4   40 1   
    10    5    6 1   
    11    5   41 1   
    12    5   42 1   
    13    6   43 1   
    14    7    8 1   
    15    7   23 1   
    16    7   44 1   
    17    8    9 2   
    18    8   45 1   
    19    9   10 1   
    20    9   46 1   
    21   10   11 1   
    22   10   47 1   
    23   10   48 1   
    24   11   12 1   
    25   11   49 1   
    26   11   50 1   
    27   12   13 1   
    28   12   51 1   
    29   12   52 1   
    30   13   14 1   
    31   13   53 1   
    32   13   54 1   
    33   14   15 1   
    34   14   55 1   
    35   14   56 1   
    36   15   16 1   
    37   15   57 1   
    38   15   58 1   
    39   16   17 1   
    40   16   59 1   
    41   16   60 1   
    42   17   18 1   
    43   17   61 1   
    44   17   62 1   
    45   18   19 1   
    46   18   63 1   
    47   18   64 1   
    48   19   20 1   
    49   19   65 1   
    50   19   66 1   
    51   20   21 1   
    52   20   67 1   
    53   20   68 1   
    54   21   22 1   
    55   21   69 1   
    56   21   70 1   
    57   22   71 1   
    58   22   72 1   
    59   22   73 1   
    60   23   74 1   
    61   24   25 1   
    62   24   75 1   
    63   24   76 1   
    64   25   26 1   
    65   25   77 1   
    66   25   78 1   
    67   26   27 1   
    68   26   79 1   
    69   26   80 1   
    70   27   28 1   
    71   27   81 1   
    72   27   82 1   
    73   28   29 1   
    74   28   83 1   
    75   28   84 1   
    76   29   30 1   
    77   29   85 1   
    78   29   86 1   
    79   30   31 1   
    80   30   87 1   
    81   30   88 1   
    82   31   32 1   
    83   31   89 1   
    84   31   90 1   
    85   32   33 1   
    86   32   91 1   
    87   32   92 1   
    88   33   34 1   
    89   33   93 1   
    90   33   94 1   
    91   34   35 1   
    92   34   95 1   
    93   34   96 1   
    94   35   36 1   
    95   35   97 1   
    96   35   98 1   
    97   36   37 1   
    98   36   99 1   
    99   36  100 1   
   100   37   38 1   
   101   37  101 1   
   102   37  102 1   
   103   38  103 1   
   104   38  104 1   
   105   38  105 1   
@<TRIPOS>SUBSTRUCTURE
     1 16C         1 TEMP              0 ****  ****    0 ROOT
