@<TRIPOS>MOLECULE
16C
  106   105     1     0     0
SMALL
bcc


@<TRIPOS>ATOM
      1 O19         3.1460    2.9300   -1.4460 o         1 16C     -0.414100
      2 C19         2.6860    1.8190   -1.2360 c         1 16C      0.554100
      3 N2          2.4310    1.4920    0.2250 ny        1 16C     -0.676800
      4 C2          1.1760    2.1390    0.7330 c3        1 16C      0.058500
      5 C1         -0.0860    1.4860    0.1270 c3        1 16C      0.112400
      6 O1          0.0290    0.0800    0.1890 oh        1 16C     -0.624800
      7 C3          1.1060    2.0520    2.2920 c3        1 16C      0.186300
      8 C4          2.3570    2.5430    2.9330 c2        1 16C     -0.313200
      9 C5          2.7760    3.8090    3.0440 c2        1 16C     -0.077200
     10 C6          2.1270    5.0270    2.5050 c3        1 16C     -0.085200
     11 C7          1.6630    5.9380    3.6280 c3        1 16C     -0.076400
     12 C8          1.0480    7.2060    3.0760 c3        1 16C     -0.080400
     13 C9          0.5770    8.1130    4.1930 c3        1 16C     -0.080400
     14 C10        -0.0390    9.3820    3.6440 c3        1 16C     -0.078400
     15 C11        -0.5090   10.2890    4.7600 c3        1 16C     -0.079400
     16 C12        -1.1250   11.5590    4.2110 c3        1 16C     -0.078400
     17 C13        -1.5950   12.4670    5.3270 c3        1 16C     -0.079400
     18 C14        -2.2100   13.7360    4.7790 c3        1 16C     -0.078400
     19 C15        -2.6800   14.6450    5.8950 c3        1 16C     -0.079400
     20 C16        -3.2950   15.9150    5.3470 c3        1 16C     -0.079400
     21 C17        -3.7650   16.8250    6.4630 c3        1 16C     -0.080400
     22 C18        -4.3780   18.0910    5.9220 c3        1 16C     -0.093100
     23 O3         -0.0780    2.7210    2.6710 oh        1 16C     -0.584800
     24 C20         2.3590    0.7240   -2.2060 c3        1 16C     -0.157400
     25 C21         2.2960    1.2630   -3.6230 c3        1 16C     -0.081400
     26 C22         2.0410    0.1350   -4.6010 c3        1 16C     -0.080400
     27 C23         1.9600    0.6630   -6.0180 c3        1 16C     -0.079400
     28 C24         1.7100   -0.4600   -7.0020 c3        1 16C     -0.079400
     29 C25         1.6270    0.0650   -8.4200 c3        1 16C     -0.079400
     30 C26         1.3810   -1.0570   -9.4050 c3        1 16C     -0.079400
     31 C27         1.2960   -0.5330  -10.8230 c3        1 16C     -0.079400
     32 C28         1.0520   -1.6550  -11.8090 c3        1 16C     -0.079400
     33 C29         0.9670   -1.1300  -13.2260 c3        1 16C     -0.079400
     34 C30         0.7250   -2.2520  -14.2130 c3        1 16C     -0.079400
     35 C31         0.6400   -1.7280  -15.6300 c3        1 16C     -0.079400
     36 C32         0.3990   -2.8500  -16.6180 c3        1 16C     -0.079400
     37 C33         0.3130   -2.3270  -18.0360 c3        1 16C     -0.080400
     38 C34         0.0740   -3.4400  -19.0220 c3        1 16C     -0.093100
     39 HN2         3.2160    1.8240    0.8010 hn        1 16C      0.463800
     40 H2          1.2040    3.2260    0.4260 hx        1 16C      0.120700
     41 H11        -0.9790    1.8780    0.6850 h1        1 16C      0.093700
     42 H12        -0.1730    1.7490   -0.9630 h1        1 16C      0.093700
     43 HO1        -0.5740   -0.2450    0.8710 ho        1 16C      0.444000
     44 H3          0.9280    0.9690    2.5680 h1        1 16C      0.080700
     45 H4          2.9450    1.7410    3.4170 ha        1 16C      0.147000
     46 H5          3.7120    4.0120    3.6020 ha        1 16C      0.152000
     47 H61         2.8740    5.5800    1.8700 hc        1 16C      0.057200
     48 H62         1.2560    4.7790    1.8420 hc        1 16C      0.057200
     49 H71         2.5330    6.1960    4.2870 hc        1 16C      0.052200
     50 H72         0.9120    5.4000    4.2660 hc        1 16C      0.052200
     51 H81         1.8020    7.7470    2.4450 hc        1 16C      0.043200
     52 H82         0.1820    6.9490    2.4110 hc        1 16C      0.043200
     53 H91         1.4430    8.3720    4.8580 hc        1 16C      0.044700
     54 H92        -0.1760    7.5730    4.8260 hc        1 16C      0.044700
     55 H101        0.7140    9.9220    3.0110 hc        1 16C      0.041200
     56 H102       -0.9050    9.1230    2.9790 hc        1 16C      0.041200
     57 H111        0.3570   10.5490    5.4250 hc        1 16C      0.042200
     58 H112       -1.2620    9.7490    5.3930 hc        1 16C      0.042200
     59 H121       -0.3730   12.0990    3.5780 hc        1 16C      0.040200
     60 H122       -1.9910   11.3000    3.5470 hc        1 16C      0.040200
     61 H131       -0.7290   12.7260    5.9920 hc        1 16C      0.041200
     62 H132       -2.3470   11.9270    5.9610 hc        1 16C      0.041200
     63 H141       -1.4580   14.2770    4.1460 hc        1 16C      0.040200
     64 H142       -3.0770   13.4780    4.1150 hc        1 16C      0.040200
     65 H151       -1.8130   14.9030    6.5600 hc        1 16C      0.040200
     66 H152       -3.4330   14.1050    6.5280 hc        1 16C      0.040200
     67 H161       -4.1610   15.6570    4.6830 hc        1 16C      0.039700
     68 H162       -2.5420   16.4550    4.7140 hc        1 16C      0.039700
     69 H171       -4.5160   16.2820    7.0950 hc        1 16C      0.038700
     70 H172       -2.8970   17.0800    7.1270 hc        1 16C      0.038700
     71 H181       -3.6360   18.6580    5.3090 hc        1 16C      0.034033
     72 H182       -5.2600   17.8580    5.2770 hc        1 16C      0.034033
     73 H183       -4.7170   18.7460    6.7600 hc        1 16C      0.034033
     74 HO3         0.1540    3.5340    3.1440 ho        1 16C      0.440000
     75 H201        1.3780    0.2400   -1.9310 hc        1 16C      0.109700
     76 H202        3.1630   -0.0610   -2.1300 hc        1 16C      0.109700
     77 H211        3.2600    1.7790   -3.8760 hc        1 16C      0.067700
     78 H212        1.4780    2.0280   -3.7010 hc        1 16C      0.067700
     79 H221        1.0820   -0.3860   -4.3380 hc        1 16C      0.049200
     80 H222        2.8650   -0.6230   -4.5290 hc        1 16C      0.049200
     81 H231        1.1340    1.4190   -6.0930 hc        1 16C      0.047700
     82 H232        2.9160    1.1880   -6.2810 hc        1 16C      0.047700
     83 H241        0.7550   -0.9870   -6.7400 hc        1 16C      0.043200
     84 H242        2.5370   -1.2160   -6.9290 hc        1 16C      0.043200
     85 H251        2.5810    0.5930   -8.6820 hc        1 16C      0.042700
     86 H252        0.8000    0.8190   -8.4940 hc        1 16C      0.042700
     87 H261        0.4270   -1.5870   -9.1430 hc        1 16C      0.041200
     88 H262        2.2080   -1.8110   -9.3320 hc        1 16C      0.041200
     89 H271        2.2490   -0.0020  -11.0850 hc        1 16C      0.041200
     90 H272        0.4680    0.2200  -10.8970 hc        1 16C      0.041200
     91 H281        1.8810   -2.4070  -11.7360 hc        1 16C      0.040700
     92 H282        0.0990   -2.1860  -11.5470 hc        1 16C      0.040700
     93 H291        0.1380   -0.3790  -13.3000 hc        1 16C      0.040200
     94 H292        1.9200   -0.5980  -13.4880 hc        1 16C      0.040200
     95 H301        1.5550   -3.0040  -14.1390 hc        1 16C      0.039700
     96 H302       -0.2270   -2.7850  -13.9510 hc        1 16C      0.039700
     97 H311       -0.1910   -0.9770  -15.7050 hc        1 16C      0.039700
     98 H312        1.5920   -1.1950  -15.8920 hc        1 16C      0.039700
     99 H321       -0.5530   -3.3830  -16.3560 hc        1 16C      0.039700
    100 H322        1.2290   -3.6010  -16.5440 hc        1 16C      0.039700
    101 H331        1.2650   -1.7920  -18.2950 hc        1 16C      0.038700
    102 H332       -0.5170   -1.5750  -18.1070 hc        1 16C      0.038700
    103 H341        0.9040   -4.1870  -18.9830 hc        1 16C      0.033367
    104 H342       -0.8830   -3.9700  -18.7950 hc        1 16C      0.033367
    105 H343        0.0140   -3.0330  -20.0600 hc        1 16C      0.033367
    106 H22         2.3290    0.4750    0.3360 hn        1 16C      0.463800
@<TRIPOS>BOND
     1    1    2 2   
     2    2    3 1   
     3    2   24 1   
     4    3    4 1   
     5    3   39 1   
     6    3  106 1   
     7    4    5 1   
     8    4    7 1   
     9    4   40 1   
    10    5    6 1   
    11    5   41 1   
    12    5   42 1   
    13    6   43 1   
    14    7    8 1   
    15    7   23 1   
    16    7   44 1   
    17    8    9 2   
    18    8   45 1   
    19    9   10 1   
    20    9   46 1   
    21   10   11 1   
    22   10   47 1   
    23   10   48 1   
    24   11   12 1   
    25   11   49 1   
    26   11   50 1   
    27   12   13 1   
    28   12   51 1   
    29   12   52 1   
    30   13   14 1   
    31   13   53 1   
    32   13   54 1   
    33   14   15 1   
    34   14   55 1   
    35   14   56 1   
    36   15   16 1   
    37   15   57 1   
    38   15   58 1   
    39   16   17 1   
    40   16   59 1   
    41   16   60 1   
    42   17   18 1   
    43   17   61 1   
    44   17   62 1   
    45   18   19 1   
    46   18   63 1   
    47   18   64 1   
    48   19   20 1   
    49   19   65 1   
    50   19   66 1   
    51   20   21 1   
    52   20   67 1   
    53   20   68 1   
    54   21   22 1   
    55   21   69 1   
    56   21   70 1   
    57   22   71 1   
    58   22   72 1   
    59   22   73 1   
    60   23   74 1   
    61   24   25 1   
    62   24   75 1   
    63   24   76 1   
    64   25   26 1   
    65   25   77 1   
    66   25   78 1   
    67   26   27 1   
    68   26   79 1   
    69   26   80 1   
    70   27   28 1   
    71   27   81 1   
    72   27   82 1   
    73   28   29 1   
    74   28   83 1   
    75   28   84 1   
    76   29   30 1   
    77   29   85 1   
    78   29   86 1   
    79   30   31 1   
    80   30   87 1   
    81   30   88 1   
    82   31   32 1   
    83   31   89 1   
    84   31   90 1   
    85   32   33 1   
    86   32   91 1   
    87   32   92 1   
    88   33   34 1   
    89   33   93 1   
    90   33   94 1   
    91   34   35 1   
    92   34   95 1   
    93   34   96 1   
    94   35   36 1   
    95   35   97 1   
    96   35   98 1   
    97   36   37 1   
    98   36   99 1   
    99   36  100 1   
   100   37   38 1   
   101   37  101 1   
   102   37  102 1   
   103   38  103 1   
   104   38  104 1   
   105   38  105 1   
@<TRIPOS>SUBSTRUCTURE
     1 16C         1 TEMP              0 ****  ****    0 ROOT
