@<TRIPOS>MOLECULE
16C
  105   104     1     0     0
SMALL
bcc


@<TRIPOS>ATOM
      1 O19         0.1160    3.3750    1.1770 o         1 16C     -0.616100
      2 C19         0.6570    4.3210    0.5690 c         1 16C      0.660100
      3 N2         -0.0390    5.4820    0.2990 n         1 16C     -0.572900
      4 C2         -1.3970    5.7060    0.7270 c3        1 16C      0.039700
      5 C1         -1.5920    7.1460    1.2530 c3        1 16C      0.125400
      6 O1         -1.4490    8.1050    0.2280 oh        1 16C     -0.607800
      7 C3         -2.4210    5.4250   -0.4190 c3        1 16C      0.152300
      8 C4         -2.6810    3.9600   -0.5400 c2        1 16C     -0.223200
      9 C5         -3.8360    3.4570   -0.9820 c2        1 16C     -0.149200
     10 C6         -4.0900    2.0060   -1.1380 c3        1 16C     -0.053200
     11 C7         -5.4730    1.6250   -0.6480 c3        1 16C     -0.076400
     12 C8         -5.7280    0.1440   -0.8330 c3        1 16C     -0.079400
     13 C9         -7.1090   -0.2400   -0.3460 c3        1 16C     -0.078400
     14 C10        -7.3640   -1.7200   -0.5310 c3        1 16C     -0.079400
     15 C11        -8.7450   -2.1050   -0.0450 c3        1 16C     -0.079400
     16 C12        -9.0000   -3.5850   -0.2300 c3        1 16C     -0.079400
     17 C13       -10.3810   -3.9700    0.2560 c3        1 16C     -0.079400
     18 C14       -10.6360   -5.4500    0.0710 c3        1 16C     -0.079400
     19 C15       -12.0170   -5.8350    0.5570 c3        1 16C     -0.079400
     20 C16       -12.2730   -7.3150    0.3720 c3        1 16C     -0.079400
     21 C17       -13.6540   -7.7010    0.8580 c3        1 16C     -0.080400
     22 C18       -13.9120   -9.1740    0.6750 c3        1 16C     -0.092100
     23 O3         -3.6030    6.1840   -0.2080 oh        1 16C     -0.609800
     24 C20         2.0960    4.2650    0.0890 c3        1 16C     -0.148400
     25 C21         2.7360    2.9420    0.4490 c3        1 16C     -0.073400
     26 C22         4.1720    2.8890   -0.0280 c3        1 16C     -0.079400
     27 C23         4.8160    1.5670    0.3310 c3        1 16C     -0.078400
     28 C24         6.2520    1.5090   -0.1440 c3        1 16C     -0.079400
     29 C25         6.8950    0.1870    0.2140 c3        1 16C     -0.079400
     30 C26         8.3320    0.1290   -0.2610 c3        1 16C     -0.078400
     31 C27         8.9750   -1.1940    0.0980 c3        1 16C     -0.079400
     32 C28        10.4110   -1.2520   -0.3770 c3        1 16C     -0.079400
     33 C29        11.0550   -2.5740   -0.0180 c3        1 16C     -0.079400
     34 C30        12.4910   -2.6330   -0.4930 c3        1 16C     -0.078400
     35 C31        13.1350   -3.9550   -0.1340 c3        1 16C     -0.079400
     36 C32        14.5710   -4.0140   -0.6090 c3        1 16C     -0.079400
     37 C33        15.2160   -5.3360   -0.2510 c3        1 16C     -0.080400
     38 C34        16.6460   -5.3990   -0.7210 c3        1 16C     -0.092100
     39 HN2         0.4000    6.2250   -0.1900 hn        1 16C      0.320500
     40 H2         -1.6210    4.9950    1.5770 h1        1 16C      0.089700
     41 H11        -2.6050    7.2180    1.7300 h1        1 16C      0.054700
     42 H12        -0.8020    7.4090    2.0070 h1        1 16C      0.054700
     43 HO1        -2.2170    8.0140   -0.3540 ho        1 16C      0.418000
     44 H3         -2.0250    5.8270   -1.3980 h1        1 16C      0.082700
     45 H4         -1.8370    3.3130   -0.2410 ha        1 16C      0.156000
     46 H5         -4.6700    4.1210   -1.2720 ha        1 16C      0.126000
     47 H61        -3.9970    1.7420   -2.2280 hc        1 16C      0.052700
     48 H62        -3.3180    1.4050   -0.5870 hc        1 16C      0.052700
     49 H71        -5.5730    1.8910    0.4370 hc        1 16C      0.041200
     50 H72        -6.2480    2.2130   -1.2070 hc        1 16C      0.041200
     51 H81        -5.6240   -0.1230   -1.9180 hc        1 16C      0.041200
     52 H82        -4.9540   -0.4440   -0.2720 hc        1 16C      0.041200
     53 H91        -7.2130    0.0270    0.7380 hc        1 16C      0.039700
     54 H92        -7.8830    0.3480   -0.9070 hc        1 16C      0.039700
     55 H101       -7.2590   -1.9880   -1.6160 hc        1 16C      0.040200
     56 H102       -6.5900   -2.3080    0.0300 hc        1 16C      0.040200
     57 H111       -8.8490   -1.8380    1.0400 hc        1 16C      0.039700
     58 H112       -9.5180   -1.5170   -0.6060 hc        1 16C      0.039700
     59 H121       -8.8950   -3.8520   -1.3150 hc        1 16C      0.039700
     60 H122       -8.2270   -4.1730    0.3310 hc        1 16C      0.039700
     61 H131      -10.4860   -3.7030    1.3410 hc        1 16C      0.039700
     62 H132      -11.1550   -3.3820   -0.3050 hc        1 16C      0.039700
     63 H141      -10.5310   -5.7170   -1.0140 hc        1 16C      0.039700
     64 H142       -9.8630   -6.0380    0.6320 hc        1 16C      0.039700
     65 H151      -12.1220   -5.5680    1.6420 hc        1 16C      0.039700
     66 H152      -12.7910   -5.2470   -0.0040 hc        1 16C      0.039700
     67 H161      -12.1680   -7.5820   -0.7130 hc        1 16C      0.039700
     68 H162      -11.4990   -7.9030    0.9330 hc        1 16C      0.039700
     69 H171      -13.7570   -7.4320    1.9420 hc        1 16C      0.038700
     70 H172      -14.4250   -7.1110    0.2970 hc        1 16C      0.038700
     71 H181      -14.9350   -9.4370    1.0400 hc        1 16C      0.032700
     72 H182      -13.8380   -9.4570   -0.4020 hc        1 16C      0.032700
     73 H183      -13.1680   -9.7790    1.2480 hc        1 16C      0.032700
     74 HO3        -4.0970    5.7610    0.5040 ho        1 16C      0.408000
     75 H201        2.6720    5.1070    0.5560 hc        1 16C      0.063200
     76 H202        2.1190    4.4090   -1.0240 hc        1 16C      0.063200
     77 H211        2.1460    2.1050   -0.0090 hc        1 16C      0.059200
     78 H212        2.6930    2.7970    1.5610 hc        1 16C      0.059200
     79 H221        4.7550    3.7280    0.4340 hc        1 16C      0.037700
     80 H222        4.2070    3.0350   -1.1400 hc        1 16C      0.037700
     81 H231        4.2320    0.7270   -0.1310 hc        1 16C      0.042700
     82 H232        4.7800    1.4210    1.4420 hc        1 16C      0.042700
     83 H241        6.8350    2.3490    0.3180 hc        1 16C      0.038700
     84 H242        6.2870    1.6550   -1.2560 hc        1 16C      0.038700
     85 H251        6.3120   -0.6530   -0.2480 hc        1 16C      0.040700
     86 H252        6.8610    0.0410    1.3260 hc        1 16C      0.040700
     87 H261        8.9150    0.9680    0.2010 hc        1 16C      0.039700
     88 H262        8.3660    0.2750   -1.3730 hc        1 16C      0.039700
     89 H271        8.3920   -2.0340   -0.3640 hc        1 16C      0.039700
     90 H272        8.9400   -1.3400    1.2100 hc        1 16C      0.039700
     91 H281       10.9950   -0.4120    0.0850 hc        1 16C      0.039700
     92 H282       10.4460   -1.1060   -1.4890 hc        1 16C      0.039700
     93 H291       10.4720   -3.4140   -0.4800 hc        1 16C      0.039700
     94 H292       11.0200   -2.7210    1.0930 hc        1 16C      0.039700
     95 H301       13.0750   -1.7930   -0.0310 hc        1 16C      0.039700
     96 H302       12.5260   -2.4870   -1.6050 hc        1 16C      0.039700
     97 H311       12.5520   -4.7950   -0.5960 hc        1 16C      0.039700
     98 H312       13.1000   -4.1010    0.9780 hc        1 16C      0.039700
     99 H321       15.1550   -3.1740   -0.1460 hc        1 16C      0.039700
    100 H322       14.6070   -3.8680   -1.7200 hc        1 16C      0.039700
    101 H331       14.6300   -6.1740   -0.7120 hc        1 16C      0.038700
    102 H332       15.1780   -5.4810    0.8620 hc        1 16C      0.038700
    103 H341       17.1020   -6.3810   -0.4470 hc        1 16C      0.032700
    104 H342       16.7030   -5.2810   -1.8300 hc        1 16C      0.032700
    105 H343       17.2520   -4.5860   -0.2520 hc        1 16C      0.032700
@<TRIPOS>BOND
     1    1    2 2   
     2    2    3 1   
     3    2   24 1   
     4    3    4 1   
     5    3   39 1   
     6    4    5 1   
     7    4    7 1   
     8    4   40 1   
     9    5    6 1   
    10    5   41 1   
    11    5   42 1   
    12    6   43 1   
    13    7    8 1   
    14    7   23 1   
    15    7   44 1   
    16    8    9 2   
    17    8   45 1   
    18    9   10 1   
    19    9   46 1   
    20   10   11 1   
    21   10   47 1   
    22   10   48 1   
    23   11   12 1   
    24   11   49 1   
    25   11   50 1   
    26   12   13 1   
    27   12   51 1   
    28   12   52 1   
    29   13   14 1   
    30   13   53 1   
    31   13   54 1   
    32   14   15 1   
    33   14   55 1   
    34   14   56 1   
    35   15   16 1   
    36   15   57 1   
    37   15   58 1   
    38   16   17 1   
    39   16   59 1   
    40   16   60 1   
    41   17   18 1   
    42   17   61 1   
    43   17   62 1   
    44   18   19 1   
    45   18   63 1   
    46   18   64 1   
    47   19   20 1   
    48   19   65 1   
    49   19   66 1   
    50   20   21 1   
    51   20   67 1   
    52   20   68 1   
    53   21   22 1   
    54   21   69 1   
    55   21   70 1   
    56   22   71 1   
    57   22   72 1   
    58   22   73 1   
    59   23   74 1   
    60   24   25 1   
    61   24   75 1   
    62   24   76 1   
    63   25   26 1   
    64   25   77 1   
    65   25   78 1   
    66   26   27 1   
    67   26   79 1   
    68   26   80 1   
    69   27   28 1   
    70   27   81 1   
    71   27   82 1   
    72   28   29 1   
    73   28   83 1   
    74   28   84 1   
    75   29   30 1   
    76   29   85 1   
    77   29   86 1   
    78   30   31 1   
    79   30   87 1   
    80   30   88 1   
    81   31   32 1   
    82   31   89 1   
    83   31   90 1   
    84   32   33 1   
    85   32   91 1   
    86   32   92 1   
    87   33   34 1   
    88   33   93 1   
    89   33   94 1   
    90   34   35 1   
    91   34   95 1   
    92   34   96 1   
    93   35   36 1   
    94   35   97 1   
    95   35   98 1   
    96   36   37 1   
    97   36   99 1   
    98   36  100 1   
    99   37   38 1   
   100   37  101 1   
   101   37  102 1   
   102   38  103 1   
   103   38  104 1   
   104   38  105 1   
@<TRIPOS>SUBSTRUCTURE
     1 16C         1 TEMP              0 ****  ****    0 ROOT
