@<TRIPOS>MOLECULE
16D
   26    25     1     0     0
SMALL
bcc


@<TRIPOS>ATOM
      1 N1         -0.0390   -0.0000   -0.0440 n4        1 16D     -0.838600
      2 C1          1.4510   -0.0000    0.0370 c3        1 16D      0.099800
      3 C2          1.9710   -0.0000    1.4710 c3        1 16D     -0.109400
      4 C3          3.4900   -0.0000    1.4550 c3        1 16D     -0.078400
      5 C4          4.0400    0.0000    2.8690 c3        1 16D     -0.078400
      6 C5          5.5580    0.0000    2.8540 c3        1 16D     -0.109400
      7 C6          6.0780    0.0000    4.2870 c3        1 16D      0.099800
      8 N2          7.5680    0.0000    4.3690 n4        1 16D     -0.838600
      9 HN11       -0.4220    0.8330    0.4170 hn        1 16D      0.469133
     10 HN12       -0.4220   -0.8330    0.4170 hn        1 16D      0.469133
     11 H11         1.8220    0.9170   -0.5080 hx        1 16D      0.117700
     12 H12         1.8220   -0.9170   -0.5080 hx        1 16D      0.117700
     13 H21         1.6030    0.9070    2.0210 hc        1 16D      0.075700
     14 H22         1.6030   -0.9070    2.0210 hc        1 16D      0.075700
     15 H31         3.8620    0.9050    0.9060 hc        1 16D      0.065700
     16 H32         3.8620   -0.9050    0.9060 hc        1 16D      0.065700
     17 H41         3.6670    0.9050    3.4180 hc        1 16D      0.065700
     18 H42         3.6670   -0.9050    3.4180 hc        1 16D      0.065700
     19 H51         5.9260   -0.9070    2.3040 hc        1 16D      0.075700
     20 H52         5.9260    0.9070    2.3040 hc        1 16D      0.075700
     21 H61         5.7070    0.9170    4.8330 hx        1 16D      0.117700
     22 H62         5.7070   -0.9170    4.8330 hx        1 16D      0.117700
     23 HN21        7.9510    0.8330    3.9080 hn        1 16D      0.469133
     24 HN22        7.9510   -0.8330    3.9080 hn        1 16D      0.469133
     25 H13        -0.3350   -0.0000   -1.0280 hn        1 16D      0.469133
     26 H23         7.8640    0.0000    5.3530 hn        1 16D      0.469133
@<TRIPOS>BOND
     1    1    2 1   
     2    1    9 1   
     3    1   10 1   
     4    1   25 1   
     5    2    3 1   
     6    2   11 1   
     7    2   12 1   
     8    3    4 1   
     9    3   13 1   
    10    3   14 1   
    11    4    5 1   
    12    4   15 1   
    13    4   16 1   
    14    5    6 1   
    15    5   17 1   
    16    5   18 1   
    17    6    7 1   
    18    6   19 1   
    19    6   20 1   
    20    7    8 1   
    21    7   21 1   
    22    7   22 1   
    23    8   23 1   
    24    8   24 1   
    25    8   26 1   
@<TRIPOS>SUBSTRUCTURE
     1 16D         1 TEMP              0 ****  ****    0 ROOT
