@<TRIPOS>MOLECULE
16D
   24    23     1     0     0
SMALL
bcc


@<TRIPOS>ATOM
      1 N1         -3.6950   -0.0040   -2.1400 n3        1 16D     -0.916800
      2 C1         -2.2690   -0.0040   -2.1400 c3        1 16D      0.158800
      3 C2         -1.7650   -0.0040   -0.7130 c3        1 16D     -0.083400
      4 C3         -0.2520    0.0010   -0.7130 c3        1 16D     -0.078400
      5 C4          0.2520   -0.0030    0.7130 c3        1 16D     -0.078400
      6 C5          1.7650    0.0060    0.7130 c3        1 16D     -0.083400
      7 C6          2.2690   -0.0010    2.1400 c3        1 16D      0.158800
      8 N2          3.6950    0.0120    2.1400 n3        1 16D     -0.916800
      9 HN11       -3.9990   -0.7490   -2.5690 hn        1 16D      0.348300
     10 HN12       -3.9990    0.7410   -2.5700 hn        1 16D      0.348300
     11 H11        -1.9440   -0.8010   -2.6000 h1        1 16D      0.024200
     12 H12        -1.9440    0.7930   -2.6000 h1        1 16D      0.024200
     13 H21        -2.0930    0.7920   -0.2520 hc        1 16D      0.046700
     14 H22        -2.0880   -0.8020   -0.2540 hc        1 16D      0.046700
     15 H31         0.0760   -0.7940   -1.1760 hc        1 16D      0.041200
     16 H32         0.0710    0.8000   -1.1710 hc        1 16D      0.041200
     17 H41        -0.0780    0.7900    1.1770 hc        1 16D      0.041200
     18 H42        -0.0680   -0.8040    1.1700 hc        1 16D      0.041200
     19 H51         2.0860    0.8080    0.2590 hc        1 16D      0.046700
     20 H52         2.0950   -0.7850    0.2470 hc        1 16D      0.046700
     21 H61         1.9370    0.7890    2.6060 h1        1 16D      0.024200
     22 H62         1.9510   -0.8050    2.5930 h1        1 16D      0.024200
     23 HN21        4.0060   -0.7340    2.5620 hn        1 16D      0.348300
     24 HN22        3.9930    0.7550    2.5760 hn        1 16D      0.348300
@<TRIPOS>BOND
     1    1    2 1   
     2    1    9 1   
     3    1   10 1   
     4    2    3 1   
     5    2   11 1   
     6    2   12 1   
     7    3    4 1   
     8    3   13 1   
     9    3   14 1   
    10    4    5 1   
    11    4   15 1   
    12    4   16 1   
    13    5    6 1   
    14    5   17 1   
    15    5   18 1   
    16    6    7 1   
    17    6   19 1   
    18    6   20 1   
    19    7    8 1   
    20    7   21 1   
    21    7   22 1   
    22    8   23 1   
    23    8   24 1   
@<TRIPOS>SUBSTRUCTURE
     1 16D         1 TEMP              0 ****  ****    0 ROOT
