@<TRIPOS>MOLECULE
16D
   24    23     1     0     0
SMALL
bcc


@<TRIPOS>ATOM
      1 N1         -0.2120   -0.0470    4.3560 n3        1 16D     -0.916800
      2 C1          0.5140    0.0010    3.1100 c3        1 16D      0.158800
      3 C2         -0.3930    0.0050    1.8800 c3        1 16D     -0.083400
      4 C3          0.4400    0.0030    0.6160 c3        1 16D     -0.078400
      5 C4         -0.4400    0.0030   -0.6160 c3        1 16D     -0.078400
      6 C5          0.3930    0.0050   -1.8800 c3        1 16D     -0.083400
      7 C6         -0.5140    0.0010   -3.1100 c3        1 16D      0.158800
      8 N2          0.2120   -0.0470   -4.3560 n3        1 16D     -0.916800
      9 HN11        0.4130    0.0780    5.1270 hn        1 16D      0.348300
     10 HN12       -0.9200    0.6600    4.3900 hn        1 16D      0.348300
     11 H11         1.1720   -0.9140    3.0720 h1        1 16D      0.024200
     12 H12         1.1970    0.9000    3.0410 h1        1 16D      0.024200
     13 H21        -1.0550    0.9100    1.8940 hc        1 16D      0.046700
     14 H22        -1.0600   -0.8960    1.8950 hc        1 16D      0.046700
     15 H31         1.1030   -0.9020    0.6040 hc        1 16D      0.041200
     16 H32         1.1080    0.9040    0.6010 hc        1 16D      0.041200
     17 H41        -1.1080    0.9040   -0.6010 hc        1 16D      0.041200
     18 H42        -1.1040   -0.9020   -0.6040 hc        1 16D      0.041200
     19 H51         1.0600   -0.8970   -1.8950 hc        1 16D      0.046700
     20 H52         1.0550    0.9100   -1.8940 hc        1 16D      0.046700
     21 H61        -1.1970    0.9000   -3.0410 h1        1 16D      0.024200
     22 H62        -1.1720   -0.9140   -3.0720 h1        1 16D      0.024200
     23 HN21       -0.4130    0.0780   -5.1270 hn        1 16D      0.348300
     24 HN22        0.9200    0.6590   -4.3900 hn        1 16D      0.348300
@<TRIPOS>BOND
     1    1    2 1   
     2    1    9 1   
     3    1   10 1   
     4    2    3 1   
     5    2   11 1   
     6    2   12 1   
     7    3    4 1   
     8    3   13 1   
     9    3   14 1   
    10    4    5 1   
    11    4   15 1   
    12    4   16 1   
    13    5    6 1   
    14    5   17 1   
    15    5   18 1   
    16    6    7 1   
    17    6   19 1   
    18    6   20 1   
    19    7    8 1   
    20    7   21 1   
    21    7   22 1   
    22    8   23 1   
    23    8   24 1   
@<TRIPOS>SUBSTRUCTURE
     1 16D         1 TEMP              0 ****  ****    0 ROOT
