@<TRIPOS>MOLECULE
16E
   64    63     1     0     0
SMALL
bcc


@<TRIPOS>ATOM
      1 O01         0.2130   -0.4230    0.1740 o         1 16E     -0.646100
      2 C02         1.3400    0.1190    0.1150 c         1 16E      0.633100
      3 N03         2.1210    0.3190    1.2360 n         1 16E     -0.527900
      4 C04         1.5360    0.4080    2.5630 c3        1 16E     -0.067300
      5 C05         1.7780   -0.8420    3.4150 c3        1 16E     -0.075400
      6 C06         0.9970   -2.0510    2.9360 c3        1 16E     -0.187400
      7 C07         1.8690   -3.2300    2.6430 c         1 16E      0.637100
      8 O08         1.7290   -4.3860    3.0550 o         1 16E     -0.545000
      9 C09         2.0930    1.6450    3.3710 c         1 16E      0.912600
     10 O10         1.5670    1.8510    4.4940 o         1 16E     -0.824300
     11 O11         3.0080    2.3390    2.8480 o         1 16E     -0.824300
     12 C12         1.9520    0.5100   -1.2230 c3        1 16E     -0.156400
     13 C13         1.1210    0.0020   -2.3810 c3        1 16E     -0.072400
     14 C14         1.7150    0.4280   -3.7060 c3        1 16E     -0.079400
     15 C15         0.8890   -0.0820   -4.8680 c3        1 16E     -0.078400
     16 C16         1.4800    0.3430   -6.1950 c3        1 16E     -0.079400
     17 C17         0.6550   -0.1680   -7.3570 c3        1 16E     -0.078400
     18 C18         1.2480    0.2540   -8.6850 c3        1 16E     -0.078400
     19 C19         0.4240   -0.2610   -9.8460 c3        1 16E     -0.078400
     20 C20         1.0180    0.1560  -11.1750 c3        1 16E     -0.079400
     21 C21         0.1950   -0.3630  -12.3350 c3        1 16E     -0.078400
     22 C22         0.7880    0.0480  -13.6660 c3        1 16E     -0.078400
     23 C23        -0.0310   -0.4790  -14.8250 c3        1 16E     -0.078400
     24 C24         0.5590   -0.0710  -16.1590 c3        1 16E     -0.065400
     25 C25        -0.2380   -0.6210  -17.3170 c3        1 16E     -0.192400
     26 C26         0.2610   -0.0650  -18.6620 c         1 16E      0.907600
     27 O27         0.4180   -0.8820  -19.6150 o         1 16E     -0.855300
     28 O28         0.4700    1.1790  -18.7650 o         1 16E     -0.855300
     29 OXT         2.9480   -3.0860    1.8150 oh        1 16E     -0.604100
     30 H03         2.9040    0.9400    1.1300 hn        1 16E      0.321500
     31 H121        2.0180    1.6300   -1.2620 hc        1 16E      0.059200
     32 H122        2.9950    0.1050   -1.2980 hc        1 16E      0.059200
     33 H04         0.4210    0.5550    2.4670 h1        1 16E      0.063700
     34 H051        1.4530   -0.5750    4.4580 hc        1 16E      0.062700
     35 H052        2.8750   -1.0680    3.4610 hc        1 16E      0.062700
     36 H061        0.2450   -2.3570    3.7100 hc        1 16E      0.087700
     37 H062        0.4280   -1.8030    1.9940 hc        1 16E      0.087700
     38 H131        1.0570   -1.1170   -2.3300 hc        1 16E      0.054700
     39 H132        0.0730    0.3900   -2.2840 hc        1 16E      0.054700
     40 H141        1.7730    1.5480   -3.7500 hc        1 16E      0.035700
     41 H142        2.7640    0.0400   -3.7930 hc        1 16E      0.035700
     42 H151        0.8300   -1.2010   -4.8230 hc        1 16E      0.040200
     43 H152       -0.1600    0.3080   -4.7820 hc        1 16E      0.040200
     44 H161        2.5300   -0.0450   -6.2800 hc        1 16E      0.037200
     45 H162        1.5380    1.4630   -6.2400 hc        1 16E      0.037200
     46 H171       -0.3930    0.2210   -7.2730 hc        1 16E      0.037700
     47 H172        0.5960   -1.2880   -7.3110 hc        1 16E      0.037700
     48 H181        2.2980   -0.1340   -8.7680 hc        1 16E      0.037200
     49 H182        1.3060    1.3730   -8.7320 hc        1 16E      0.037200
     50 H191       -0.6240    0.1300   -9.7640 hc        1 16E      0.036700
     51 H192        0.3640   -1.3800   -9.7970 hc        1 16E      0.036700
     52 H201        1.0750    1.2760  -11.2260 hc        1 16E      0.037200
     53 H202        2.0670   -0.2310  -11.2560 hc        1 16E      0.037200
     54 H211       -0.8540    0.0280  -12.2560 hc        1 16E      0.034200
     55 H212        0.1340   -1.4820  -12.2800 hc        1 16E      0.034200
     56 H221        1.8390   -0.3380  -13.7440 hc        1 16E      0.036200
     57 H222        0.8430    1.1670  -13.7250 hc        1 16E      0.036200
     58 H231       -0.0870   -1.5980  -14.7650 hc        1 16E      0.025700
     59 H232       -1.0810   -0.0930  -14.7460 hc        1 16E      0.025700
     60 H241        1.6170   -0.4360  -16.2270 hc        1 16E      0.043200
     61 H242        0.5900    1.0480  -16.2420 hc        1 16E      0.043200
     62 H251       -0.1780   -1.7380  -17.3340 hc        1 16E      0.018700
     63 H252       -1.3150   -0.3350  -17.2080 hc        1 16E      0.018700
     64 H032        3.0110   -2.1630    1.5260 ho        1 16E      0.444000
@<TRIPOS>BOND
     1    1    2 2   
     2    2    3 1   
     3    2   12 1   
     4    3    4 1   
     5    3   30 1   
     6    4    5 1   
     7    4    9 1   
     8    4   33 1   
     9    5    6 1   
    10    5   34 1   
    11    5   35 1   
    12    6    7 1   
    13    6   36 1   
    14    6   37 1   
    15    7    8 2   
    16    7   29 1   
    17    9   10 1   
    18    9   11 1   
    19   12   13 1   
    20   12   31 1   
    21   12   32 1   
    22   13   14 1   
    23   13   38 1   
    24   13   39 1   
    25   14   15 1   
    26   14   40 1   
    27   14   41 1   
    28   15   16 1   
    29   15   42 1   
    30   15   43 1   
    31   16   17 1   
    32   16   44 1   
    33   16   45 1   
    34   17   18 1   
    35   17   46 1   
    36   17   47 1   
    37   18   19 1   
    38   18   48 1   
    39   18   49 1   
    40   19   20 1   
    41   19   50 1   
    42   19   51 1   
    43   20   21 1   
    44   20   52 1   
    45   20   53 1   
    46   21   22 1   
    47   21   54 1   
    48   21   55 1   
    49   22   23 1   
    50   22   56 1   
    51   22   57 1   
    52   23   24 1   
    53   23   58 1   
    54   23   59 1   
    55   24   25 1   
    56   24   60 1   
    57   24   61 1   
    58   25   26 1   
    59   25   62 1   
    60   25   63 1   
    61   26   27 1   
    62   26   28 1   
    63   29   64 1   
@<TRIPOS>SUBSTRUCTURE
     1 16E         1 TEMP              0 ****  ****    0 ROOT
