@<TRIPOS>MOLECULE
16E
   63    61     1     0     0
SMALL
bcc


@<TRIPOS>ATOM
      1 O01        -0.9220    0.5820    6.1640 o         1 16E     -0.425000
      2 C02         0.2760    0.7660    6.0820 c1        1 16E      0.287000
      3 N03         0.9940    1.2740    7.1950 n2        1 16E     -0.295000
      4 C04         0.3180    1.5360    8.4160 c3        1 16E     -0.072000
      5 C05         1.3130    1.5220    9.5550 c3        1 16E     -0.129000
      6 C06         0.5860    1.2600   10.8560 c3        1 16E     -0.208000
      7 C07         1.3940    1.8180   12.0070 c2        1 16E      0.323000
      8 O08         1.1610    2.9780   12.4360 o         1 16E     -0.612500
      9 C09        -0.3460    2.8930    8.3440 c2        1 16E      0.320000
     10 O10         0.3400    3.9170    8.0900 o         1 16E     -0.591500
     11 O11        -1.5830    2.9990    8.5510 o         1 16E     -0.591500
     12 C12         1.0040    0.4400    4.7970 c3        1 16E     -0.191000
     13 C13        -0.0010    0.2440    3.6830 c3        1 16E     -0.148000
     14 C14         0.7270   -0.0990    2.4020 c3        1 16E     -0.158000
     15 C15        -0.2570   -0.1190    1.2530 c3        1 16E     -0.157000
     16 C16         0.4740   -0.4440   -0.0320 c3        1 16E     -0.157000
     17 C17        -0.4990   -0.4020   -1.1900 c3        1 16E     -0.157000
     18 C18         0.2370   -0.7020   -2.4770 c3        1 16E     -0.157000
     19 C19        -0.7310   -0.6330   -3.6380 c3        1 16E     -0.157000
     20 C20         0.0080   -0.9170   -4.9280 c3        1 16E     -0.157000
     21 C21        -0.9560   -0.8330   -6.0900 c3        1 16E     -0.157000
     22 C22        -0.2240   -1.1490   -7.3760 c3        1 16E     -0.157000
     23 C23        -1.1860   -1.0570   -8.5400 c3        1 16E     -0.157000
     24 C24        -0.4540   -1.3730   -9.8260 c3        1 16E     -0.143000
     25 C25        -1.4190   -1.2930  -10.9880 c3        1 16E     -0.219000
     26 C26        -0.6890   -1.6160  -12.2730 c2        1 16E      0.326000
     27 O27        -0.0010   -0.7320  -12.8460 o         1 16E     -0.592500
     28 O28        -0.7670   -2.7720  -12.7670 o         1 16E     -0.592500
     29 OXT         2.3070    1.1250   12.5290 o         1 16E     -0.612500
     30 H03         1.8920    1.4180    7.1310 hn        1 16E      0.216000
     31 H121        1.6060    1.1760    4.5670 hc        1 16E      0.090000
     32 H122        1.5230   -0.3810    4.9150 hc        1 16E      0.090000
     33 H04        -0.3600    0.8480    8.5670 h1        1 16E      0.109000
     34 H051        1.9730    0.8160    9.4030 hc        1 16E      0.087000
     35 H052        1.7660    2.3870    9.6040 hc        1 16E      0.087000
     36 H061       -0.2910    1.6930   10.8330 hc        1 16E      0.059500
     37 H062        0.4700    0.2960   10.9760 hc        1 16E      0.059500
     38 H131       -0.5120    1.0690    3.5560 hc        1 16E      0.092500
     39 H132       -0.6100   -0.4840    3.9170 hc        1 16E      0.092500
     40 H141        1.4170    0.5720    2.2280 hc        1 16E      0.071000
     41 H142        1.1430   -0.9800    2.4890 hc        1 16E      0.071000
     42 H151       -0.9400   -0.7990    1.4200 hc        1 16E      0.077500
     43 H152       -0.6830    0.7580    1.1730 hc        1 16E      0.077500
     44 H161        1.1830    0.2130   -0.1780 hc        1 16E      0.074500
     45 H162        0.8650   -1.3380    0.0330 hc        1 16E      0.074500
     46 H171       -1.2000   -1.0700   -1.0510 hc        1 16E      0.076000
     47 H172       -0.9030    0.4880   -1.2440 hc        1 16E      0.076000
     48 H181        0.6250   -1.5980   -2.4290 hc        1 16E      0.075500
     49 H182        0.9490   -0.0440   -2.6070 hc        1 16E      0.075500
     50 H191       -1.4370   -1.2970   -3.5140 hc        1 16E      0.075000
     51 H192       -1.1270    0.2610   -3.6800 hc        1 16E      0.075000
     52 H201        0.3960   -1.8150   -4.8900 hc        1 16E      0.075500
     53 H202        0.7220   -0.2590   -5.0470 hc        1 16E      0.075500
     54 H211       -1.6800   -1.4770   -5.9610 hc        1 16E      0.073000
     55 H212       -1.3270    0.0710   -6.1410 hc        1 16E      0.073000
     56 H221        0.5040   -0.5080   -7.5030 hc        1 16E      0.074500
     57 H222        0.1430   -2.0550   -7.3280 hc        1 16E      0.074500
     58 H231       -1.9140   -1.6980   -8.4130 hc        1 16E      0.064500
     59 H232       -1.5540   -0.1510   -8.5880 hc        1 16E      0.064500
     60 H241        0.2680   -0.7270   -9.9570 hc        1 16E      0.082000
     61 H242       -0.0800   -2.2750   -9.7740 hc        1 16E      0.082000
     62 H251       -2.1440   -1.9350  -10.8540 hc        1 16E      0.058000
     63 H252       -1.7900   -0.3890  -11.0420 hc        1 16E      0.058000
@<TRIPOS>BOND
     1    1    2 1   
     2    2   12 1   
     3    3    4 1   
     4    3   30 1   
     5    4    5 1   
     6    4    9 1   
     7    4   33 1   
     8    5    6 1   
     9    5   34 1   
    10    5   35 1   
    11    6    7 1   
    12    6   36 1   
    13    6   37 1   
    14    7    8 1   
    15    7   29 1   
    16    9   10 1   
    17    9   11 1   
    18   12   13 1   
    19   12   31 1   
    20   12   32 1   
    21   13   14 1   
    22   13   38 1   
    23   13   39 1   
    24   14   15 1   
    25   14   40 1   
    26   14   41 1   
    27   15   16 1   
    28   15   42 1   
    29   15   43 1   
    30   16   17 1   
    31   16   44 1   
    32   16   45 1   
    33   17   18 1   
    34   17   46 1   
    35   17   47 1   
    36   18   19 1   
    37   18   48 1   
    38   18   49 1   
    39   19   20 1   
    40   19   50 1   
    41   19   51 1   
    42   20   21 1   
    43   20   52 1   
    44   20   53 1   
    45   21   22 1   
    46   21   54 1   
    47   21   55 1   
    48   22   23 1   
    49   22   56 1   
    50   22   57 1   
    51   23   24 1   
    52   23   58 1   
    53   23   59 1   
    54   24   25 1   
    55   24   60 1   
    56   24   61 1   
    57   25   26 1   
    58   25   62 1   
    59   25   63 1   
    60   26   27 1   
    61   26   28 1   
@<TRIPOS>SUBSTRUCTURE
     1 16E         1 TEMP              0 ****  ****    0 ROOT
