@<TRIPOS>MOLECULE
16E
   64    63     1     0     0
SMALL
bcc


@<TRIPOS>ATOM
      1 O01         0.2120   -0.4270    0.1680 o         1 16E     -0.646100
      2 C02         1.3360    0.1210    0.1110 c         1 16E      0.633100
      3 N03         2.1080    0.3370    1.2360 n         1 16E     -0.527900
      4 C04         1.5130    0.4380    2.5570 c3        1 16E     -0.068300
      5 C05         1.7560   -0.8010    3.4260 c3        1 16E     -0.075400
      6 C06         0.9850   -2.0200    2.9540 c3        1 16E     -0.187400
      7 C07         1.8670   -3.1970    2.6810 c         1 16E      0.637100
      8 O08         1.7300   -4.3490    3.1050 o         1 16E     -0.545000
      9 C09         2.0570    1.6870    3.3550 c         1 16E      0.912600
     10 O10         1.5210    1.9030    4.4720 o         1 16E     -0.824300
     11 O11         2.9710    2.3810    2.8300 o         1 16E     -0.824300
     12 C12         1.9550    0.5000   -1.2270 c3        1 16E     -0.156400
     13 C13         1.1280   -0.0120   -2.3850 c3        1 16E     -0.072400
     14 C14         1.7300    0.4020   -3.7100 c3        1 16E     -0.079400
     15 C15         0.9040   -0.1080   -4.8720 c3        1 16E     -0.078400
     16 C16         1.5020    0.3070   -6.1990 c3        1 16E     -0.079400
     17 C17         0.6750   -0.2010   -7.3610 c3        1 16E     -0.078400
     18 C18         1.2710    0.2170   -8.6890 c3        1 16E     -0.078400
     19 C19         0.4410   -0.2880   -9.8500 c3        1 16E     -0.078400
     20 C20         1.0330    0.1310  -11.1790 c3        1 16E     -0.079400
     21 C21         0.1980   -0.3700  -12.3380 c3        1 16E     -0.078400
     22 C22         0.7850    0.0510  -13.6690 c3        1 16E     -0.078400
     23 C23        -0.0560   -0.4430  -14.8280 c3        1 16E     -0.078400
     24 C24         0.5280   -0.0240  -16.1610 c3        1 16E     -0.065400
     25 C25        -0.3250   -0.4870  -17.3170 c3        1 16E     -0.192400
     26 C26         0.3560   -0.2120  -18.6690 c         1 16E      0.907600
     27 O27        -0.3480    0.2960  -19.5900 o         1 16E     -0.855300
     28 O28         1.5740   -0.5240  -18.8100 o         1 16E     -0.855300
     29 OXT         2.9510   -3.0560    1.8590 oh        1 16E     -0.603100
     30 H03         2.8880    0.9610    1.1290 hn        1 16E      0.321500
     31 H121        2.0280    1.6190   -1.2730 hc        1 16E      0.059200
     32 H122        2.9970    0.0890   -1.2930 hc        1 16E      0.059200
     33 H04         0.3970    0.5770    2.4520 h1        1 16E      0.063700
     34 H051        2.8540   -1.0200    3.4820 hc        1 16E      0.062700
     35 H052        1.4220   -0.5240    4.4630 hc        1 16E      0.062700
     36 H061        0.4220   -1.7860    2.0050 hc        1 16E      0.087700
     37 H062        0.2290   -2.3210    3.7260 hc        1 16E      0.087700
     38 H131        0.0810    0.3820   -2.2960 hc        1 16E      0.055200
     39 H132        1.0580   -1.1300   -2.3270 hc        1 16E      0.055200
     40 H141        2.7760    0.0060   -3.7910 hc        1 16E      0.035700
     41 H142        1.7960    1.5210   -3.7600 hc        1 16E      0.035700
     42 H151        0.8390   -1.2270   -4.8220 hc        1 16E      0.040200
     43 H152       -0.1430    0.2870   -4.7900 hc        1 16E      0.040200
     44 H161        1.5690    1.4260   -6.2470 hc        1 16E      0.037200
     45 H162        2.5480   -0.0900   -6.2810 hc        1 16E      0.037200
     46 H171       -0.3720    0.1950   -7.2780 hc        1 16E      0.037700
     47 H172        0.6090   -1.3200   -7.3140 hc        1 16E      0.037700
     48 H181        2.3160   -0.1820   -8.7730 hc        1 16E      0.037700
     49 H182        1.3390    1.3350   -8.7350 hc        1 16E      0.037700
     50 H191        0.3740   -1.4070   -9.8050 hc        1 16E      0.036700
     51 H192       -0.6050    0.1080   -9.7640 hc        1 16E      0.036700
     52 H201        1.1030    1.2500  -11.2230 hc        1 16E      0.037200
     53 H202        2.0770   -0.2690  -11.2680 hc        1 16E      0.037200
     54 H211        0.1300   -1.4890  -12.2960 hc        1 16E      0.034200
     55 H212       -0.8470    0.0270  -12.2470 hc        1 16E      0.034200
     56 H221        1.8270   -0.3520  -13.7660 hc        1 16E      0.036200
     57 H222        0.8590    1.1700  -13.7100 hc        1 16E      0.036200
     58 H231       -1.0990   -0.0400  -14.7310 hc        1 16E      0.025700
     59 H232       -0.1300   -1.5610  -14.7860 hc        1 16E      0.025700
     60 H241        1.5600   -0.4480  -16.2820 hc        1 16E      0.043200
     61 H242        0.6250    1.0930  -16.1930 hc        1 16E      0.043200
     62 H251       -0.5020   -1.5900  -17.2420 hc        1 16E      0.018700
     63 H252       -1.3210    0.0230  -17.2940 hc        1 16E      0.018700
     64 H032        3.0110   -2.1350    1.5610 ho        1 16E      0.444000
@<TRIPOS>BOND
     1    1    2 2   
     2    2    3 1   
     3    2   12 1   
     4    3    4 1   
     5    3   30 1   
     6    4    5 1   
     7    4    9 1   
     8    4   33 1   
     9    5    6 1   
    10    5   34 1   
    11    5   35 1   
    12    6    7 1   
    13    6   36 1   
    14    6   37 1   
    15    7    8 2   
    16    7   29 1   
    17    9   10 1   
    18    9   11 1   
    19   12   13 1   
    20   12   31 1   
    21   12   32 1   
    22   13   14 1   
    23   13   38 1   
    24   13   39 1   
    25   14   15 1   
    26   14   40 1   
    27   14   41 1   
    28   15   16 1   
    29   15   42 1   
    30   15   43 1   
    31   16   17 1   
    32   16   44 1   
    33   16   45 1   
    34   17   18 1   
    35   17   46 1   
    36   17   47 1   
    37   18   19 1   
    38   18   48 1   
    39   18   49 1   
    40   19   20 1   
    41   19   50 1   
    42   19   51 1   
    43   20   21 1   
    44   20   52 1   
    45   20   53 1   
    46   21   22 1   
    47   21   54 1   
    48   21   55 1   
    49   22   23 1   
    50   22   56 1   
    51   22   57 1   
    52   23   24 1   
    53   23   58 1   
    54   23   59 1   
    55   24   25 1   
    56   24   60 1   
    57   24   61 1   
    58   25   26 1   
    59   25   62 1   
    60   25   63 1   
    61   26   27 1   
    62   26   28 1   
    63   29   64 1   
@<TRIPOS>SUBSTRUCTURE
     1 16E         1 TEMP              0 ****  ****    0 ROOT
