@<TRIPOS>MOLECULE
16E
   63    62     1     0     0
SMALL
bcc


@<TRIPOS>ATOM
      1 O01         5.2480    0.7570    1.3860 o         1 16E     -0.664100
      2 C02         5.3280    0.4230    0.1800 c         1 16E      0.643100
      3 N03         6.5070    0.2210   -0.4890 n         1 16E     -0.485900
      4 C04         7.7810    0.7780   -0.0580 c3        1 16E     -0.045300
      5 C05         8.9220   -0.2480   -0.1420 c3        1 16E     -0.050400
      6 C06         8.8070   -1.3640    0.8690 c3        1 16E     -0.179400
      7 C07         9.9070   -2.4210    0.7170 c         1 16E      0.903600
      8 O08         9.9960   -3.0800   -0.3640 o         1 16E     -0.877800
      9 C09         8.1710    2.0240   -0.9260 c         1 16E      0.900600
     10 O10         7.6990    2.1260   -2.0980 o         1 16E     -0.856800
     11 O11         8.9330    2.8840   -0.4040 o         1 16E     -0.856800
     12 C12         4.0510    0.1140   -0.6060 c3        1 16E     -0.162400
     13 C13         2.8180    0.3230    0.2430 c3        1 16E     -0.069400
     14 C14         1.5540    0.0400   -0.5420 c3        1 16E     -0.079400
     15 C15         0.3170    0.2610    0.3020 c3        1 16E     -0.078400
     16 C16        -0.9490   -0.0120   -0.4830 c3        1 16E     -0.078400
     17 C17        -2.1850    0.2160    0.3610 c3        1 16E     -0.078400
     18 C18        -3.4520   -0.0530   -0.4240 c3        1 16E     -0.078400
     19 C19        -4.6870    0.1770    0.4220 c3        1 16E     -0.078400
     20 C20        -5.9560   -0.0910   -0.3590 c3        1 16E     -0.078400
     21 C21        -7.1880    0.1370    0.4920 c3        1 16E     -0.078400
     22 C22        -8.4620   -0.1330   -0.2820 c3        1 16E     -0.078400
     23 C23        -9.6890    0.0860    0.5770 c3        1 16E     -0.078400
     24 C24       -10.9690   -0.1840   -0.1870 c3        1 16E     -0.064400
     25 C25       -12.1890   -0.0030    0.6820 c3        1 16E     -0.190400
     26 C26       -13.4920   -0.1160   -0.1270 c         1 16E      0.906600
     27 O27       -13.5860    0.5140   -1.2210 o         1 16E     -0.857800
     28 O28       -14.4270   -0.8200    0.3550 o         1 16E     -0.857800
     29 OXT        10.6760   -2.6420    1.7030 o         1 16E     -0.877800
     30 H03         6.4460    0.1600   -1.4860 hn        1 16E      0.302500
     31 H121        4.0110    0.7820   -1.5050 hc        1 16E      0.050700
     32 H122        4.0890   -0.9470   -0.9670 hc        1 16E      0.050700
     33 H04         7.6760    1.1170    1.0120 h1        1 16E      0.069700
     34 H051        8.9760   -0.6870   -1.1720 hc        1 16E      0.047700
     35 H052        9.8740    0.3220    0.0330 hc        1 16E      0.047700
     36 H061        8.8490   -0.9410    1.9060 hc        1 16E      0.020200
     37 H062        7.8220   -1.8850    0.7530 hc        1 16E      0.020200
     38 H131        2.8710   -0.3430    1.1440 hc        1 16E      0.053200
     39 H132        2.8060    1.3780    0.6240 hc        1 16E      0.053200
     40 H141        1.5150    0.7040   -1.4450 hc        1 16E      0.031700
     41 H142        1.5710   -1.0190   -0.9120 hc        1 16E      0.031700
     42 H151        0.3530   -0.4080    1.2020 hc        1 16E      0.038200
     43 H152        0.3050    1.3180    0.6780 hc        1 16E      0.038200
     44 H161       -0.9820    0.6540   -1.3850 hc        1 16E      0.035200
     45 H162       -0.9380   -1.0700   -0.8550 hc        1 16E      0.035200
     46 H171       -2.1530   -0.4530    1.2610 hc        1 16E      0.036700
     47 H172       -2.1930    1.2730    0.7360 hc        1 16E      0.036700
     48 H181       -3.4840    0.6150   -1.3250 hc        1 16E      0.036200
     49 H182       -3.4450   -1.1110   -0.7980 hc        1 16E      0.036200
     50 H191       -4.6530   -0.4910    1.3230 hc        1 16E      0.035700
     51 H192       -4.6930    1.2340    0.7960 hc        1 16E      0.035700
     52 H201       -5.9920    0.5790   -1.2590 hc        1 16E      0.036200
     53 H202       -5.9500   -1.1480   -0.7350 hc        1 16E      0.036200
     54 H211       -7.1490   -0.5310    1.3930 hc        1 16E      0.033700
     55 H212       -7.1940    1.1940    0.8660 hc        1 16E      0.033700
     56 H221       -8.5080    0.5390   -1.1780 hc        1 16E      0.035200
     57 H222       -8.4540   -1.1890   -0.6620 hc        1 16E      0.035200
     58 H231       -9.6410   -0.5850    1.4760 hc        1 16E      0.025200
     59 H232       -9.6960    1.1420    0.9560 hc        1 16E      0.025200
     60 H241      -11.0470    0.5080   -1.0680 hc        1 16E      0.042700
     61 H242      -10.9500   -1.2300   -0.5910 hc        1 16E      0.042700
     62 H251      -12.1980   -0.7650    1.5020 hc        1 16E      0.018700
     63 H252      -12.1710    1.0110    1.1570 hc        1 16E      0.018700
@<TRIPOS>BOND
     1    1    2 2   
     2    2    3 1   
     3    2   12 1   
     4    3    4 1   
     5    3   30 1   
     6    4    5 1   
     7    4    9 1   
     8    4   33 1   
     9    5    6 1   
    10    5   34 1   
    11    5   35 1   
    12    6    7 1   
    13    6   36 1   
    14    6   37 1   
    15    7    8 1   
    16    7   29 1   
    17    9   10 1   
    18    9   11 1   
    19   12   13 1   
    20   12   31 1   
    21   12   32 1   
    22   13   14 1   
    23   13   38 1   
    24   13   39 1   
    25   14   15 1   
    26   14   40 1   
    27   14   41 1   
    28   15   16 1   
    29   15   42 1   
    30   15   43 1   
    31   16   17 1   
    32   16   44 1   
    33   16   45 1   
    34   17   18 1   
    35   17   46 1   
    36   17   47 1   
    37   18   19 1   
    38   18   48 1   
    39   18   49 1   
    40   19   20 1   
    41   19   50 1   
    42   19   51 1   
    43   20   21 1   
    44   20   52 1   
    45   20   53 1   
    46   21   22 1   
    47   21   54 1   
    48   21   55 1   
    49   22   23 1   
    50   22   56 1   
    51   22   57 1   
    52   23   24 1   
    53   23   58 1   
    54   23   59 1   
    55   24   25 1   
    56   24   60 1   
    57   24   61 1   
    58   25   26 1   
    59   25   62 1   
    60   25   63 1   
    61   26   27 1   
    62   26   28 1   
@<TRIPOS>SUBSTRUCTURE
     1 16E         1 TEMP              0 ****  ****    0 ROOT
