@<TRIPOS>MOLECULE
16E
   64    63     1     0     0
SMALL
bcc


@<TRIPOS>ATOM
      1 O01         0.2070   -0.4280    0.1730 o         1 16E     -0.646100
      2 C02         1.3340    0.1160    0.1150 c         1 16E      0.633100
      3 N03         2.1130    0.3160    1.2380 ns        1 16E     -0.527900
      4 C04         1.5270    0.4040    2.5640 c3        1 16E     -0.067300
      5 C05         1.7690   -0.8460    3.4160 c3        1 16E     -0.075400
      6 C06         0.9900   -2.0560    2.9350 c3        1 16E     -0.187400
      7 C07         1.8650   -3.2340    2.6430 c         1 16E      0.637100
      8 O08         1.7250   -4.3900    3.0540 o         1 16E     -0.545000
      9 C09         2.0820    1.6410    3.3720 c         1 16E      0.912600
     10 O10         1.5540    1.8470    4.4950 o         1 16E     -0.824300
     11 O11         2.9960    2.3370    2.8500 o         1 16E     -0.824300
     12 C12         1.9460    0.5080   -1.2220 c3        1 16E     -0.156400
     13 C13         1.1170   -0.0000   -2.3810 c3        1 16E     -0.072400
     14 C14         1.7120    0.4270   -3.7050 c3        1 16E     -0.079400
     15 C15         0.8870   -0.0820   -4.8680 c3        1 16E     -0.078400
     16 C16         1.4810    0.3420   -6.1950 c3        1 16E     -0.079400
     17 C17         0.6560   -0.1680   -7.3570 c3        1 16E     -0.078400
     18 C18         1.2510    0.2540   -8.6840 c3        1 16E     -0.078400
     19 C19         0.4270   -0.2590   -9.8470 c3        1 16E     -0.078400
     20 C20         1.0230    0.1580  -11.1750 c3        1 16E     -0.079400
     21 C21         0.2000   -0.3590  -12.3360 c3        1 16E     -0.078400
     22 C22         0.7960    0.0500  -13.6660 c3        1 16E     -0.078400
     23 C23        -0.0240   -0.4740  -14.8260 c3        1 16E     -0.078400
     24 C24         0.5690   -0.0670  -16.1600 c3        1 16E     -0.065400
     25 C25        -0.2280   -0.6140  -17.3190 c3        1 16E     -0.192400
     26 C26         0.2730   -0.0590  -18.6630 c         1 16E      0.907600
     27 O27         0.4280   -0.8760  -19.6160 o         1 16E     -0.855300
     28 O28         0.4860    1.1850  -18.7650 o         1 16E     -0.855300
     29 OXT         2.9440   -3.0880    1.8160 oh        1 16E     -0.604100
     30 H03         3.0060   -2.1640    1.5280 ho        1 16E      0.444000
     31 H121        2.9900    0.1030   -1.2960 hc        1 16E      0.059200
     32 H122        2.0130    1.6280   -1.2600 hc        1 16E      0.059200
     33 H04         0.4110    0.5500    2.4660 h1        1 16E      0.063700
     34 H051        2.8660   -1.0700    3.4630 hc        1 16E      0.062700
     35 H052        1.4430   -0.5800    4.4590 hc        1 16E      0.062700
     36 H061        0.4220   -1.8080    1.9920 hc        1 16E      0.087700
     37 H062        0.2380   -2.3630    3.7080 hc        1 16E      0.087700
     38 H131        1.0530   -1.1190   -2.3310 hc        1 16E      0.054700
     39 H132        0.0690    0.3880   -2.2850 hc        1 16E      0.054700
     40 H141        1.7720    1.5460   -3.7490 hc        1 16E      0.035700
     41 H142        2.7610    0.0370   -3.7910 hc        1 16E      0.035700
     42 H151        0.8270   -1.2020   -4.8240 hc        1 16E      0.040200
     43 H152       -0.1610    0.3070   -4.7830 hc        1 16E      0.040200
     44 H161        1.5400    1.4620   -6.2390 hc        1 16E      0.037200
     45 H162        2.5300   -0.0470   -6.2790 hc        1 16E      0.037200
     46 H171        0.5950   -1.2870   -7.3120 hc        1 16E      0.037700
     47 H172       -0.3920    0.2230   -7.2740 hc        1 16E      0.037700
     48 H181        1.3110    1.3730   -8.7310 hc        1 16E      0.037200
     49 H182        2.3000   -0.1360   -8.7670 hc        1 16E      0.037200
     50 H191       -0.6210    0.1340   -9.7660 hc        1 16E      0.036700
     51 H192        0.3650   -1.3780   -9.7980 hc        1 16E      0.036700
     52 H201        2.0710   -0.2330  -11.2550 hc        1 16E      0.037200
     53 H202        1.0830    1.2770  -11.2260 hc        1 16E      0.037200
     54 H211       -0.8480    0.0340  -12.2580 hc        1 16E      0.034200
     55 H212        0.1370   -1.4780  -12.2820 hc        1 16E      0.034200
     56 H221        0.8540    1.1690  -13.7250 hc        1 16E      0.036200
     57 H222        1.8450   -0.3380  -13.7430 hc        1 16E      0.036200
     58 H231       -1.0730   -0.0850  -14.7490 hc        1 16E      0.025700
     59 H232       -0.0830   -1.5930  -14.7670 hc        1 16E      0.025700
     60 H241        0.6030    1.0520  -16.2420 hc        1 16E      0.043200
     61 H242        1.6260   -0.4350  -16.2270 hc        1 16E      0.043200
     62 H251       -1.3050   -0.3260  -17.2110 hc        1 16E      0.018700
     63 H252       -0.1720   -1.7310  -17.3360 hc        1 16E      0.018700
     64 H032        2.8960    0.9380    1.1330 hn        1 16E      0.321500
@<TRIPOS>BOND
     1    1    2 2   
     2    2    3 1   
     3    2   12 1   
     4    3    4 1   
     5    3   64 1   
     6    4    5 1   
     7    4    9 1   
     8    4   33 1   
     9    5    6 1   
    10    5   34 1   
    11    5   35 1   
    12    6    7 1   
    13    6   36 1   
    14    6   37 1   
    15    7    8 2   
    16    7   29 1   
    17    9   10 1   
    18    9   11 1   
    19   12   13 1   
    20   12   31 1   
    21   12   32 1   
    22   13   14 1   
    23   13   38 1   
    24   13   39 1   
    25   14   15 1   
    26   14   40 1   
    27   14   41 1   
    28   15   16 1   
    29   15   42 1   
    30   15   43 1   
    31   16   17 1   
    32   16   44 1   
    33   16   45 1   
    34   17   18 1   
    35   17   46 1   
    36   17   47 1   
    37   18   19 1   
    38   18   48 1   
    39   18   49 1   
    40   19   20 1   
    41   19   50 1   
    42   19   51 1   
    43   20   21 1   
    44   20   52 1   
    45   20   53 1   
    46   21   22 1   
    47   21   54 1   
    48   21   55 1   
    49   22   23 1   
    50   22   56 1   
    51   22   57 1   
    52   23   24 1   
    53   23   58 1   
    54   23   59 1   
    55   24   25 1   
    56   24   60 1   
    57   24   61 1   
    58   25   26 1   
    59   25   62 1   
    60   25   63 1   
    61   26   27 1   
    62   26   28 1   
    63   29   30 1   
@<TRIPOS>SUBSTRUCTURE
     1 16E         1 TEMP              0 ****  ****    0 ROOT
