@<TRIPOS>MOLECULE
16F
   45    46     1     0     0
SMALL
bcc


@<TRIPOS>ATOM
      1 C1          0.2570   -0.1240    0.0590 c3        1 16F      0.341300
      2 N1         -0.2320   -0.1170   -1.3900 n4        1 16F     -0.603800
      3 S1         -2.6040   -1.0220   -0.5000 s         1 16F      0.300600
      4 C2          1.8090   -0.1520    0.0900 c3        1 16F      0.111100
      5 N2         -1.9810   -0.7860   -3.0490 n4        1 16F     -0.325900
      6 O2          2.1910   -1.3440   -0.5610 oh        1 16F     -0.636800
      7 C3          2.2160   -0.1110    1.5740 c3        1 16F      0.119100
      8 N3         -1.5970    0.3170   -3.8290 n2        1 16F     -0.624400
      9 O3          3.6260   -0.0670    1.5640 oh        1 16F     -0.589800
     10 C4          1.6220    1.1490    2.2400 c3        1 16F      0.079100
     11 O4          1.8930    0.9940    3.6180 oh        1 16F     -0.575800
     12 C5          0.1000    1.2050    2.0220 c3        1 16F      0.117100
     13 O5         -0.2090    1.0910    0.6090 os        1 16F     -0.428600
     14 C6         -0.5000    2.5520    2.4370 c3        1 16F      0.136400
     15 O6         -1.9040    2.4150    2.3310 oh        1 16F     -0.609800
     16 C7         -1.6080   -0.6450   -1.5640 c         1 16F      0.015400
     17 O7         -5.3660    0.0840   -8.4080 oh        1 16F     -0.462100
     18 C8         -2.3530    0.8280   -4.7610 ce        1 16F      0.619800
     19 C9         -3.6920    0.4810   -5.2100 ca        1 16F     -0.249900
     20 C10        -3.9300    0.4480   -6.5880 ca        1 16F     -0.093000
     21 C11        -5.2210    0.1230   -7.0520 ca        1 16F      0.162100
     22 C12        -6.2620   -0.1340   -6.1460 ca        1 16F     -0.147000
     23 C13        -6.0110   -0.0630   -4.7760 ca        1 16F     -0.064000
     24 C14        -4.7360    0.2340   -4.3010 ca        1 16F     -0.180000
     25 H1         -0.1840   -1.0250    0.5830 hx        1 16F      0.120700
     26 HN1        -0.1990    0.8660   -1.7220 hn        1 16F      0.498300
     27 H2          2.2480    0.7360   -0.4470 h1        1 16F      0.097700
     28 HN2        -3.0040   -1.0000   -3.0720 hn        1 16F      0.473300
     29 HO2         3.0980   -1.5570   -0.2810 ho        1 16F      0.487000
     30 H3          1.8600   -1.0340    2.1120 h1        1 16F      0.083700
     31 HO3         3.9180   -0.0430    2.4890 ho        1 16F      0.460000
     32 H4          2.1130    2.0690    1.8200 h1        1 16F      0.084700
     33 HO4         1.9600    1.8750    4.0110 ho        1 16F      0.438000
     34 H5         -0.4110    0.3670    2.5720 h1        1 16F      0.095700
     35 H6         -0.1480    3.3700    1.7530 h1        1 16F      0.064200
     36 H6A        -0.1810    2.7630    3.4920 h1        1 16F      0.064200
     37 HO6        -2.3000    3.0970    2.8910 ho        1 16F      0.438000
     38 HO7        -6.2970   -0.0980   -8.6260 ho        1 16F      0.456000
     39 H8         -1.8290    1.6560   -5.3120 h4        1 16F      0.108800
     40 H10        -3.1360    0.6630   -7.3230 ha        1 16F      0.180000
     41 H12        -7.2740   -0.3730   -6.5140 ha        1 16F      0.179000
     42 H13        -6.8370   -0.2350   -4.0640 ha        1 16F      0.170000
     43 H14        -4.5890    0.3620   -3.2190 ha        1 16F      0.116000
     44 H121        0.4530   -0.6730   -1.9350 hn        1 16F      0.498300
     45 H22        -1.4730   -1.6090   -3.4280 hn        1 16F      0.473300
@<TRIPOS>BOND
     1    1    2 1   
     2    1    4 1   
     3    1   13 1   
     4    1   25 1   
     5    2   16 1   
     6    2   26 1   
     7    2   44 1   
     8    3   16 2   
     9    4    6 1   
    10    4    7 1   
    11    4   27 1   
    12    5    8 1   
    13    5   16 1   
    14    5   28 1   
    15    5   45 1   
    16    6   29 1   
    17    7    9 1   
    18    7   10 1   
    19    7   30 1   
    20    8   18 2   
    21    9   31 1   
    22   10   11 1   
    23   10   12 1   
    24   10   32 1   
    25   11   33 1   
    26   12   13 1   
    27   12   14 1   
    28   12   34 1   
    29   14   15 1   
    30   14   35 1   
    31   14   36 1   
    32   15   37 1   
    33   17   21 1   
    34   17   38 1   
    35   18   19 1   
    36   18   39 1   
    37   19   20 ar  
    38   19   24 ar  
    39   20   21 ar  
    40   20   40 1   
    41   21   22 ar  
    42   22   23 ar  
    43   22   41 1   
    44   23   24 ar  
    45   23   42 1   
    46   24   43 1   
@<TRIPOS>SUBSTRUCTURE
     1 16F         1 TEMP              0 ****  ****    0 ROOT
