@<TRIPOS>MOLECULE
16F
   45    46     1     0     0
SMALL
bcc


@<TRIPOS>ATOM
      1 C1          0.2710   -0.1230    0.0640 c3        1 16F      0.341300
      2 N1         -0.2160   -0.1320   -1.3860 ny        1 16F     -0.603800
      3 S1         -2.5680   -1.0880   -0.4960 s         1 16F      0.300600
      4 C2          1.8230   -0.1170    0.0970 c3        1 16F      0.111100
      5 N2         -1.9470   -0.8450   -3.0450 ny        1 16F     -0.325900
      6 O2          2.2330   -1.3000   -0.5510 oh        1 16F     -0.636800
      7 C3          2.2270   -0.0620    1.5810 c3        1 16F      0.119100
      8 N3         -1.5890    0.2650   -3.8280 n2        1 16F     -0.623400
      9 O3          3.6360    0.0130    1.5720 oh        1 16F     -0.589800
     10 C4          1.6040    1.1850    2.2430 c3        1 16F      0.079100
     11 O4          1.8770    1.0400    3.6220 oh        1 16F     -0.575800
     12 C5          0.0810    1.2060    2.0230 c3        1 16F      0.117100
     13 O5         -0.2230    1.0830    0.6100 os        1 16F     -0.428600
     14 C6         -0.5490    2.5410    2.4330 c3        1 16F      0.136400
     15 O6         -1.9490    2.3720    2.3260 oh        1 16F     -0.609800
     16 C7         -1.5790   -0.6910   -1.5600 c         1 16F      0.015400
     17 O7         -5.3460   -0.0700   -8.4090 oh        1 16F     -0.462100
     18 C8         -2.3550    0.7550   -4.7620 ce        1 16F      0.619800
     19 C9         -3.6850    0.3760   -5.2110 ca        1 16F     -0.249900
     20 C10        -3.9200    0.3330   -6.5890 ca        1 16F     -0.093000
     21 C11        -5.2040   -0.0230   -7.0530 ca        1 16F      0.162100
     22 C12        -6.2390   -0.3000   -6.1470 ca        1 16F     -0.147000
     23 C13        -5.9910   -0.2200   -4.7770 ca        1 16F     -0.064000
     24 C14        -4.7240    0.1080   -4.3020 ca        1 16F     -0.180000
     25 H1         -0.1500   -1.0330    0.5890 hx        1 16F      0.120700
     26 HN1         0.4810   -0.6720   -1.9290 hn        1 16F      0.498300
     27 H2          2.2420    0.7800   -0.4420 h1        1 16F      0.097700
     28 HN2        -2.9650   -1.0830   -3.0680 hn        1 16F      0.473300
     29 HO2         3.1440   -1.4930   -0.2690 ho        1 16F      0.487000
     30 H3          1.8910   -0.9920    2.1210 h1        1 16F      0.083700
     31 HO3         3.9270    0.0460    2.4980 ho        1 16F      0.460000
     32 H4          2.0750    2.1160    1.8220 h1        1 16F      0.084700
     33 HO4         1.9230    1.9240    4.0130 ho        1 16F      0.438000
     34 H5         -0.4110    0.3580    2.5740 h1        1 16F      0.095700
     35 H6         -0.2360    2.7620    3.4890 h1        1 16F      0.064200
     36 H6A        -0.2150    3.3650    1.7480 h1        1 16F      0.064200
     37 HO6        -2.3610    3.0460    2.8840 ho        1 16F      0.438000
     38 HO7        -6.2720   -0.2740   -8.6270 ho        1 16F      0.456000
     39 H8         -1.8500    1.5930   -5.3150 h4        1 16F      0.108800
     40 H10        -3.1310    0.5640   -7.3240 ha        1 16F      0.180000
     41 H12        -7.2450   -0.5650   -6.5150 ha        1 16F      0.179000
     42 H13        -6.8130   -0.4080   -4.0660 ha        1 16F      0.170000
     43 H14        -4.5810    0.2430   -3.2210 ha        1 16F      0.116000
     44 H121       -0.2050    0.8510   -1.7200 hn        1 16F      0.498300
     45 H22        -1.4200   -1.6570   -3.4210 hn        1 16F      0.473300
@<TRIPOS>BOND
     1    1    2 1   
     2    1    4 1   
     3    1   13 1   
     4    1   25 1   
     5    2   16 1   
     6    2   26 1   
     7    2   44 1   
     8    3   16 2   
     9    4    6 1   
    10    4    7 1   
    11    4   27 1   
    12    5    8 1   
    13    5   16 1   
    14    5   28 1   
    15    5   45 1   
    16    6   29 1   
    17    7    9 1   
    18    7   10 1   
    19    7   30 1   
    20    8   18 2   
    21    9   31 1   
    22   10   11 1   
    23   10   12 1   
    24   10   32 1   
    25   11   33 1   
    26   12   13 1   
    27   12   14 1   
    28   12   34 1   
    29   14   15 1   
    30   14   35 1   
    31   14   36 1   
    32   15   37 1   
    33   17   21 1   
    34   17   38 1   
    35   18   19 1   
    36   18   39 1   
    37   19   20 ar  
    38   19   24 ar  
    39   20   21 ar  
    40   20   40 1   
    41   21   22 ar  
    42   22   23 ar  
    43   22   41 1   
    44   23   24 ar  
    45   23   42 1   
    46   24   43 1   
@<TRIPOS>SUBSTRUCTURE
     1 16F         1 TEMP              0 ****  ****    0 ROOT
