@<TRIPOS>MOLECULE
16F
   45    46     1     0     0
SMALL
bcc


@<TRIPOS>ATOM
      1 C1          0.2410   -0.1410    0.0700 c3        1 16F      0.341300
      2 N1         -0.2440   -0.1450   -1.3790 n4        1 16F     -0.603800
      3 S1         -2.6390   -0.9770   -0.4820 s         1 16F      0.300600
      4 C2          1.7920   -0.2060    0.1060 c3        1 16F      0.111100
      5 N2         -2.0050   -0.7950   -3.0320 n4        1 16F     -0.325900
      6 O2          2.1470   -1.4160   -0.5260 oh        1 16F     -0.636800
      7 C3          2.1970   -0.1520    1.5900 c3        1 16F      0.119100
      8 N3         -1.5930    0.2850   -3.8290 n2        1 16F     -0.623400
      9 O3          3.6080   -0.1420    1.5830 oh        1 16F     -0.589800
     10 C4          1.6320    1.1320    2.2350 c3        1 16F      0.079100
     11 O4          1.8960    0.9920    3.6160 oh        1 16F     -0.575800
     12 C5          0.1120    1.2210    2.0120 c3        1 16F      0.116100
     13 O5         -0.1960    1.0940    0.6010 os        1 16F     -0.428600
     14 C6         -0.4550    2.5880    2.4050 c3        1 16F      0.136400
     15 O6         -1.8620    2.4840    2.2980 oh        1 16F     -0.609800
     16 C7         -1.6310   -0.6410   -1.5490 c         1 16F      0.015400
     17 O7         -5.3560    0.0710   -8.4130 oh        1 16F     -0.462100
     18 C8         -2.3340    0.8000   -4.7700 ce        1 16F      0.619800
     19 C9         -3.6800    0.4780   -5.2180 ca        1 16F     -0.249900
     20 C10        -3.9150    0.4290   -6.5950 ca        1 16F     -0.093000
     21 C11        -5.2130    0.1290   -7.0580 ca        1 16F      0.162100
     22 C12        -6.2620   -0.0880   -6.1500 ca        1 16F     -0.147000
     23 C13        -6.0120   -0.0020   -4.7810 ca        1 16F     -0.064000
     24 C14        -4.7310    0.2710   -4.3070 ca        1 16F     -0.180000
     25 H1         -0.2220   -1.0230    0.6070 hx        1 16F      0.120700
     26 HN1        -0.1860    0.8320   -1.7260 hn        1 16F      0.498300
     27 H2          2.2540    0.6630   -0.4440 h1        1 16F      0.097700
     28 HN2        -3.0330   -0.9860   -3.0550 hn        1 16F      0.473300
     29 HO2         3.0480   -1.6470   -0.2400 ho        1 16F      0.487000
     30 H3          1.8170   -1.0570    2.1420 h1        1 16F      0.083700
     31 HO3         3.8990   -0.1110    2.5090 ho        1 16F      0.460000
     32 H4          2.1460    2.0340    1.8030 h1        1 16F      0.084700
     33 HO4         1.9840    1.8770    3.9960 ho        1 16F      0.438000
     34 H5         -0.4200    0.4040    2.5740 h1        1 16F      0.095700
     35 H6         -0.1340    2.8080    3.4580 h1        1 16F      0.064200
     36 H6A        -0.0830    3.3870    1.7100 h1        1 16F      0.064200
     37 HO6        -2.2430    3.1830    2.8470 ho        1 16F      0.438000
     38 HO7        -6.2910   -0.0910   -8.6300 ho        1 16F      0.456000
     39 H8         -1.7890    1.6060   -5.3330 h4        1 16F      0.108800
     40 H10        -3.1150    0.6130   -7.3310 ha        1 16F      0.180000
     41 H12        -7.2790   -0.3090   -6.5170 ha        1 16F      0.179000
     42 H13        -6.8430   -0.1430   -4.0690 ha        1 16F      0.170000
     43 H14        -4.5840    0.4130   -3.2270 ha        1 16F      0.116000
     44 H121        0.4280   -0.7250   -1.9150 hn        1 16F      0.498300
     45 H22        -1.5160   -1.6370   -3.3980 hn        1 16F      0.473300
@<TRIPOS>BOND
     1    1    2 1   
     2    1    4 1   
     3    1   13 1   
     4    1   25 1   
     5    2   16 1   
     6    2   26 1   
     7    2   44 1   
     8    3   16 2   
     9    4    6 1   
    10    4    7 1   
    11    4   27 1   
    12    5    8 1   
    13    5   16 1   
    14    5   28 1   
    15    5   45 1   
    16    6   29 1   
    17    7    9 1   
    18    7   10 1   
    19    7   30 1   
    20    8   18 2   
    21    9   31 1   
    22   10   11 1   
    23   10   12 1   
    24   10   32 1   
    25   11   33 1   
    26   12   13 1   
    27   12   14 1   
    28   12   34 1   
    29   14   15 1   
    30   14   35 1   
    31   14   36 1   
    32   15   37 1   
    33   17   21 1   
    34   17   38 1   
    35   18   19 1   
    36   18   39 1   
    37   19   20 ar  
    38   19   24 ar  
    39   20   21 ar  
    40   20   40 1   
    41   21   22 ar  
    42   22   23 ar  
    43   22   41 1   
    44   23   24 ar  
    45   23   42 1   
    46   24   43 1   
@<TRIPOS>SUBSTRUCTURE
     1 16F         1 TEMP              0 ****  ****    0 ROOT
