@<TRIPOS>MOLECULE
16F
   43    42     1     0     0
SMALL
bcc


@<TRIPOS>ATOM
      1 C1          1.0940   -2.3140   -0.5720 c3        1 16F      0.104000
      2 N1          0.5620   -0.9920   -0.1550 n         1 16F     -0.371000
      3 S1         -1.9660   -1.5800   -0.8980 s         1 16F     -0.179000
      4 C2          2.4980   -2.2660   -0.4990 c3        1 16F      0.014000
      5 N2         -0.7380    0.8260   -1.2060 n         1 16F     -0.280000
      6 O2          3.0670   -3.5570   -1.1580 oh        1 16F     -0.302000
      7 C3          3.0110   -2.1790    0.8160 c3        1 16F     -0.006000
      8 N3         -0.9660    1.0480   -2.5580 n2        1 16F      0.017000
      9 O3          2.6760   -0.8210    1.3760 oh        1 16F     -0.338000
     10 C4          2.4670   -3.2260    1.7380 c3        1 16F     -0.033000
     11 O4          2.9390   -4.5040    1.3050 oh        1 16F     -0.325000
     12 C5          0.9060   -3.2700    1.8080 c3        1 16F     -0.037000
     13 O5          0.4920   -3.3420    0.2760 os        1 16F     -0.255000
     14 C6          0.4170   -2.1570    2.3930 c3        1 16F     -0.051000
     15 O6          0.3720   -2.3500    3.8520 oh        1 16F     -0.326000
     16 C7         -0.6560   -0.5190   -0.7010 c2        1 16F      0.160000
     17 O7         -5.2060    4.2840   -0.4100 oh        1 16F     -0.248000
     18 C8         -1.6050    2.1590   -2.9570 c1        1 16F     -0.136000
     19 C9         -2.0840    3.1880   -1.9190 c1        1 16F     -0.048000
     20 C10        -3.3970    3.2030   -1.5320 c2        1 16F     -0.195000
     21 C11        -3.8740    4.2330   -0.7400 c2        1 16F      0.081000
     22 C12        -3.0200    5.2500   -0.3370 c2        1 16F     -0.147000
     23 C13        -1.7130    5.2360   -0.7210 c1        1 16F     -0.097000
     24 C14        -1.2340    4.2030   -1.5160 c1        1 16F     -0.161000
     25 H1          0.8280   -2.4820   -1.5150 h2        1 16F      0.198000
     26 HN1         1.1120   -0.4010    0.3550 hn        1 16F      0.235000
     27 H2          2.8010   -1.5120   -0.9940 h1        1 16F      0.143000
     28 HN2        -0.5620    1.5400   -0.6450 hn        1 16F      0.207000
     29 HO2         3.6660   -3.3340   -1.7780 ho        1 16F      0.226000
     30 H3          3.9930   -2.2720    0.7780 h1        1 16F      0.119000
     31 HO3         3.4240   -0.3950    1.5840 ho        1 16F      0.217000
     32 H4          2.8010   -3.0610    2.6110 h1        1 16F      0.099000
     33 HO4         3.3910   -4.8960    1.9700 ho        1 16F      0.213000
     34 H5          0.6080   -4.0680    2.2810 h1        1 16F      0.114000
     35 H6          0.9850   -1.4120    2.1860 h1        1 16F      0.104500
     36 H6A        -0.4800   -1.9820    2.0610 h1        1 16F      0.104500
     37 HO6        -0.4010   -1.9280    4.2040 ho        1 16F      0.202000
     38 HO7        -5.6530    4.6750   -1.0630 ho        1 16F      0.221000
     39 H8         -1.7680    2.3150   -3.9120 ha        1 16F      0.178000
     40 H10        -3.9970    2.5060   -1.8310 ha        1 16F      0.141000
     41 H12        -3.3660    5.9980    0.2380 ha        1 16F      0.155000
     42 H13        -1.1020    5.9660   -0.4320 ha        1 16F      0.140000
     43 H14        -0.3240    4.1910   -1.7820 ha        1 16F      0.145000
@<TRIPOS>BOND
     1    1    2 1   
     2    1    4 1   
     3    1   13 1   
     4    1   25 1   
     5    2   16 1   
     6    2   26 1   
     7    3   16 1   
     8    4    6 1   
     9    4    7 1   
    10    4   27 1   
    11    5    8 1   
    12    5   16 1   
    13    5   28 1   
    14    6   29 1   
    15    7    9 1   
    16    7   10 1   
    17    7   30 1   
    18    8   18 1   
    19    9   31 1   
    20   10   11 1   
    21   10   12 1   
    22   10   32 1   
    23   11   33 1   
    24   12   13 1   
    25   12   14 1   
    26   12   34 1   
    27   14   15 1   
    28   14   35 1   
    29   14   36 1   
    30   15   37 1   
    31   17   21 1   
    32   17   38 1   
    33   18   39 1   
    34   19   20 1   
    35   19   24 1   
    36   20   21 1   
    37   20   40 1   
    38   21   22 1   
    39   22   23 1   
    40   22   41 1   
    41   23   42 1   
    42   24   43 1   
@<TRIPOS>SUBSTRUCTURE
     1 16F         1 TEMP              0 ****  ****    0 ROOT
