@<TRIPOS>MOLECULE
16F
   43    44     1     0     0
SMALL
bcc


@<TRIPOS>ATOM
      1 C1         -2.1540   -0.4420   -0.2650 c3        1 16F      0.235500
      2 N1         -0.7730   -0.7440    0.0640 n         1 16F     -0.480900
      3 S1          0.0370    0.1260   -2.3140 s         1 16F     -0.533400
      4 C2         -3.0700   -1.6890   -0.1100 c3        1 16F      0.090100
      5 N2          1.5470   -0.1050   -0.2420 n         1 16F     -0.296900
      6 O2         -2.8000   -2.6700   -1.0940 oh        1 16F     -0.599800
      7 C3         -4.5290   -1.2630   -0.3490 c3        1 16F      0.108100
      8 N3          1.9070   -0.4250    1.0000 n2        1 16F     -0.471300
      9 O3         -5.4160   -2.3270   -0.0500 oh        1 16F     -0.607800
     10 C4         -4.9040   -0.1060    0.5900 c3        1 16F      0.117100
     11 O4         -6.1890    0.3970    0.2720 oh        1 16F     -0.593800
     12 C5         -3.8980    1.0440    0.4050 c3        1 16F      0.149100
     13 O5         -2.5830    0.5580    0.6820 os        1 16F     -0.439600
     14 C6         -4.1590    2.1630    1.4150 c3        1 16F      0.135400
     15 O6         -3.6680    3.3610    0.8360 oh        1 16F     -0.594800
     16 C7          0.2380   -0.2430   -0.7500 c         1 16F      0.581400
     17 O7          7.7530   -1.2050    0.3290 oh        1 16F     -0.494100
     18 C8          3.1350   -0.3510    1.4190 ce        1 16F      0.394800
     19 C9          4.3570    0.0530    0.7150 ca        1 16F     -0.143900
     20 C10         5.4930   -0.7520    0.8360 ca        1 16F     -0.135000
     21 C11         6.6720   -0.3690    0.1750 ca        1 16F      0.126100
     22 C12         6.7220    0.8050   -0.5910 ca        1 16F     -0.200000
     23 C13         5.5820    1.5990   -0.6890 ca        1 16F     -0.086000
     24 C14         4.4030    1.2300   -0.0430 ca        1 16F     -0.158000
     25 H1         -2.2250   -0.0400   -1.3240 h2        1 16F      0.122700
     26 HN1        -0.6070   -0.8130    1.0500 hn        1 16F      0.324500
     27 H2         -2.9650   -2.1350    0.9170 h1        1 16F      0.060700
     28 HN2         2.2360    0.1190   -0.9500 hn        1 16F      0.345500
     29 HO2        -1.8640   -2.9000   -1.0310 ho        1 16F      0.425000
     30 H3         -4.6620   -0.9520   -1.4240 h1        1 16F      0.070700
     31 HO3        -5.1500   -3.0730   -0.6040 ho        1 16F      0.429000
     32 H4         -4.8920   -0.4680    1.6560 h1        1 16F      0.059700
     33 HO4        -6.7860   -0.3640    0.2640 ho        1 16F      0.426000
     34 H5         -3.9500    1.4480   -0.6430 h1        1 16F      0.086700
     35 H6         -5.2670    2.2480    1.5860 h1        1 16F      0.047200
     36 H6A        -3.6330    1.9460    2.3820 h1        1 16F      0.047200
     37 HO6        -3.7160    4.0370    1.5220 ho        1 16F      0.403000
     38 HO7         8.4920   -0.8340   -0.1760 ho        1 16F      0.423000
     39 H8          3.2650   -0.6560    2.4790 h4        1 16F      0.044800
     40 H10         5.4790   -1.6750    1.4310 ha        1 16F      0.156000
     41 H12         7.6510    1.0930   -1.1040 ha        1 16F      0.139000
     42 H13         5.6130    2.5250   -1.2820 ha        1 16F      0.142000
     43 H14         3.5210    1.8840   -0.1120 ha        1 16F      0.145000
@<TRIPOS>BOND
     1    1    2 1   
     2    1    4 1   
     3    1   13 1   
     4    1   25 1   
     5    2   16 1   
     6    2   26 1   
     7    3   16 2   
     8    4    6 1   
     9    4    7 1   
    10    4   27 1   
    11    5    8 1   
    12    5   16 1   
    13    5   28 1   
    14    6   29 1   
    15    7    9 1   
    16    7   10 1   
    17    7   30 1   
    18    8   18 2   
    19    9   31 1   
    20   10   11 1   
    21   10   12 1   
    22   10   32 1   
    23   11   33 1   
    24   12   13 1   
    25   12   14 1   
    26   12   34 1   
    27   14   15 1   
    28   14   35 1   
    29   14   36 1   
    30   15   37 1   
    31   17   21 1   
    32   17   38 1   
    33   18   19 1   
    34   18   39 1   
    35   19   20 ar  
    36   19   24 ar  
    37   20   21 ar  
    38   20   40 1   
    39   21   22 ar  
    40   22   23 ar  
    41   22   41 1   
    42   23   24 ar  
    43   23   42 1   
    44   24   43 1   
@<TRIPOS>SUBSTRUCTURE
     1 16F         1 TEMP              0 ****  ****    0 ROOT
