@<TRIPOS>MOLECULE
16G
   33    33     1     0     0
SMALL
bcc


@<TRIPOS>ATOM
      1 C1          1.6100    1.3850   -0.0080 c3        1 16G      0.343900
      2 C2          2.5010    0.1210    0.1850 c3        1 16G      0.042700
      3 C3          1.7410   -1.0740   -0.4080 c3        1 16G      0.030100
      4 C4          0.3600   -1.2350    0.3510 c3        1 16G      0.370800
      5 C5         -0.4270    0.0660    0.0390 c3        1 16G      0.040100
      6 C6         -1.7600    0.1150    0.8030 c3        1 16G      0.199400
      7 C7          4.9460    0.5810    0.3290 c         1 16G      0.649100
      8 C8          6.2700    0.4940   -0.4070 c3        1 16G     -0.177100
      9 N2          3.8190    0.2950   -0.3920 n         1 16G     -0.516900
     10 O1          1.5320    1.8010   -1.3570 oh        1 16G     -0.655800
     11 O3          2.5020   -2.2610   -0.2860 oh        1 16G     -0.656800
     12 O4         -0.2280   -2.3520   -0.0100 o         1 16G     -0.863500
     13 O5          0.3020    1.2390    0.4680 os        1 16G     -0.449600
     14 O6         -2.8050    0.4440   -0.0590 os        1 16G     -0.592200
     15 O7          4.9270    0.9440    1.5280 o         1 16G     -0.653100
     16 P          -4.0120   -0.6780   -0.2330 p5        1 16G      1.437800
     17 O1P        -4.3090   -1.2050    1.1200 o         1 16G     -0.856000
     18 O2P        -5.0450   -0.0960   -1.1180 o         1 16G     -0.856000
     19 O3P        -3.1710   -1.7940   -1.0560 oh        1 16G     -0.811400
     20 H1          2.0440    2.2630    0.5510 h2        1 16G      0.068700
     21 H2          2.6190   -0.0310    1.2990 h1        1 16G      0.086700
     22 H3          1.5570   -0.9040   -1.5050 h1        1 16G      0.011700
     23 H4          0.6280   -1.1910    1.4600 h1        1 16G     -0.072300
     24 H5         -0.6260    0.1470   -1.0620 h1        1 16G      0.036700
     25 H61        -1.9480   -0.8870    1.2830 h1        1 16G      0.037700
     26 H62        -1.6940    0.9070    1.6030 h1        1 16G      0.037700
     27 H81         6.2710    1.1650   -1.2980 hc        1 16G      0.047033
     28 H82         7.0880    0.8080    0.2850 hc        1 16G      0.047033
     29 H83         6.4570   -0.5540   -0.7400 hc        1 16G      0.047033
     30 HN2         3.9300   -0.0840   -1.3040 hn        1 16G      0.302500
     31 HO1         0.9160    1.2150   -1.8130 ho        1 16G      0.416000
     32 HO3         1.8510   -2.9540   -0.0700 ho        1 16G      0.436000
     33 HO4        -2.3200   -2.0310   -0.6820 ho        1 16G      0.472000
@<TRIPOS>BOND
     1    1    2 1   
     2    1   10 1   
     3    1   13 1   
     4    1   20 1   
     5    2    3 1   
     6    2    9 1   
     7    2   21 1   
     8    3    4 1   
     9    3   11 1   
    10    3   22 1   
    11    4    5 1   
    12    4   12 1   
    13    4   23 1   
    14    5    6 1   
    15    5   13 1   
    16    5   24 1   
    17    6   14 1   
    18    6   25 1   
    19    6   26 1   
    20    7    8 1   
    21    7    9 1   
    22    7   15 2   
    23    8   27 1   
    24    8   28 1   
    25    8   29 1   
    26    9   30 1   
    27   10   31 1   
    28   11   32 1   
    29   14   16 1   
    30   16   17 1   
    31   16   18 1   
    32   16   19 1   
    33   19   33 1   
@<TRIPOS>SUBSTRUCTURE
     1 16G         1 TEMP              0 ****  ****    0 ROOT
