@<TRIPOS>MOLECULE
16G
   33    32     1     0     0
SMALL
bcc


@<TRIPOS>ATOM
      1 C1         -1.0350   -1.3700   -0.1270 c3        1 16G      0.152000
      2 C2          0.2940   -0.6360   -0.6420 c3        1 16G     -0.036000
      3 C3          1.1330   -0.7820    0.7180 c3        1 16G      0.008000
      4 C4          0.5030   -0.0790    1.8730 c3        1 16G      0.014000
      5 C5         -0.8590    0.1750    1.6360 c3        1 16G     -0.035000
      6 C6         -0.9120    1.6330    0.7270 c3        1 16G      0.072000
      7 C7          1.2860   -0.5370   -2.7580 c1        1 16G      0.305000
      8 C8          1.9250   -1.3110   -3.9570 c2        1 16G     -0.246000
      9 N2          0.8360   -1.2560   -1.5940 n3        1 16G     -0.349000
     10 O1         -0.7190   -2.6000    0.2550 oh        1 16G     -0.337000
     11 O3          2.4180   -0.2570    0.5130 oh        1 16G     -0.361000
     12 O4          0.6330   -0.9300    3.0920 oh        1 16G     -0.421000
     13 O5         -1.6950   -0.6650    1.0220 os        1 16G     -0.344000
     14 O6         -2.2610    2.0780    0.6250 os        1 16G     -0.724000
     15 O7          1.1380    0.6950   -2.8230 o         1 16G     -0.393000
     16 P          -2.6780    3.3970    1.3770 p5        1 16G      1.559500
     17 O1P        -4.0870    3.7620    0.9990 o         1 16G     -0.917833
     18 O2P        -2.5980    3.1750    2.8660 o         1 16G     -0.917833
     19 O3P        -1.7490    4.5110    0.9860 o         1 16G     -0.917833
     20 H1         -1.6750   -1.4240   -0.8750 h2        1 16G      0.135000
     21 H2          0.1260    0.2970   -0.8630 h1        1 16G      0.141000
     22 H3          1.2140   -1.7400    0.9380 h1        1 16G      0.069000
     23 H4          0.9610    0.7600    2.0220 h1        1 16G      0.126000
     24 H5         -1.2630    0.3700    2.5250 h1        1 16G      0.106000
     25 H61        -0.5510    1.4720   -0.1730 h1        1 16G      0.040500
     26 H62        -0.3570    2.3400    1.1910 h1        1 16G      0.040500
     27 H81         2.0800   -0.6890   -4.7030 ha        1 16G      0.089000
     28 H82         1.3070   -2.0390   -4.2520 ha        1 16G      0.089000
     29 H83         2.7830   -1.7040   -3.6750 ha        1 16G      0.089000
     30 HN2         1.0000   -2.1570   -1.5190 hn        1 16G      0.215000
     31 HO1        -1.3950   -3.1710    0.0320 ho        1 16G      0.202000
     32 HO3         3.0310   -0.8230    0.8530 ho        1 16G      0.232000
     33 HO4         1.1660   -0.4980    3.7130 ho        1 16G      0.318000
@<TRIPOS>BOND
     1    1    2 1   
     2    1   10 1   
     3    1   13 1   
     4    1   20 1   
     5    2    3 1   
     6    2    9 1   
     7    2   21 1   
     8    3    4 1   
     9    3   11 1   
    10    3   22 1   
    11    4    5 1   
    12    4   12 1   
    13    4   23 1   
    14    5    6 1   
    15    5   13 1   
    16    5   24 1   
    17    6   14 1   
    18    6   25 1   
    19    6   26 1   
    20    7    9 1   
    21    7   15 1   
    22    8   27 1   
    23    8   28 1   
    24    8   29 1   
    25    9   30 1   
    26   10   31 1   
    27   11   32 1   
    28   12   33 1   
    29   14   16 1   
    30   16   17 1   
    31   16   18 1   
    32   16   19 1   
@<TRIPOS>SUBSTRUCTURE
     1 16G         1 TEMP              0 ****  ****    0 ROOT
