@<TRIPOS>MOLECULE
16H
   75    75     1     0     0
SMALL
bcc


@<TRIPOS>ATOM
      1 O21         3.1290   -1.7860    1.4110 o         1 16H     -0.603100
      2 C21         3.2300   -1.2070    0.3110 c         1 16H      0.649100
      3 N2          4.4690   -0.9870   -0.2760 n         1 16H     -0.552900
      4 C2          5.6670   -1.6010    0.2510 c3        1 16H      0.096700
      5 C1          5.8720   -3.0500   -0.2460 c3        1 16H      0.098400
      6 O1          6.0240   -3.0140   -1.6560 oh        1 16H     -0.610800
      7 C3          6.9260   -0.7850   -0.0760 c3        1 16H     -0.107400
      8 C4          7.0070    0.4920    0.7590 c3        1 16H      0.182400
      9 C5          8.1010    1.3850    0.2410 ca        1 16H     -0.116300
     10 C6          7.7840    2.6390   -0.2900 ca        1 16H     -0.119000
     11 C7          8.7920    3.4710   -0.7760 ca        1 16H     -0.128000
     12 C8         10.1230    3.0580   -0.7300 ca        1 16H     -0.125000
     13 C9         10.4450    1.8090   -0.1980 ca        1 16H     -0.128000
     14 C10         9.4390    0.9760    0.2850 ca        1 16H     -0.119000
     15 O4          7.1820    0.1860    2.1340 oh        1 16H     -0.586800
     16 C22         2.0250   -0.6480   -0.4250 c3        1 16H     -0.150400
     17 C23         0.7420   -0.9680    0.3110 c3        1 16H     -0.074400
     18 C24        -0.4560   -0.3970   -0.4170 c3        1 16H     -0.079400
     19 C25        -1.7410   -0.7170    0.3160 c3        1 16H     -0.078400
     20 C26        -2.9420   -0.1470   -0.4090 c3        1 16H     -0.079400
     21 C27        -4.2270   -0.4670    0.3240 c3        1 16H     -0.079400
     22 C28        -5.4290    0.1020   -0.4000 c3        1 16H     -0.078400
     23 C29        -6.7140   -0.2170    0.3340 c3        1 16H     -0.079400
     24 C30        -7.9150    0.3520   -0.3900 c3        1 16H     -0.078400
     25 C31        -9.2000    0.0320    0.3430 c3        1 16H     -0.079400
     26 C32       -10.4020    0.6010   -0.3800 c3        1 16H     -0.078400
     27 C33       -11.6870    0.2810    0.3530 c3        1 16H     -0.079400
     28 C34       -12.8890    0.8500   -0.3710 c3        1 16H     -0.079400
     29 C35       -14.1750    0.5310    0.3620 c3        1 16H     -0.080400
     30 C36       -15.3740    1.0950   -0.3550 c3        1 16H     -0.092100
     31 HN2         4.4920   -0.7700   -1.2460 hn        1 16H      0.305500
     32 H2          5.5560   -1.6530    1.3790 h1        1 16H      0.104700
     33 H1          6.7930   -3.4790    0.2290 h1        1 16H      0.035200
     34 H1A         4.9860   -3.6820    0.0330 h1        1 16H      0.035200
     35 HO1         6.1050   -3.9280   -1.9490 ho        1 16H      0.403000
     36 H3          7.8210   -1.4240    0.1430 hc        1 16H      0.058700
     37 H3A         6.9550   -0.5290   -1.1660 hc        1 16H      0.058700
     38 H4          6.0180    1.0360    0.7380 h1        1 16H      0.091700
     39 H6          6.7360    2.9720   -0.3220 ha        1 16H      0.130000
     40 H7          8.5360    4.4560   -1.1930 ha        1 16H      0.132500
     41 H8         10.9180    3.7160   -1.1110 ha        1 16H      0.133000
     42 H9         11.4950    1.4810   -0.1600 ha        1 16H      0.132500
     43 H10         9.6970   -0.0110    0.6990 ha        1 16H      0.130000
     44 HO4         8.0600   -0.1990    2.2400 ho        1 16H      0.395000
     45 H22         2.1420    0.4640   -0.5220 hc        1 16H      0.062200
     46 H22A        1.9890   -1.0810   -1.4600 hc        1 16H      0.062200
     47 H23         0.6370   -2.0800    0.4120 hc        1 16H      0.059200
     48 H23A        0.7960   -0.5520    1.3510 hc        1 16H      0.059200
     49 H24        -0.3450    0.7150   -0.5130 hc        1 16H      0.037200
     50 H24A       -0.5020   -0.8160   -1.4570 hc        1 16H      0.037200
     51 H25        -1.8520   -1.8290    0.4120 hc        1 16H      0.043200
     52 H25A       -1.6940   -0.2980    1.3550 hc        1 16H      0.043200
     53 H26        -2.8310    0.9650   -0.5050 hc        1 16H      0.038700
     54 H26A       -2.9880   -0.5660   -1.4490 hc        1 16H      0.038700
     55 H27        -4.3380   -1.5790    0.4210 hc        1 16H      0.040700
     56 H27A       -4.1810   -0.0480    1.3640 hc        1 16H      0.040700
     57 H28        -5.3170    1.2150   -0.4960 hc        1 16H      0.039200
     58 H28A       -5.4750   -0.3170   -1.4390 hc        1 16H      0.039200
     59 H29        -6.8250   -1.3290    0.4310 hc        1 16H      0.039700
     60 H29A       -6.6680    0.2020    1.3730 hc        1 16H      0.039700
     61 H30        -7.8040    1.4640   -0.4870 hc        1 16H      0.039200
     62 H30A       -7.9620   -0.0680   -1.4300 hc        1 16H      0.039200
     63 H31        -9.3110   -1.0800    0.4410 hc        1 16H      0.039700
     64 H31A       -9.1540    0.4520    1.3830 hc        1 16H      0.039700
     65 H32       -10.2910    1.7130   -0.4780 hc        1 16H      0.039700
     66 H32A      -10.4480    0.1810   -1.4200 hc        1 16H      0.039700
     67 H33       -11.7980   -0.8310    0.4510 hc        1 16H      0.039700
     68 H33A      -11.6410    0.7010    1.3930 hc        1 16H      0.039700
     69 H34       -12.7780    1.9620   -0.4680 hc        1 16H      0.039700
     70 H34A      -12.9350    0.4300   -1.4100 hc        1 16H      0.039700
     71 H35       -14.2830   -0.5820    0.4600 hc        1 16H      0.038700
     72 H35A      -14.1260    0.9500    1.4020 hc        1 16H      0.038700
     73 H36       -16.3110    0.8490    0.2010 hc        1 16H      0.032700
     74 H36A      -15.2970    2.2060   -0.4410 hc        1 16H      0.032700
     75 H36B      -15.4540    0.6700   -1.3850 hc        1 16H      0.032700
@<TRIPOS>BOND
     1    1    2 2   
     2    2    3 1   
     3    2   16 1   
     4    3    4 1   
     5    3   31 1   
     6    4    5 1   
     7    4    7 1   
     8    4   32 1   
     9    5    6 1   
    10    5   33 1   
    11    5   34 1   
    12    6   35 1   
    13    7    8 1   
    14    7   36 1   
    15    7   37 1   
    16    8    9 1   
    17    8   15 1   
    18    8   38 1   
    19    9   10 ar  
    20    9   14 ar  
    21   10   11 ar  
    22   10   39 1   
    23   11   12 ar  
    24   11   40 1   
    25   12   13 ar  
    26   12   41 1   
    27   13   14 ar  
    28   13   42 1   
    29   14   43 1   
    30   15   44 1   
    31   16   17 1   
    32   16   45 1   
    33   16   46 1   
    34   17   18 1   
    35   17   47 1   
    36   17   48 1   
    37   18   19 1   
    38   18   49 1   
    39   18   50 1   
    40   19   20 1   
    41   19   51 1   
    42   19   52 1   
    43   20   21 1   
    44   20   53 1   
    45   20   54 1   
    46   21   22 1   
    47   21   55 1   
    48   21   56 1   
    49   22   23 1   
    50   22   57 1   
    51   22   58 1   
    52   23   24 1   
    53   23   59 1   
    54   23   60 1   
    55   24   25 1   
    56   24   61 1   
    57   24   62 1   
    58   25   26 1   
    59   25   63 1   
    60   25   64 1   
    61   26   27 1   
    62   26   65 1   
    63   26   66 1   
    64   27   28 1   
    65   27   67 1   
    66   27   68 1   
    67   28   29 1   
    68   28   69 1   
    69   28   70 1   
    70   29   30 1   
    71   29   71 1   
    72   29   72 1   
    73   30   73 1   
    74   30   74 1   
    75   30   75 1   
@<TRIPOS>SUBSTRUCTURE
     1 16H         1 TEMP              0 ****  ****    0 ROOT
