@<TRIPOS>MOLECULE
16H
   76    76     1     0     0
SMALL
bcc


@<TRIPOS>ATOM
      1 O21         0.1590    0.4300    0.0420 o         1 16H     -0.412100
      2 C21         1.3550    0.3360   -0.1840 c         1 16H      0.551100
      3 N2          2.2930    0.4610    0.9990 ny        1 16H     -0.676800
      4 C2          1.6470    0.1970    2.3320 c3        1 16H      0.137500
      5 C1          1.2220   -1.2810    2.4610 c3        1 16H      0.107400
      6 O1          2.3430   -2.0800    2.1230 oh        1 16H     -0.635800
      7 C3          2.5660    0.5660    3.4970 c3        1 16H     -0.117400
      8 C4          3.1820    1.9680    3.4150 c3        1 16H      0.191400
      9 C5          3.4130    2.5260    4.7850 ca        1 16H     -0.163300
     10 C6          4.7050    2.5550    5.3190 ca        1 16H     -0.114000
     11 C7          4.9200    3.0730    6.5960 ca        1 16H     -0.118500
     12 C8          3.8490    3.5670    7.3400 ca        1 16H     -0.099000
     13 C9          2.5580    3.5410    6.8090 ca        1 16H     -0.118500
     14 C10         2.3390    3.0200    5.5350 ca        1 16H     -0.114000
     15 O4          2.3170    2.7780    2.6210 oh        1 16H     -0.659800
     16 C22         2.0390    0.1050   -1.5010 c3        1 16H     -0.155400
     17 C23         1.0680    0.3050   -2.6510 c3        1 16H     -0.082400
     18 C24         1.7530    0.0190   -3.9710 c3        1 16H     -0.080400
     19 C25         0.7950    0.2230   -5.1260 c3        1 16H     -0.079400
     20 C26         1.4730   -0.0610   -6.4500 c3        1 16H     -0.079400
     21 C27         0.5180    0.1420   -7.6060 c3        1 16H     -0.079400
     22 C28         1.1940   -0.1410   -8.9310 c3        1 16H     -0.079400
     23 C29         0.2400    0.0640  -10.0880 c3        1 16H     -0.079400
     24 C30         0.9150   -0.2180  -11.4130 c3        1 16H     -0.079400
     25 C31        -0.0380   -0.0120  -12.5700 c3        1 16H     -0.079400
     26 C32         0.6370   -0.2940  -13.8950 c3        1 16H     -0.079400
     27 C33        -0.3170   -0.0880  -15.0520 c3        1 16H     -0.079400
     28 C34         0.3590   -0.3690  -16.3770 c3        1 16H     -0.079400
     29 C35        -0.5940   -0.1630  -17.5350 c3        1 16H     -0.080400
     30 C36         0.0740   -0.4420  -18.8570 c3        1 16H     -0.093100
     31 HN2         2.6640    1.4240    1.0090 hn        1 16H      0.472300
     32 H2          0.7180    0.8470    2.3710 hx        1 16H      0.133700
     33 H1          0.8880   -1.4620    3.5170 h1        1 16H      0.073200
     34 H1A         0.3770   -1.5070    1.7550 h1        1 16H      0.073200
     35 HO1         2.2120   -2.9520    2.5170 ho        1 16H      0.449000
     36 H3          3.3930   -0.1870    3.5860 hc        1 16H      0.093200
     37 H3A         1.9390    0.4960    4.4280 hc        1 16H      0.093200
     38 H4          4.1660    1.9110    2.8600 h1        1 16H      0.044700
     39 H6          5.5560    2.1720    4.7340 ha        1 16H      0.135500
     40 H7          5.9380    3.0950    7.0130 ha        1 16H      0.150500
     41 H8          4.0210    3.9780    8.3480 ha        1 16H      0.152000
     42 H9          1.7120    3.9320    7.3950 ha        1 16H      0.150500
     43 H10         1.3220    2.9980    5.1150 ha        1 16H      0.135500
     44 HO4         2.3100    3.6720    2.9870 ho        1 16H      0.452000
     45 H22         2.4320   -0.9510   -1.5120 hc        1 16H      0.099200
     46 H22A        2.9130    0.8020   -1.6160 hc        1 16H      0.099200
     47 H23         0.1840   -0.3750   -2.5220 hc        1 16H      0.069700
     48 H23A        0.6820    1.3580   -2.6400 hc        1 16H      0.069700
     49 H24         2.1350   -1.0360   -3.9810 hc        1 16H      0.047700
     50 H24A        2.6390    0.6970   -4.0940 hc        1 16H      0.047700
     51 H25         0.4130    1.2780   -5.1180 hc        1 16H      0.048200
     52 H25A       -0.0920   -0.4540   -5.0050 hc        1 16H      0.048200
     53 H26         2.3610    0.6140   -6.5720 hc        1 16H      0.042700
     54 H26A        1.8550   -1.1160   -6.4590 hc        1 16H      0.042700
     55 H27         0.1350    1.1970   -7.5980 hc        1 16H      0.042700
     56 H27A       -0.3700   -0.5330   -7.4860 hc        1 16H      0.042700
     57 H28         2.0820    0.5340   -9.0520 hc        1 16H      0.040700
     58 H28A        1.5760   -1.1950   -8.9410 hc        1 16H      0.040700
     59 H29        -0.1430    1.1190  -10.0780 hc        1 16H      0.041200
     60 H29A       -0.6480   -0.6110   -9.9670 hc        1 16H      0.041200
     61 H30         1.8040    0.4570  -11.5330 hc        1 16H      0.040700
     62 H30A        1.2980   -1.2730  -11.4230 hc        1 16H      0.040700
     63 H31        -0.9270   -0.6870  -12.4500 hc        1 16H      0.040700
     64 H31A       -0.4210    1.0420  -12.5590 hc        1 16H      0.040700
     65 H32         1.5250    0.3810  -14.0150 hc        1 16H      0.039700
     66 H32A        1.0190   -1.3490  -13.9060 hc        1 16H      0.039700
     67 H33        -0.6990    0.9670  -15.0410 hc        1 16H      0.039700
     68 H33A       -1.2050   -0.7630  -14.9320 hc        1 16H      0.039700
     69 H34         0.7410   -1.4240  -16.3890 hc        1 16H      0.039700
     70 H34A        1.2470    0.3060  -16.4970 hc        1 16H      0.039700
     71 H35        -0.9770    0.8910  -17.5220 hc        1 16H      0.038700
     72 H35A       -1.4820   -0.8380  -17.4130 hc        1 16H      0.038700
     73 H36         0.4400   -1.4960  -18.9000 hc        1 16H      0.033367
     74 H36A        0.9470    0.2380  -19.0090 hc        1 16H      0.033367
     75 H36B       -0.6450   -0.2840  -19.6960 hc        1 16H      0.033367
     76 H221        3.0690   -0.2000    0.8800 hn        1 16H      0.472300
@<TRIPOS>BOND
     1    1    2 2   
     2    2    3 1   
     3    2   16 1   
     4    3    4 1   
     5    3   31 1   
     6    3   76 1   
     7    4    5 1   
     8    4    7 1   
     9    4   32 1   
    10    5    6 1   
    11    5   33 1   
    12    5   34 1   
    13    6   35 1   
    14    7    8 1   
    15    7   36 1   
    16    7   37 1   
    17    8    9 1   
    18    8   15 1   
    19    8   38 1   
    20    9   10 ar  
    21    9   14 ar  
    22   10   11 ar  
    23   10   39 1   
    24   11   12 ar  
    25   11   40 1   
    26   12   13 ar  
    27   12   41 1   
    28   13   14 ar  
    29   13   42 1   
    30   14   43 1   
    31   15   44 1   
    32   16   17 1   
    33   16   45 1   
    34   16   46 1   
    35   17   18 1   
    36   17   47 1   
    37   17   48 1   
    38   18   19 1   
    39   18   49 1   
    40   18   50 1   
    41   19   20 1   
    42   19   51 1   
    43   19   52 1   
    44   20   21 1   
    45   20   53 1   
    46   20   54 1   
    47   21   22 1   
    48   21   55 1   
    49   21   56 1   
    50   22   23 1   
    51   22   57 1   
    52   22   58 1   
    53   23   24 1   
    54   23   59 1   
    55   23   60 1   
    56   24   25 1   
    57   24   61 1   
    58   24   62 1   
    59   25   26 1   
    60   25   63 1   
    61   25   64 1   
    62   26   27 1   
    63   26   65 1   
    64   26   66 1   
    65   27   28 1   
    66   27   67 1   
    67   27   68 1   
    68   28   29 1   
    69   28   69 1   
    70   28   70 1   
    71   29   30 1   
    72   29   71 1   
    73   29   72 1   
    74   30   73 1   
    75   30   74 1   
    76   30   75 1   
@<TRIPOS>SUBSTRUCTURE
     1 16H         1 TEMP              0 ****  ****    0 ROOT
