@<TRIPOS>MOLECULE
16H
   76    76     1     0     0
SMALL
bcc


@<TRIPOS>ATOM
      1 O21         0.1630    0.4330    0.0460 o         1 16H     -0.412100
      2 C21         1.3580    0.3390   -0.1820 c         1 16H      0.551100
      3 N2          2.2980    0.4680    1.0000 n4        1 16H     -0.676800
      4 C2          1.6540    0.1990    2.3330 c3        1 16H      0.137500
      5 C1          1.2350   -1.2800    2.4630 c3        1 16H      0.107400
      6 O1          2.3580   -2.0750    2.1220 oh        1 16H     -0.635800
      7 C3          2.5750    0.5710    3.4980 c3        1 16H     -0.117400
      8 C4          3.1850    1.9750    3.4170 c3        1 16H      0.191400
      9 C5          3.4170    2.5320    4.7860 ca        1 16H     -0.163300
     10 C6          4.7100    2.5660    5.3170 ca        1 16H     -0.114000
     11 C7          4.9250    3.0840    6.5950 ca        1 16H     -0.118500
     12 C8          3.8530    3.5720    7.3420 ca        1 16H     -0.099000
     13 C9          2.5620    3.5420    6.8120 ca        1 16H     -0.118500
     14 C10         2.3420    3.0220    5.5390 ca        1 16H     -0.114000
     15 O4          2.3170    2.7830    2.6240 oh        1 16H     -0.659800
     16 C22         2.0410    0.1040   -1.4990 c3        1 16H     -0.155400
     17 C23         1.0710    0.3120   -2.6480 c3        1 16H     -0.082400
     18 C24         1.7530    0.0190   -3.9680 c3        1 16H     -0.080400
     19 C25         0.7970    0.2320   -5.1240 c3        1 16H     -0.079400
     20 C26         1.4720   -0.0630   -6.4470 c3        1 16H     -0.079400
     21 C27         0.5190    0.1520   -7.6040 c3        1 16H     -0.079400
     22 C28         1.1910   -0.1440   -8.9280 c3        1 16H     -0.079400
     23 C29         0.2400    0.0730  -10.0850 c3        1 16H     -0.079400
     24 C30         0.9110   -0.2250  -11.4090 c3        1 16H     -0.079400
     25 C31        -0.0390   -0.0060  -12.5670 c3        1 16H     -0.079400
     26 C32         0.6310   -0.3050  -13.8910 c3        1 16H     -0.079400
     27 C33        -0.3190   -0.0860  -15.0490 c3        1 16H     -0.079400
     28 C34         0.3510   -0.3860  -16.3730 c3        1 16H     -0.079400
     29 C35        -0.5980   -0.1660  -17.5320 c3        1 16H     -0.080400
     30 C36         0.0640   -0.4640  -18.8520 c3        1 16H     -0.093100
     31 HN2         3.0760   -0.1910    0.8800 hn        1 16H      0.472300
     32 H2          0.7240    0.8460    2.3750 hx        1 16H      0.133700
     33 H1          0.3900   -1.5080    1.7570 h1        1 16H      0.073200
     34 H1A         0.9030   -1.4630    3.5180 h1        1 16H      0.073200
     35 HO1         2.2320   -2.9470    2.5170 ho        1 16H      0.449000
     36 H3          3.4050   -0.1790    3.5850 hc        1 16H      0.093200
     37 H3A         1.9490    0.4980    4.4290 hc        1 16H      0.093200
     38 H4          4.1680    1.9220    2.8600 h1        1 16H      0.044700
     39 H6          5.5610    2.1880    4.7310 ha        1 16H      0.135500
     40 H7          5.9440    3.1090    7.0110 ha        1 16H      0.150500
     41 H8          4.0250    3.9830    8.3490 ha        1 16H      0.152000
     42 H9          1.7150    3.9290    7.4010 ha        1 16H      0.150500
     43 H10         1.3250    2.9970    5.1200 ha        1 16H      0.135500
     44 HO4         2.3060    3.6760    2.9920 ho        1 16H      0.452000
     45 H22         2.4260   -0.9540   -1.5100 hc        1 16H      0.099700
     46 H22A        2.9190    0.7960   -1.6140 hc        1 16H      0.099700
     47 H23         0.1820   -0.3600   -2.5180 hc        1 16H      0.069700
     48 H23A        0.6940    1.3680   -2.6390 hc        1 16H      0.069700
     49 H24         2.1240   -1.0400   -3.9780 hc        1 16H      0.047700
     50 H24A        2.6460    0.6870   -4.0920 hc        1 16H      0.047700
     51 H25         0.4270    1.2910   -5.1170 hc        1 16H      0.048200
     52 H25A       -0.0970   -0.4340   -5.0010 hc        1 16H      0.048200
     53 H26         2.3680    0.6010   -6.5700 hc        1 16H      0.042700
     54 H26A        1.8400   -1.1230   -6.4550 hc        1 16H      0.042700
     55 H27        -0.3780   -0.5100   -7.4810 hc        1 16H      0.042700
     56 H27A        0.1510    1.2120   -7.5970 hc        1 16H      0.042700
     57 H28         1.5570   -1.2040   -8.9360 hc        1 16H      0.040700
     58 H28A        2.0890    0.5170   -9.0500 hc        1 16H      0.040700
     59 H29        -0.6590   -0.5870   -9.9630 hc        1 16H      0.041200
     60 H29A       -0.1250    1.1340  -10.0790 hc        1 16H      0.041200
     61 H30         1.2750   -1.2860  -11.4170 hc        1 16H      0.040700
     62 H30A        1.8110    0.4340  -11.5320 hc        1 16H      0.040700
     63 H31        -0.9400   -0.6640  -12.4440 hc        1 16H      0.040700
     64 H31A       -0.4030    1.0550  -12.5610 hc        1 16H      0.040700
     65 H32         1.5320    0.3520  -14.0140 hc        1 16H      0.039700
     66 H32A        0.9930   -1.3670  -13.8980 hc        1 16H      0.039700
     67 H33        -0.6800    0.9760  -15.0430 hc        1 16H      0.039700
     68 H33A       -1.2200   -0.7420  -14.9260 hc        1 16H      0.039700
     69 H34         0.7120   -1.4480  -16.3800 hc        1 16H      0.039700
     70 H34A        1.2520    0.2700  -16.4960 hc        1 16H      0.039700
     71 H35        -0.9590    0.8970  -17.5230 hc        1 16H      0.038700
     72 H35A       -1.5000   -0.8210  -17.4060 hc        1 16H      0.038700
     73 H36         0.9510    0.1960  -19.0070 hc        1 16H      0.033367
     74 H36A        0.4080   -1.5260  -18.8900 hc        1 16H      0.033367
     75 H36B       -0.6520   -0.2960  -19.6930 hc        1 16H      0.033367
     76 H221        2.6650    1.4310    1.0110 hn        1 16H      0.472300
@<TRIPOS>BOND
     1    1    2 2   
     2    2    3 1   
     3    2   16 1   
     4    3    4 1   
     5    3   31 1   
     6    3   76 1   
     7    4    5 1   
     8    4    7 1   
     9    4   32 1   
    10    5    6 1   
    11    5   33 1   
    12    5   34 1   
    13    6   35 1   
    14    7    8 1   
    15    7   36 1   
    16    7   37 1   
    17    8    9 1   
    18    8   15 1   
    19    8   38 1   
    20    9   10 ar  
    21    9   14 ar  
    22   10   11 ar  
    23   10   39 1   
    24   11   12 ar  
    25   11   40 1   
    26   12   13 ar  
    27   12   41 1   
    28   13   14 ar  
    29   13   42 1   
    30   14   43 1   
    31   15   44 1   
    32   16   17 1   
    33   16   45 1   
    34   16   46 1   
    35   17   18 1   
    36   17   47 1   
    37   17   48 1   
    38   18   19 1   
    39   18   49 1   
    40   18   50 1   
    41   19   20 1   
    42   19   51 1   
    43   19   52 1   
    44   20   21 1   
    45   20   53 1   
    46   20   54 1   
    47   21   22 1   
    48   21   55 1   
    49   21   56 1   
    50   22   23 1   
    51   22   57 1   
    52   22   58 1   
    53   23   24 1   
    54   23   59 1   
    55   23   60 1   
    56   24   25 1   
    57   24   61 1   
    58   24   62 1   
    59   25   26 1   
    60   25   63 1   
    61   25   64 1   
    62   26   27 1   
    63   26   65 1   
    64   26   66 1   
    65   27   28 1   
    66   27   67 1   
    67   27   68 1   
    68   28   29 1   
    69   28   69 1   
    70   28   70 1   
    71   29   30 1   
    72   29   71 1   
    73   29   72 1   
    74   30   73 1   
    75   30   74 1   
    76   30   75 1   
@<TRIPOS>SUBSTRUCTURE
     1 16H         1 TEMP              0 ****  ****    0 ROOT
