@<TRIPOS>MOLECULE
16H
   76    76     1     0     0
SMALL
bcc


@<TRIPOS>ATOM
      1 O21         0.1670    0.4330    0.0430 o         1 16H     -0.412100
      2 C21         1.3630    0.3490   -0.1830 c         1 16H      0.551100
      3 N2          2.3010    0.4780    0.9990 n4        1 16H     -0.676800
      4 C2          1.6590    0.1970    2.3310 c3        1 16H      0.137500
      5 C1          1.2520   -1.2860    2.4500 c3        1 16H      0.107400
      6 O1          2.3810   -2.0700    2.1050 oh        1 16H     -0.635800
      7 C3          2.5760    0.5680    3.4980 c3        1 16H     -0.117400
      8 C4          3.1760    1.9770    3.4250 c3        1 16H      0.191400
      9 C5          3.4030    2.5280    4.7990 ca        1 16H     -0.163300
     10 C6          4.6960    2.5670    5.3310 ca        1 16H     -0.114000
     11 C7          4.9070    3.0790    6.6110 ca        1 16H     -0.118500
     12 C8          3.8310    3.5550    7.3610 ca        1 16H     -0.099000
     13 C9          2.5400    3.5190    6.8310 ca        1 16H     -0.118500
     14 C10         2.3250    3.0050    5.5540 ca        1 16H     -0.114000
     15 O4          2.3020    2.7840    2.6380 oh        1 16H     -0.659800
     16 C22         2.0490    0.1260   -1.5010 c3        1 16H     -0.155400
     17 C23         1.0750    0.3160   -2.6500 c3        1 16H     -0.082400
     18 C24         1.7610    0.0400   -3.9710 c3        1 16H     -0.080400
     19 C25         0.8000    0.2320   -5.1250 c3        1 16H     -0.079400
     20 C26         1.4800   -0.0440   -6.4490 c3        1 16H     -0.079400
     21 C27         0.5200    0.1480   -7.6050 c3        1 16H     -0.079400
     22 C28         1.1980   -0.1270   -8.9300 c3        1 16H     -0.079400
     23 C29         0.2400    0.0640  -10.0860 c3        1 16H     -0.079400
     24 C30         0.9170   -0.2110  -11.4110 c3        1 16H     -0.079400
     25 C31        -0.0410   -0.0190  -12.5670 c3        1 16H     -0.079400
     26 C32         0.6360   -0.2940  -13.8930 c3        1 16H     -0.079400
     27 C33        -0.3220   -0.1030  -15.0490 c3        1 16H     -0.079400
     28 C34         0.3550   -0.3770  -16.3750 c3        1 16H     -0.079400
     29 C35        -0.6020   -0.1860  -17.5320 c3        1 16H     -0.080400
     30 C36         0.0680   -0.4580  -18.8540 c3        1 16H     -0.093100
     31 HN2         2.6610    1.4450    1.0160 hn        1 16H      0.472300
     32 H2          0.7240    0.8360    2.3760 hx        1 16H      0.133700
     33 H1          0.9200   -1.4790    3.5050 h1        1 16H      0.073200
     34 H1A         0.4080   -1.5170    1.7440 h1        1 16H      0.073200
     35 HO1         2.2600   -2.9460    2.4940 ho        1 16H      0.449000
     36 H3          1.9500    0.4850    4.4290 hc        1 16H      0.093200
     37 H3A         3.4120   -0.1760    3.5810 hc        1 16H      0.093200
     38 H4          4.1600    1.9350    2.8690 h1        1 16H      0.043700
     39 H6          5.5500    2.1990    4.7430 ha        1 16H      0.135500
     40 H7          5.9260    3.1080    7.0280 ha        1 16H      0.150500
     41 H8          4.0000    3.9610    8.3710 ha        1 16H      0.152000
     42 H9          1.6910    3.8970    7.4210 ha        1 16H      0.150500
     43 H10         1.3080    2.9750    5.1350 ha        1 16H      0.135500
     44 HO4         2.2850    3.6750    3.0110 ho        1 16H      0.452000
     45 H22         2.4540   -0.9250   -1.5140 hc        1 16H      0.099200
     46 H22A        2.9140    0.8340   -1.6160 hc        1 16H      0.099200
     47 H23         0.6760    1.3650   -2.6380 hc        1 16H      0.070200
     48 H23A        0.1990   -0.3740   -2.5210 hc        1 16H      0.070200
     49 H24         2.6390    0.7280   -4.0950 hc        1 16H      0.047700
     50 H24A        2.1550   -1.0110   -3.9810 hc        1 16H      0.047700
     51 H25         0.4050    1.2820   -5.1160 hc        1 16H      0.048200
     52 H25A       -0.0790   -0.4550   -5.0030 hc        1 16H      0.048200
     53 H26         1.8750   -1.0940   -6.4590 hc        1 16H      0.042700
     54 H26A        2.3580    0.6420   -6.5730 hc        1 16H      0.042700
     55 H27         0.1250    1.1980   -7.5960 hc        1 16H      0.042700
     56 H27A       -0.3590   -0.5380   -7.4830 hc        1 16H      0.042700
     57 H28         1.5940   -1.1770   -8.9400 hc        1 16H      0.040700
     58 H28A        2.0780    0.5590   -9.0530 hc        1 16H      0.040700
     59 H29        -0.6390   -0.6220   -9.9640 hc        1 16H      0.040700
     60 H29A       -0.1560    1.1140  -10.0770 hc        1 16H      0.040700
     61 H30         1.3130   -1.2610  -11.4210 hc        1 16H      0.040700
     62 H30A        1.7970    0.4750  -11.5340 hc        1 16H      0.040700
     63 H31        -0.4370    1.0300  -12.5580 hc        1 16H      0.040700
     64 H31A       -0.9200   -0.7050  -12.4450 hc        1 16H      0.040700
     65 H32         1.0320   -1.3440  -13.9030 hc        1 16H      0.039700
     66 H32A        1.5160    0.3920  -14.0160 hc        1 16H      0.039700
     67 H33        -0.7180    0.9470  -15.0400 hc        1 16H      0.039700
     68 H33A       -1.2010   -0.7890  -14.9270 hc        1 16H      0.039700
     69 H34         0.7510   -1.4270  -16.3850 hc        1 16H      0.039700
     70 H34A        1.2350    0.3090  -16.4980 hc        1 16H      0.039700
     71 H35        -0.9980    0.8640  -17.5200 hc        1 16H      0.038700
     72 H35A       -1.4810   -0.8720  -17.4070 hc        1 16H      0.038700
     73 H36         0.4480   -1.5080  -18.8950 hc        1 16H      0.033367
     74 H36A        0.9320    0.2320  -19.0080 hc        1 16H      0.033367
     75 H36B       -0.6550   -0.3120  -19.6930 hc        1 16H      0.033367
     76 H221        3.0850   -0.1730    0.8760 hn        1 16H      0.472300
@<TRIPOS>BOND
     1    1    2 2   
     2    2    3 1   
     3    2   16 1   
     4    3    4 1   
     5    3   31 1   
     6    3   76 1   
     7    4    5 1   
     8    4    7 1   
     9    4   32 1   
    10    5    6 1   
    11    5   33 1   
    12    5   34 1   
    13    6   35 1   
    14    7    8 1   
    15    7   36 1   
    16    7   37 1   
    17    8    9 1   
    18    8   15 1   
    19    8   38 1   
    20    9   10 ar  
    21    9   14 ar  
    22   10   11 ar  
    23   10   39 1   
    24   11   12 ar  
    25   11   40 1   
    26   12   13 ar  
    27   12   41 1   
    28   13   14 ar  
    29   13   42 1   
    30   14   43 1   
    31   15   44 1   
    32   16   17 1   
    33   16   45 1   
    34   16   46 1   
    35   17   18 1   
    36   17   47 1   
    37   17   48 1   
    38   18   19 1   
    39   18   49 1   
    40   18   50 1   
    41   19   20 1   
    42   19   51 1   
    43   19   52 1   
    44   20   21 1   
    45   20   53 1   
    46   20   54 1   
    47   21   22 1   
    48   21   55 1   
    49   21   56 1   
    50   22   23 1   
    51   22   57 1   
    52   22   58 1   
    53   23   24 1   
    54   23   59 1   
    55   23   60 1   
    56   24   25 1   
    57   24   61 1   
    58   24   62 1   
    59   25   26 1   
    60   25   63 1   
    61   25   64 1   
    62   26   27 1   
    63   26   65 1   
    64   26   66 1   
    65   27   28 1   
    66   27   67 1   
    67   27   68 1   
    68   28   29 1   
    69   28   69 1   
    70   28   70 1   
    71   29   30 1   
    72   29   71 1   
    73   29   72 1   
    74   30   73 1   
    75   30   74 1   
    76   30   75 1   
@<TRIPOS>SUBSTRUCTURE
     1 16H         1 TEMP              0 ****  ****    0 ROOT
