@<TRIPOS>MOLECULE
16H
   75    72     1     0     0
SMALL
bcc


@<TRIPOS>ATOM
      1 O21        -1.1160    0.9370    4.7070 o         1 16H     -0.364000
      2 C21         0.0760    0.6930    4.6100 c1        1 16H      0.300000
      3 N2          0.7830    0.0880    5.7160 n2        1 16H     -0.386000
      4 C2          0.0640   -0.5890    6.7360 c3        1 16H     -0.015000
      5 C1         -0.2450   -2.0110    6.2890 c3        1 16H     -0.041000
      6 O1         -1.3220   -2.5430    7.0820 oh        1 16H     -0.324000
      7 C3          0.9050   -0.6290    7.9960 c3        1 16H     -0.163000
      8 C4          0.0500   -0.2660    9.1800 c3        1 16H      0.070000
      9 C5          0.8290   -0.5100   10.4660 c2        1 16H     -0.125000
     10 C6          1.5000    0.5540   11.0900 c1        1 16H     -0.122000
     11 C7          2.2780    0.3200   12.2430 c1        1 16H     -0.128000
     12 C8          2.3810   -0.9530   12.7550 c1        1 16H     -0.128000
     13 C9          1.7050   -2.0260   12.1260 c1        1 16H     -0.129000
     14 C10         0.9310   -1.7920   10.9810 c2        1 16H     -0.114000
     15 O4         -1.0920   -1.0440    9.1800 oh        1 16H     -0.327000
     16 C22         0.8460    1.1320    3.3680 c3        1 16H     -0.178000
     17 C23        -0.1470    1.3600    2.1860 c3        1 16H     -0.153000
     18 C24         0.6310    1.2370    0.8160 c3        1 16H     -0.158000
     19 C25        -0.3790    1.1700   -0.3380 c3        1 16H     -0.157000
     20 C26         0.3760    0.9730   -1.6780 c3        1 16H     -0.157000
     21 C27        -0.6450    0.7780   -2.8240 c3        1 16H     -0.158000
     22 C28         0.1160    0.5440   -4.1650 c3        1 16H     -0.157000
     23 C29        -0.8800    0.6200   -5.3530 c3        1 16H     -0.158000
     24 C30        -0.0930    0.5020   -6.6910 c3        1 16H     -0.157000
     25 C31        -1.0830    0.3400   -7.8510 c3        1 16H     -0.158000
     26 C32        -0.3140    0.1030   -9.1580 c3        1 16H     -0.157000
     27 C33        -1.3000    0.0740  -10.3310 c3        1 16H     -0.158000
     28 C34        -0.5230   -0.2000  -11.6600 c3        1 16H     -0.158000
     29 C35        -1.5170   -0.2820  -12.8270 c3        1 16H     -0.159000
     30 C36        -0.7590   -0.6010  -14.1230 c3        1 16H     -0.210000
     31 HN2         1.6930    0.2240    5.8090 hn        1 16H      0.217000
     32 H2         -0.7720   -0.1150    6.9150 h1        1 16H      0.140000
     33 H1          0.5610   -2.5740    6.4080 h1        1 16H      0.088500
     34 H1A        -0.5060   -2.0080    5.3420 h1        1 16H      0.088500
     35 HO1        -1.7000   -3.2500    6.6450 ho        1 16H      0.207000
     36 H3          1.2730   -1.5390    8.1190 hc        1 16H      0.109000
     37 H3A         1.6430    0.0150    7.9160 hc        1 16H      0.109000
     38 H4         -0.1990    0.6760    9.1230 h1        1 16H      0.085000
     39 H6          1.4260    1.4720   10.7210 ha        1 16H      0.129000
     40 H7          2.7470    1.0640   12.6790 ha        1 16H      0.132500
     41 H8          2.9160   -1.1140   13.5460 ha        1 16H      0.132500
     42 H9          1.7770   -2.9160   12.4830 ha        1 16H      0.134000
     43 H10         0.4660   -2.5300   10.5460 ha        1 16H      0.147000
     44 HO4        -1.8110   -0.5290    9.4200 ho        1 16H      0.205000
     45 H22         1.3190    1.9570    3.5560 hc        1 16H      0.100000
     46 H22A        1.4820    0.4430    3.1240 hc        1 16H      0.100000
     47 H23        -0.8620    0.6820    2.2190 hc        1 16H      0.100000
     48 H23A       -0.5370    2.2390    2.2580 hc        1 16H      0.100000
     49 H24         1.2130    2.0150    0.6990 hc        1 16H      0.076000
     50 H24A        1.1730    0.4220    0.8210 hc        1 16H      0.076000
     51 H25        -0.9830    0.4230   -0.1940 hc        1 16H      0.083000
     52 H25A       -0.8970    2.0090   -0.3730 hc        1 16H      0.083000
     53 H26         0.9290    1.7660   -1.8620 hc        1 16H      0.078000
     54 H26A        0.9540    0.1750   -1.6140 hc        1 16H      0.078000
     55 H27        -1.2110   -0.0030   -2.6300 hc        1 16H      0.080000
     56 H27A       -1.2110    1.5870   -2.9010 hc        1 16H      0.080000
     57 H28         0.5470   -0.3640   -4.1500 hc        1 16H      0.078000
     58 H28A        0.8010    1.2270   -4.2720 hc        1 16H      0.078000
     59 H29        -1.3570    1.4730   -5.3270 hc        1 16H      0.079000
     60 H29A       -1.5210   -0.1130   -5.2880 hc        1 16H      0.079000
     61 H30         0.4490    1.3160   -6.8280 hc        1 16H      0.079000
     62 H30A        0.4840   -0.2640   -6.6540 hc        1 16H      0.079000
     63 H31        -1.6210    1.1440   -7.9330 hc        1 16H      0.079000
     64 H31A       -1.6660   -0.4250   -7.6740 hc        1 16H      0.079000
     65 H32         0.1650   -0.7650   -9.1070 hc        1 16H      0.079000
     66 H32A        0.3290    0.8230   -9.2930 hc        1 16H      0.079000
     67 H33        -1.9540   -0.6280  -10.1860 hc        1 16H      0.079000
     68 H33A       -1.7550    0.9330  -10.3940 hc        1 16H      0.079000
     69 H34        -0.0400   -1.0390  -11.5860 hc        1 16H      0.079000
     70 H34A        0.1240    0.5420  -11.8260 hc        1 16H      0.079000
     71 H35        -2.1720   -0.9880  -12.6500 hc        1 16H      0.078000
     72 H35A       -1.9730    0.5670  -12.9230 hc        1 16H      0.078000
     73 H36        -1.4100   -0.7730  -14.8570 hc        1 16H      0.072000
     74 H36A       -0.1910   -1.4100  -13.9860 hc        1 16H      0.072000
     75 H36B       -0.1810    0.1730  -14.3680 hc        1 16H      0.072000
@<TRIPOS>BOND
     1    1    2 1   
     2    2   16 1   
     3    3    4 1   
     4    3   31 1   
     5    4    5 1   
     6    4    7 1   
     7    4   32 1   
     8    5    6 1   
     9    5   33 1   
    10    5   34 1   
    11    6   35 1   
    12    7    8 1   
    13    7   36 1   
    14    7   37 1   
    15    8    9 1   
    16    8   15 1   
    17    8   38 1   
    18    9   10 1   
    19    9   14 1   
    20   10   39 1   
    21   11   12 1   
    22   11   40 1   
    23   12   41 1   
    24   13   14 1   
    25   13   42 1   
    26   14   43 1   
    27   15   44 1   
    28   16   17 1   
    29   16   45 1   
    30   16   46 1   
    31   17   18 1   
    32   17   47 1   
    33   17   48 1   
    34   18   19 1   
    35   18   49 1   
    36   18   50 1   
    37   19   20 1   
    38   19   51 1   
    39   19   52 1   
    40   20   21 1   
    41   20   53 1   
    42   20   54 1   
    43   21   22 1   
    44   21   55 1   
    45   21   56 1   
    46   22   23 1   
    47   22   57 1   
    48   22   58 1   
    49   23   24 1   
    50   23   59 1   
    51   23   60 1   
    52   24   25 1   
    53   24   61 1   
    54   24   62 1   
    55   25   26 1   
    56   25   63 1   
    57   25   64 1   
    58   26   27 1   
    59   26   65 1   
    60   26   66 1   
    61   27   28 1   
    62   27   67 1   
    63   27   68 1   
    64   28   29 1   
    65   28   69 1   
    66   28   70 1   
    67   29   30 1   
    68   29   71 1   
    69   29   72 1   
    70   30   73 1   
    71   30   74 1   
    72   30   75 1   
@<TRIPOS>SUBSTRUCTURE
     1 16H         1 TEMP              0 ****  ****    0 ROOT
