@<TRIPOS>MOLECULE
16I
   39    42     1     0     0
SMALL
bcc


@<TRIPOS>ATOM
      1 O           1.0300   -2.4850    0.5510 o         1 16I     -0.439100
      2 C4          1.5950   -1.4550    0.2060 c         1 16I      0.625700
      3 C3          1.6360   -0.1780    0.8500 cc        1 16I     -0.300700
      4 C1          1.0270    0.0080    2.1030 cd        1 16I     -0.008000
      5 C           1.1850    1.3370    2.5650 cd        1 16I     -0.165000
      6 N           2.3980   -1.5970   -1.0910 n4        1 16I     -0.550200
      7 C5          1.5970   -1.2720   -2.2740 ca        1 16I     -0.050400
      8 C6          2.0280   -0.2650   -3.1560 ca        1 16I     -0.105500
      9 C7          1.2720    0.0160   -4.2910 ca        1 16I     -0.078500
     10 C10         0.4180   -1.9940   -2.5310 ca        1 16I     -0.105500
     11 C9         -0.3270   -1.7010   -3.6710 ca        1 16I     -0.078500
     12 C8          0.0940   -0.6970   -4.5500 ca        1 16I     -0.070900
     13 C11        -0.6910   -0.3970   -5.7830 cc        1 16I      0.498500
     14 N2         -2.0760   -0.2790   -5.6320 n         1 16I     -0.500400
     15 C18        -2.8950   -0.0030   -6.7470 c         1 16I      0.711100
     16 O1         -4.1170    0.1030   -6.5650 o         1 16I     -0.594500
     17 C19         1.8960    2.1090    1.6580 cc        1 16I     -0.084100
     18 N1         -0.0390   -0.2670   -6.9240 nd        1 16I     -0.589100
     19 C12        -0.7850   -0.0030   -8.0830 ca        1 16I      0.156400
     20 C17        -2.1990    0.1350   -8.0400 ca        1 16I     -0.172600
     21 C13        -0.1290    0.1300   -9.3290 ca        1 16I     -0.108000
     22 C14        -0.8700    0.3910  -10.4740 ca        1 16I     -0.091000
     23 C15        -2.2620    0.5250  -10.4190 ca        1 16I     -0.129000
     24 C16        -2.9270    0.3980   -9.2050 ca        1 16I     -0.060000
     25 S           2.3410    1.2560    0.3150 ss        1 16I      0.109200
     26 H           2.7010   -2.5790   -1.1740 hn        1 16I      0.461300
     27 H1          0.4990   -0.7800    2.6540 ha        1 16I      0.193000
     28 HA          0.7890    1.6980    3.5210 ha        1 16I      0.196000
     29 H19         2.1400    3.1680    1.7990 h4        1 16I      0.209000
     30 H6          2.9550    0.3020   -2.9760 ha        1 16I      0.164500
     31 H10         0.0760   -2.7890   -1.8450 ha        1 16I      0.164500
     32 H7          1.6140    0.7970   -4.9940 ha        1 16I      0.182500
     33 H9         -1.2400   -2.2850   -3.8770 ha        1 16I      0.182500
     34 H2         -2.4950   -0.3660   -4.7340 hn        1 16I      0.335500
     35 H13         0.9660    0.0240   -9.3880 ha        1 16I      0.156000
     36 H16        -4.0240    0.5000   -9.1430 ha        1 16I      0.168000
     37 H14        -0.3530    0.4930  -11.4420 ha        1 16I      0.150000
     38 H15        -2.8300    0.7320  -11.3390 ha        1 16I      0.153000
     39 HN3         3.2270   -0.9940   -1.0590 hn        1 16I      0.461300
@<TRIPOS>BOND
     1    1    2 2   
     2    2    3 1   
     3    2    6 1   
     4    3    4 2   
     5    3   25 1   
     6    4    5 1   
     7    4   27 1   
     8    5   17 2   
     9    5   28 1   
    10    6    7 1   
    11    6   26 1   
    12    6   39 1   
    13    7    8 ar  
    14    7   10 ar  
    15    8    9 ar  
    16    8   30 1   
    17    9   12 ar  
    18    9   32 1   
    19   10   11 ar  
    20   10   31 1   
    21   11   12 ar  
    22   11   33 1   
    23   12   13 1   
    24   13   14 1   
    25   13   18 2   
    26   14   15 1   
    27   14   34 1   
    28   15   16 2   
    29   15   20 1   
    30   17   25 1   
    31   17   29 1   
    32   18   19 1   
    33   19   20 ar  
    34   19   21 ar  
    35   20   24 ar  
    36   21   22 ar  
    37   21   35 1   
    38   22   23 ar  
    39   22   37 1   
    40   23   24 ar  
    41   23   38 1   
    42   24   36 1   
@<TRIPOS>SUBSTRUCTURE
     1 16I         1 TEMP              0 ****  ****    0 ROOT
