@<TRIPOS>MOLECULE
16I
   38    32     1     0     0
SMALL
bcc


@<TRIPOS>ATOM
      1 O           0.1980    1.3740    4.0400 o         1 16I     -0.336000
      2 C4          1.2600    0.7880    4.1150 c1        1 16I      0.395000
      3 C3          2.0370    0.7930    5.4130 c1        1 16I     -0.435000
      4 C1          1.6320    1.4400    6.6470 c1        1 16I     -0.120500
      5 C           2.7190    1.1110    7.7630 c1        1 16I     -0.120500
      6 N           1.7790    0.1120    2.9810 n3        1 16I     -0.328000
      7 C5          1.0570    0.1190    1.7600 c2        1 16I      0.107000
      8 C6          1.5610    0.7990    0.6620 c2        1 16I     -0.197000
      9 C7          0.9020    0.7350   -0.5550 c1        1 16I     -0.048000
     10 C10        -0.1060   -0.6250    1.6390 c1        1 16I     -0.162000
     11 C9         -0.7650   -0.6890    0.4220 c1        1 16I     -0.082000
     12 C8         -0.2610   -0.0090   -0.6760 c1        1 16I     -0.101000
     13 C11        -0.9820   -0.0780   -2.0050 c2        1 16I      0.174000
     14 N2         -2.1090    0.7650   -2.2490 n         1 16I     -0.333000
     15 C18        -2.7710    0.7090   -3.4850 c2        1 16I      0.345000
     16 O1         -3.7020    1.4560   -3.7090 o         1 16I     -0.350000
     17 C19         3.7450    0.2760    7.1690 c1        1 16I     -0.435000
     18 N1         -0.5220   -0.9880   -3.0300 n1        1 16I     -0.194000
     19 C12        -1.2080   -1.0480   -4.3150 c1        1 16I      0.045000
     20 C17        -2.2920   -0.2400   -4.5530 c2        1 16I     -0.171000
     21 C13        -0.7560   -1.9290   -5.3140 c1        1 16I     -0.125000
     22 C14        -1.4050   -1.9820   -6.5390 c1        1 16I     -0.125000
     23 C15        -2.5020   -1.1640   -6.7790 c1        1 16I     -0.125000
     24 C16        -2.9490   -0.2940   -5.7940 c1        1 16I     -0.059000
     25 S           3.3680    0.0410    5.6820 ss        1 16I      0.580000
     26 H           2.5680   -0.3390    3.0410 hn        1 16I      0.230000
     27 H1          0.8320    1.9830    6.7710 DU        1 16I      0.173667
     28 HA          2.6980    1.4180    8.6900 DU        1 16I      0.173667
     29 H19         4.5340   -0.0760    7.6240 DU        1 16I      0.173667
     30 H6          2.3800    1.3230    0.7470 ha        1 16I      0.135000
     31 H10        -0.4610   -1.1040    2.4120 ha        1 16I      0.179000
     32 H7          1.2570    1.2140   -1.3280 ha        1 16I      0.154000
     33 H9         -1.5840   -1.2130    0.3370 ha        1 16I      0.142000
     34 H2         -2.3980    1.3390   -1.6020 hn        1 16I      0.253000
     35 H13         0.0150   -2.5040   -5.1450 ha        1 16I      0.152000
     36 H16        -3.7200    0.2810   -5.9640 ha        1 16I      0.158000
     37 H14        -1.0910   -2.5940   -7.2320 ha        1 16I      0.137500
     38 H15        -2.9580   -1.2010   -7.6410 ha        1 16I      0.137500
@<TRIPOS>BOND
     1    1    2 1   
     2    2    6 1   
     3    3    4 1   
     4    3   25 1   
     5    4    5 1   
     6    5   17 1   
     7    6    7 1   
     8    6   26 1   
     9    7    8 1   
    10    7   10 1   
    11    8    9 1   
    12    8   30 1   
    13    9   32 1   
    14   10   31 1   
    15   11   12 1   
    16   11   33 1   
    17   12   13 1   
    18   13   14 1   
    19   13   18 1   
    20   14   15 1   
    21   14   34 1   
    22   15   16 1   
    23   15   20 1   
    24   17   25 1   
    25   19   20 1   
    26   19   21 1   
    27   20   24 1   
    28   21   35 1   
    29   22   23 1   
    30   22   37 1   
    31   23   38 1   
    32   24   36 1   
@<TRIPOS>SUBSTRUCTURE
     1 16I         1 TEMP              0 ****  ****    0 ROOT
