@<TRIPOS>MOLECULE
16I
   38    41     1     0     0
SMALL
bcc


@<TRIPOS>ATOM
      1 O          -0.1540   -0.4550    0.4560 o         1 16I     -0.575100
      2 C4          1.0460   -0.1800    0.2760 c         1 16I      0.721700
      3 C3          1.9690    0.0030    1.4070 cc        1 16I     -0.208700
      4 C1          1.6250   -0.3410    2.7060 cd        1 16I     -0.073000
      5 C           2.6820   -0.0620    3.6220 cd        1 16I     -0.168000
      6 N           1.6010   -0.0260   -0.9950 n         1 16I     -0.474100
      7 C5          0.9440   -0.1450   -2.2270 ca        1 16I      0.099600
      8 C6          1.7270   -0.1440   -3.4090 ca        1 16I     -0.179500
      9 C7          1.1270   -0.2440   -4.6570 ca        1 16I     -0.065000
     10 C10        -0.4600   -0.2450   -2.3510 ca        1 16I     -0.179500
     11 C9         -1.0470   -0.3490   -3.6070 ca        1 16I     -0.065000
     12 C8         -0.2640   -0.3560   -4.7650 ca        1 16I     -0.184900
     13 C11        -0.8950   -0.4660   -6.1060 cc        1 16I      0.552500
     14 N2         -1.8960   -1.4380   -6.2410 n         1 16I     -0.493400
     15 C18        -2.5580   -1.6280   -7.4650 c         1 16I      0.708100
     16 O1         -3.4410   -2.5020   -7.5410 o         1 16I     -0.625500
     17 C19         3.7760    0.4830    2.9820 cc        1 16I     -0.142100
     18 N1         -0.4930    0.3320   -7.0830 nd        1 16I     -0.621100
     19 C12        -1.1060    0.2020   -8.3350 ca        1 16I      0.184400
     20 C17        -2.1320   -0.7510   -8.5710 ca        1 16I     -0.191600
     21 C13        -0.7060    1.0380   -9.4080 ca        1 16I     -0.125000
     22 C14        -1.3140    0.9120  -10.6470 ca        1 16I     -0.095000
     23 C15        -2.3250   -0.0330  -10.8650 ca        1 16I     -0.155000
     24 C16        -2.7330   -0.8630   -9.8320 ca        1 16I     -0.059000
     25 S           3.5230    0.6470    1.3450 ss        1 16I      0.040200
     26 H           2.5860    0.1160   -1.0500 hn        1 16I      0.316500
     27 H1          0.6590   -0.7710    2.9910 ha        1 16I      0.178000
     28 HA          2.6140   -0.2620    4.6940 ha        1 16I      0.164000
     29 H19         4.7050    0.7830    3.4660 h4        1 16I      0.179000
     30 H6          2.8240   -0.0590   -3.3530 ha        1 16I      0.157500
     31 H10        -1.1060   -0.2410   -1.4570 ha        1 16I      0.157500
     32 H7          1.7530   -0.2320   -5.5630 ha        1 16I      0.148000
     33 H9         -2.1450   -0.4080   -3.6730 ha        1 16I      0.148000
     34 H2         -2.1360   -2.0120   -5.4630 hn        1 16I      0.339500
     35 H13         0.0860    1.7860   -9.2490 ha        1 16I      0.152000
     36 H16        -3.5270   -1.6130   -9.9800 ha        1 16I      0.158000
     37 H14        -0.9980    1.5660  -11.4750 ha        1 16I      0.136000
     38 H15        -2.7920   -0.1150  -11.8570 ha        1 16I      0.139000
@<TRIPOS>BOND
     1    1    2 2   
     2    2    3 1   
     3    2    6 1   
     4    3    4 2   
     5    3   25 1   
     6    4    5 1   
     7    4   27 1   
     8    5   17 2   
     9    5   28 1   
    10    6    7 1   
    11    6   26 1   
    12    7    8 ar  
    13    7   10 ar  
    14    8    9 ar  
    15    8   30 1   
    16    9   12 ar  
    17    9   32 1   
    18   10   11 ar  
    19   10   31 1   
    20   11   12 ar  
    21   11   33 1   
    22   12   13 1   
    23   13   14 1   
    24   13   18 2   
    25   14   15 1   
    26   14   34 1   
    27   15   16 2   
    28   15   20 1   
    29   17   25 1   
    30   17   29 1   
    31   18   19 1   
    32   19   20 ar  
    33   19   21 ar  
    34   20   24 ar  
    35   21   22 ar  
    36   21   35 1   
    37   22   23 ar  
    38   22   37 1   
    39   23   24 ar  
    40   23   38 1   
    41   24   36 1   
@<TRIPOS>SUBSTRUCTURE
     1 16I         1 TEMP              0 ****  ****    0 ROOT
