@<TRIPOS>MOLECULE
16I
   38    41     1     0     0
SMALL
bcc


@<TRIPOS>ATOM
      1 O           3.7410   -1.8380    0.5940 o         1 16I     -0.575100
      2 C4          4.0540   -0.6750    0.2810 c         1 16I      0.721700
      3 C3          5.4620   -0.2520    0.2070 cc        1 16I     -0.208700
      4 C1          6.5100   -1.1600    0.2470 cd        1 16I     -0.073000
      5 C           7.7750   -0.5070    0.1680 cd        1 16I     -0.168000
      6 N           3.1060    0.3040   -0.0220 n         1 16I     -0.474100
      7 C5          1.7130    0.1620   -0.0250 ca        1 16I      0.099600
      8 C6          0.9310    1.2220   -0.5520 ca        1 16I     -0.179500
      9 C7         -0.4550    1.1400   -0.5660 ca        1 16I     -0.065000
     10 C10         1.0470   -0.9720    0.4900 ca        1 16I     -0.179500
     11 C9         -0.3410   -1.0420    0.4660 ca        1 16I     -0.065000
     12 C8         -1.1010    0.0050   -0.0660 ca        1 16I     -0.184900
     13 C11        -2.5850   -0.0730   -0.0880 cc        1 16I      0.552500
     14 N2         -3.1350   -1.2860   -0.5240 n         1 16I     -0.493400
     15 C18        -4.5260   -1.4680   -0.5860 c         1 16I      0.708100
     16 O1         -4.9720   -2.5610   -0.9790 o         1 16I     -0.625500
     17 C19         7.6320    0.8630    0.0770 cc        1 16I     -0.142100
     18 N1         -3.2990    0.9770    0.2880 nd        1 16I     -0.621100
     19 C12        -4.6950    0.8740    0.2520 ca        1 16I      0.184400
     20 C17        -5.3460   -0.3150   -0.1720 ca        1 16I     -0.191600
     21 C13        -5.4960    1.9750    0.6480 ca        1 16I     -0.125000
     22 C14        -6.8770    1.8730    0.6150 ca        1 16I     -0.095000
     23 C15        -7.5060    0.6930    0.1950 ca        1 16I     -0.155000
     24 C16        -6.7450   -0.3980   -0.1980 ca        1 16I     -0.059000
     25 S           6.0340    1.3260    0.0890 ss        1 16I      0.040200
     26 H           3.4460    1.1850   -0.3410 hn        1 16I      0.316500
     27 H1          6.3790   -2.2440    0.3310 ha        1 16I      0.178000
     28 HA          8.7270   -1.0420    0.1810 ha        1 16I      0.164000
     29 H19         8.4520    1.5790    0.0090 h4        1 16I      0.179000
     30 H6          1.4130    2.1260   -0.9550 ha        1 16I      0.157000
     31 H10         1.6170   -1.8140    0.9170 ha        1 16I      0.157000
     32 H7         -1.0440    1.9780   -0.9710 ha        1 16I      0.148000
     33 H9         -0.8320   -1.9320    0.8900 ha        1 16I      0.148000
     34 H2         -2.5340   -2.0290   -0.8050 hn        1 16I      0.339500
     35 H13        -5.0130    2.9060    0.9820 ha        1 16I      0.152000
     36 H16        -7.2180   -1.3350   -0.5320 ha        1 16I      0.158000
     37 H14        -7.4920    2.7320    0.9250 ha        1 16I      0.136000
     38 H15        -8.6040    0.6350    0.1770 ha        1 16I      0.139000
@<TRIPOS>BOND
     1    1    2 2   
     2    2    3 1   
     3    2    6 1   
     4    3    4 2   
     5    3   25 1   
     6    4    5 1   
     7    4   27 1   
     8    5   17 2   
     9    5   28 1   
    10    6    7 1   
    11    6   26 1   
    12    7    8 ar  
    13    7   10 ar  
    14    8    9 ar  
    15    8   30 1   
    16    9   12 ar  
    17    9   32 1   
    18   10   11 ar  
    19   10   31 1   
    20   11   12 ar  
    21   11   33 1   
    22   12   13 1   
    23   13   14 1   
    24   13   18 2   
    25   14   15 1   
    26   14   34 1   
    27   15   16 2   
    28   15   20 1   
    29   17   25 1   
    30   17   29 1   
    31   18   19 1   
    32   19   20 ar  
    33   19   21 ar  
    34   20   24 ar  
    35   21   22 ar  
    36   21   35 1   
    37   22   23 ar  
    38   22   37 1   
    39   23   24 ar  
    40   23   38 1   
    41   24   36 1   
@<TRIPOS>SUBSTRUCTURE
     1 16I         1 TEMP              0 ****  ****    0 ROOT
