@<TRIPOS>MOLECULE
16J
   41    43     1     0     0
SMALL
bcc


@<TRIPOS>ATOM
      1 CAI         4.4050   -0.4980   -1.5190 c3        1 16J      0.032000
      2 CAG         5.7910    0.0700   -1.1920 c3        1 16J      0.095900
      3 OAO         6.4040   -0.6390   -0.1180 os        1 16J     -0.412600
      4 CAH         5.5950   -0.6600    1.0510 c3        1 16J      0.095900
      5 CAJ         4.2010   -1.2400    0.7670 c3        1 16J      0.032000
      6 NAS         3.5250   -0.6300   -0.3650 n         1 16J     -0.420800
      7 CAP         2.6400    0.4660   -0.1330 c         1 16J      0.718100
      8 OAA         2.6690    1.4690   -0.8840 o         1 16J     -0.621100
      9 NAT         1.7210    0.4140    0.9600 n         1 16J     -0.420800
     10 CAL         0.9880   -0.8150    1.2000 c3        1 16J      0.063500
     11 CAN        -0.3700   -0.9050    0.4630 c3        1 16J      0.154300
     12 CAK         0.8800    1.5880    1.1300 c3        1 16J      0.063500
     13 CAM        -0.4770    1.5190    0.3960 c3        1 16J      0.154300
     14 NAU        -1.1880    0.2770    0.6690 nh        1 16J     -0.637000
     15 CAR        -2.5170    0.2150    0.1790 ca        1 16J      0.139600
     16 CAE        -3.4400    1.2260    0.5440 ca        1 16J     -0.162500
     17 CAC        -4.7700    1.1520    0.1510 ca        1 16J     -0.099500
     18 CAQ        -5.2180    0.0690   -0.6120 ca        1 16J     -0.011600
     19 CLA        -6.8470   -0.0180   -1.0880 cl        1 16J     -0.097400
     20 CAD        -4.3260   -0.9390   -0.9820 ca        1 16J     -0.099500
     21 CAF        -2.9910   -0.8650   -0.5970 ca        1 16J     -0.162500
     22 H1          3.9210    0.1510   -2.3000 h1        1 16J      0.072700
     23 H2          4.5250   -1.5390   -1.9340 h1        1 16J      0.072700
     24 H3          6.4880   -0.0820   -2.0570 h1        1 16J      0.059700
     25 H4          5.7240    1.1590   -0.9350 h1        1 16J      0.059700
     26 H5          6.1510   -1.3230    1.7630 h1        1 16J      0.059700
     27 H6          5.5160    0.3770    1.4730 h1        1 16J      0.059700
     28 H7          4.3140   -2.3340    0.5120 h1        1 16J      0.072700
     29 H8          3.5890   -1.1590    1.7050 h1        1 16J      0.072700
     30 H9          1.5880   -1.7180    0.9020 h1        1 16J      0.072450
     31 H10         0.8040   -0.8640    2.3120 h1        1 16J      0.072450
     32 H11        -0.1720   -1.0920   -0.6330 h1        1 16J      0.050950
     33 H12        -0.9230   -1.7930    0.8790 h1        1 16J      0.050950
     34 H13         0.7000    1.6860    2.2380 h1        1 16J      0.072450
     35 H14         1.4210    2.5060    0.7660 h1        1 16J      0.072450
     36 H15        -1.1020    2.3830    0.7530 h1        1 16J      0.050950
     37 H16        -0.2950    1.6520   -0.7110 h1        1 16J      0.050950
     38 H17        -3.1180    2.0800    1.1590 ha        1 16J      0.139000
     39 H18        -5.4710    1.9480    0.4480 ha        1 16J      0.146500
     40 H19        -4.6730   -1.7930   -1.5840 ha        1 16J      0.146500
     41 H20        -2.3150   -1.6730   -0.9160 ha        1 16J      0.139000
@<TRIPOS>BOND
     1    1    2 1   
     2    1    6 1   
     3    1   22 1   
     4    1   23 1   
     5    2    3 1   
     6    2   24 1   
     7    2   25 1   
     8    3    4 1   
     9    4    5 1   
    10    4   26 1   
    11    4   27 1   
    12    5    6 1   
    13    5   28 1   
    14    5   29 1   
    15    6    7 1   
    16    7    8 2   
    17    7    9 1   
    18    9   10 1   
    19    9   12 1   
    20   10   11 1   
    21   10   30 1   
    22   10   31 1   
    23   11   14 1   
    24   11   32 1   
    25   11   33 1   
    26   12   13 1   
    27   12   34 1   
    28   12   35 1   
    29   13   14 1   
    30   13   36 1   
    31   13   37 1   
    32   14   15 1   
    33   15   16 ar  
    34   15   21 ar  
    35   16   17 ar  
    36   16   38 1   
    37   17   18 ar  
    38   17   39 1   
    39   18   19 1   
    40   18   20 ar  
    41   20   21 ar  
    42   20   40 1   
    43   21   41 1   
@<TRIPOS>SUBSTRUCTURE
     1 16J         1 TEMP              0 ****  ****    0 ROOT
