@<TRIPOS>MOLECULE
16J
   41    43     1     0     0
SMALL
bcc


@<TRIPOS>ATOM
      1 CAI        -0.2740   -0.2420    0.4280 c3        1 16J      0.032000
      2 CAG         0.9800   -0.0600   -0.4340 c3        1 16J      0.095900
      3 OAO         2.1330    0.1810    0.3680 os        1 16J     -0.412600
      4 CAH         1.9680    1.2970    1.2350 c3        1 16J      0.095900
      5 CAJ         0.7280    1.1420    2.1300 c3        1 16J      0.032000
      6 NAS        -0.4880    0.8170    1.4050 n         1 16J     -0.420800
      7 CAP        -1.3490    1.8780    0.9900 c         1 16J      0.718100
      8 OAA        -1.8480    1.8710   -0.1600 o         1 16J     -0.622100
      9 NAT        -1.6400    2.9480    1.8920 n         1 16J     -0.420800
     10 CAL        -1.9470    2.6330    3.2740 c3        1 16J      0.063500
     11 CAN        -3.4500    2.4020    3.5600 c3        1 16J      0.154300
     12 CAK        -2.5060    3.9930    1.3680 c3        1 16J      0.063500
     13 CAM        -4.0110    3.7750    1.6380 c3        1 16J      0.154300
     14 NAU        -4.2820    3.4730    3.0370 nh        1 16J     -0.637000
     15 CAR        -5.6520    3.4390    3.3990 ca        1 16J      0.139600
     16 CAE        -6.4710    4.5620    3.1270 ca        1 16J     -0.162500
     17 CAC        -7.7950    4.5960    3.5430 ca        1 16J     -0.099500
     18 CAQ        -8.3390    3.5150    4.2430 ca        1 16J     -0.011600
     19 CLA        -9.9600    3.5630    4.7530 cl        1 16J     -0.097400
     20 CAD        -7.5510    2.3980    4.5240 ca        1 16J     -0.099500
     21 CAF        -6.2260    2.3560    4.1030 ca        1 16J     -0.162500
     22 H1         -1.1700   -0.3290   -0.2470 h1        1 16J      0.072700
     23 H2         -0.1730   -1.1930    1.0240 h1        1 16J      0.072700
     24 H3          0.8440    0.7830   -1.1610 h1        1 16J      0.059700
     25 H4          1.2180   -1.0090   -0.9810 h1        1 16J      0.059700
     26 H5          2.8970    1.3030    1.8620 h1        1 16J      0.059700
     27 H6          1.9070    2.2390    0.6290 h1        1 16J      0.059700
     28 H7          0.9060    0.2860    2.8430 h1        1 16J      0.072700
     29 H8          0.6100    2.0830    2.7320 h1        1 16J      0.072700
     30 H9         -1.3990    1.7160    3.6200 h1        1 16J      0.072450
     31 H10        -1.5900    3.5100    3.8870 h1        1 16J      0.072450
     32 H11        -3.5830    2.3680    4.6770 h1        1 16J      0.050950
     33 H12        -3.7460    1.3980    3.1370 h1        1 16J      0.050950
     34 H13        -2.3660    4.0870    0.2550 h1        1 16J      0.072450
     35 H14        -2.1730    4.9500    1.8610 h1        1 16J      0.072450
     36 H15        -4.5480    4.7240    1.3600 h1        1 16J      0.050950
     37 H16        -4.3820    2.9510    0.9610 h1        1 16J      0.050950
     38 H17        -6.0630    5.4340    2.5930 ha        1 16J      0.139000
     39 H18        -8.4130    5.4800    3.3220 ha        1 16J      0.146500
     40 H19        -7.9740    1.5440    5.0730 ha        1 16J      0.146500
     41 H20        -5.6370    1.4550    4.3320 ha        1 16J      0.139000
@<TRIPOS>BOND
     1    1    2 1   
     2    1    6 1   
     3    1   22 1   
     4    1   23 1   
     5    2    3 1   
     6    2   24 1   
     7    2   25 1   
     8    3    4 1   
     9    4    5 1   
    10    4   26 1   
    11    4   27 1   
    12    5    6 1   
    13    5   28 1   
    14    5   29 1   
    15    6    7 1   
    16    7    8 2   
    17    7    9 1   
    18    9   10 1   
    19    9   12 1   
    20   10   11 1   
    21   10   30 1   
    22   10   31 1   
    23   11   14 1   
    24   11   32 1   
    25   11   33 1   
    26   12   13 1   
    27   12   34 1   
    28   12   35 1   
    29   13   14 1   
    30   13   36 1   
    31   13   37 1   
    32   14   15 1   
    33   15   16 ar  
    34   15   21 ar  
    35   16   17 ar  
    36   16   38 1   
    37   17   18 ar  
    38   17   39 1   
    39   18   19 1   
    40   18   20 ar  
    41   20   21 ar  
    42   20   40 1   
    43   21   41 1   
@<TRIPOS>SUBSTRUCTURE
     1 16J         1 TEMP              0 ****  ****    0 ROOT
