@<TRIPOS>MOLECULE
16J
   41    40     1     0     0
SMALL
bcc


@<TRIPOS>ATOM
      1 CAI         0.8040   -4.0280   -1.8020 c3        1 16J     -0.093500
      2 CAG         2.2870   -4.1500   -1.8180 c3        1 16J     -0.056500
      3 OAO         2.8330   -4.1630   -0.5170 os        1 16J     -0.268000
      4 CAH         2.3770   -3.0640    0.2780 c3        1 16J     -0.056500
      5 CAJ         0.8980   -2.9470    0.2820 c3        1 16J     -0.093500
      6 NAS         0.3670   -2.9490   -1.0080 n         1 16J     -0.268000
      7 CAP        -0.5530   -1.9170   -1.4970 c2        1 16J      0.358000
      8 OAA        -0.9820   -1.9730   -2.6560 o         1 16J     -0.390000
      9 NAT        -1.0970   -0.9470   -0.5830 n         1 16J     -0.307000
     10 CAL        -2.1240   -0.0300   -0.9500 c3        1 16J     -0.030000
     11 CAN        -1.7620    1.4060   -0.6080 c3        1 16J     -0.076500
     12 CAK        -0.6610   -0.8180    0.7840 c3        1 16J     -0.030000
     13 CAM        -0.2870    0.6210    1.1370 c3        1 16J     -0.076500
     14 NAU        -1.3300    1.5550    0.7820 n3        1 16J     -0.239000
     15 CAR        -0.8760    2.8910    1.0000 c2        1 16J      0.056000
     16 CAE        -1.5480    3.7220    1.9060 c2        1 16J     -0.151000
     17 CAC        -1.1000    5.0460    2.1150 c1        1 16J     -0.101000
     18 CAQ         0.0030    5.5230    1.4230 c1        1 16J     -0.089000
     19 CLA         0.4450    7.2390    1.5400 cl        1 16J     -0.017000
     20 CAD         0.6790    4.6880    0.5120 c1        1 16J     -0.098000
     21 CAF         0.2390    3.3750    0.3030 c1        1 16J     -0.174000
     22 H1          0.4200   -4.8670   -1.4410 h1        1 16J      0.108000
     23 H2          0.4680   -3.8940   -2.7680 h1        1 16J      0.108000
     24 H3          2.6820   -3.3480   -2.3400 h1        1 16J      0.100750
     25 H4          2.5230   -4.9500   -2.2600 h1        1 16J      0.100750
     26 H5          2.6930   -3.1910    1.2130 h1        1 16J      0.100750
     27 H6          2.7730   -2.2050   -0.0880 h1        1 16J      0.100750
     28 H7          0.6440   -2.0910    0.7380 h1        1 16J      0.108000
     29 H8          0.4990   -3.7440    0.8140 h1        1 16J      0.108000
     30 H9         -2.9270   -0.2650   -0.4940 h1        1 16J      0.113000
     31 H10        -2.2720   -0.0950   -1.8860 h1        1 16J      0.113000
     32 H11        -2.5300    1.9610   -0.7530 h1        1 16J      0.084750
     33 H12        -1.0130    1.7120   -1.2210 h1        1 16J      0.084750
     34 H13         0.0860   -1.3690    0.9170 h1        1 16J      0.113000
     35 H14        -1.4160   -1.1300    1.4040 h1        1 16J      0.113000
     36 H15        -0.1220    0.6780    2.0990 h1        1 16J      0.084750
     37 H16         0.5490    0.8670    0.6490 h1        1 16J      0.084750
     38 H17        -2.2900    3.4020    2.3710 ha        1 16J      0.140000
     39 H18        -1.5740    5.6330    2.7540 ha        1 16J      0.147000
     40 H19         1.4760    5.0330    0.0140 ha        1 16J      0.147000
     41 H20         0.7200    2.7830   -0.3470 ha        1 16J      0.138000
@<TRIPOS>BOND
     1    1    2 1   
     2    1    6 1   
     3    1   22 1   
     4    1   23 1   
     5    2    3 1   
     6    2   24 1   
     7    2   25 1   
     8    3    4 1   
     9    4    5 1   
    10    4   26 1   
    11    4   27 1   
    12    5    6 1   
    13    5   28 1   
    14    5   29 1   
    15    6    7 1   
    16    7    8 1   
    17    7    9 1   
    18    9   10 1   
    19    9   12 1   
    20   10   11 1   
    21   10   30 1   
    22   10   31 1   
    23   11   14 1   
    24   11   32 1   
    25   11   33 1   
    26   12   13 1   
    27   12   34 1   
    28   12   35 1   
    29   13   14 1   
    30   13   36 1   
    31   13   37 1   
    32   14   15 1   
    33   15   16 1   
    34   15   21 1   
    35   16   17 1   
    36   16   38 1   
    37   17   39 1   
    38   18   20 1   
    39   20   40 1   
    40   21   41 1   
@<TRIPOS>SUBSTRUCTURE
     1 16J         1 TEMP              0 ****  ****    0 ROOT
