@<TRIPOS>MOLECULE
16J
   41    43     1     0     0
SMALL
bcc


@<TRIPOS>ATOM
      1 CAI        -0.2620   -0.2210    0.4140 c3        1 16J      0.032000
      2 CAG         0.9960   -0.0270   -0.4410 c3        1 16J      0.095900
      3 OAO         2.1450    0.2080    0.3690 os        1 16J     -0.412600
      4 CAH         1.9730    1.3140    1.2470 c3        1 16J      0.095900
      5 CAJ         0.7300    1.1470    2.1350 c3        1 16J      0.032000
      6 NAS        -0.4830    0.8280    1.4010 n         1 16J     -0.420800
      7 CAP        -1.3430    1.8910    0.9920 c         1 16J      0.718100
      8 OAA        -1.8370    1.8950   -0.1600 o         1 16J     -0.621100
      9 NAT        -1.6400    2.9520    1.9040 n         1 16J     -0.420800
     10 CAL        -1.9530    2.6220    3.2810 c3        1 16J      0.063500
     11 CAN        -3.4570    2.3870    3.5570 c3        1 16J      0.154300
     12 CAK        -2.5050    4.0000    1.3870 c3        1 16J      0.063500
     13 CAM        -4.0100    3.7790    1.6470 c3        1 16J      0.154300
     14 NAU        -4.2870    3.4620    3.0410 nh        1 16J     -0.637000
     15 CAR        -5.6590    3.4230    3.3970 ca        1 16J      0.139600
     16 CAE        -6.4780    4.5480    3.1330 ca        1 16J     -0.162500
     17 CAC        -7.8040    4.5770    3.5430 ca        1 16J     -0.099500
     18 CAQ        -8.3510    3.4880    4.2300 ca        1 16J     -0.011600
     19 CLA        -9.9740    3.5290    4.7320 cl        1 16J     -0.097400
     20 CAD        -7.5620    2.3690    4.5020 ca        1 16J     -0.099500
     21 CAF        -6.2350    2.3330    4.0870 ca        1 16J     -0.162500
     22 H1         -0.1620   -1.1780    1.0000 h1        1 16J      0.072700
     23 H2         -1.1550   -0.3030   -0.2660 h1        1 16J      0.072700
     24 H3          0.8620    0.8230   -1.1600 h1        1 16J      0.059700
     25 H4          1.2380   -0.9700   -0.9970 h1        1 16J      0.059700
     26 H5          1.9130    2.2620    0.6500 h1        1 16J      0.059700
     27 H6          2.9000    1.3150    1.8790 h1        1 16J      0.059700
     28 H7          0.6080    2.0810    2.7460 h1        1 16J      0.072700
     29 H8          0.9060    0.2840    2.8390 h1        1 16J      0.072700
     30 H9         -1.4050    1.7020    3.6200 h1        1 16J      0.072450
     31 H10        -1.5990    3.4930    3.9050 h1        1 16J      0.072450
     32 H11        -3.7500    1.3870    3.1230 h1        1 16J      0.050950
     33 H12        -3.5950    2.3410    4.6740 h1        1 16J      0.050950
     34 H13        -2.1750    4.9530    1.8900 h1        1 16J      0.072450
     35 H14        -2.3590    4.1070    0.2760 h1        1 16J      0.072450
     36 H15        -4.5470    4.7290    1.3760 h1        1 16J      0.050950
     37 H16        -4.3770    2.9610    0.9610 h1        1 16J      0.050950
     38 H17        -6.0680    5.4260    2.6100 ha        1 16J      0.139000
     39 H18        -8.4220    5.4630    3.3280 ha        1 16J      0.146500
     40 H19        -7.9870    1.5090    5.0410 ha        1 16J      0.146500
     41 H20        -5.6470    1.4300    4.3100 ha        1 16J      0.139000
@<TRIPOS>BOND
     1    1    2 1   
     2    1    6 1   
     3    1   22 1   
     4    1   23 1   
     5    2    3 1   
     6    2   24 1   
     7    2   25 1   
     8    3    4 1   
     9    4    5 1   
    10    4   26 1   
    11    4   27 1   
    12    5    6 1   
    13    5   28 1   
    14    5   29 1   
    15    6    7 1   
    16    7    8 2   
    17    7    9 1   
    18    9   10 1   
    19    9   12 1   
    20   10   11 1   
    21   10   30 1   
    22   10   31 1   
    23   11   14 1   
    24   11   32 1   
    25   11   33 1   
    26   12   13 1   
    27   12   34 1   
    28   12   35 1   
    29   13   14 1   
    30   13   36 1   
    31   13   37 1   
    32   14   15 1   
    33   15   16 ar  
    34   15   21 ar  
    35   16   17 ar  
    36   16   38 1   
    37   17   18 ar  
    38   17   39 1   
    39   18   19 1   
    40   18   20 ar  
    41   20   21 ar  
    42   20   40 1   
    43   21   41 1   
@<TRIPOS>SUBSTRUCTURE
     1 16J         1 TEMP              0 ****  ****    0 ROOT
