@<TRIPOS>MOLECULE
16J
   41    43     1     0     0
SMALL
bcc


@<TRIPOS>ATOM
      1 CAI        -0.2640   -0.2220    0.4130 c3        1 16J      0.032000
      2 CAG         0.9940   -0.0290   -0.4430 c3        1 16J      0.095900
      3 OAO         2.1430    0.2070    0.3650 os        1 16J     -0.412600
      4 CAH         1.9720    1.3130    1.2420 c3        1 16J      0.095900
      5 CAJ         0.7300    1.1480    2.1310 c3        1 16J      0.032000
      6 NAS        -0.4830    0.8270    1.3990 n         1 16J     -0.420800
      7 CAP        -1.3440    1.8910    0.9910 c         1 16J      0.718100
      8 OAA        -1.8400    1.8940   -0.1610 o         1 16J     -0.622100
      9 NAT        -1.6400    2.9510    1.9020 n         1 16J     -0.420800
     10 CAL        -1.9520    2.6230    3.2800 c3        1 16J      0.063500
     11 CAN        -3.4560    2.3880    3.5580 c3        1 16J      0.154300
     12 CAK        -2.5060    4.0000    1.3850 c3        1 16J      0.063500
     13 CAM        -4.0110    3.7780    1.6470 c3        1 16J      0.154300
     14 NAU        -4.2870    3.4620    3.0420 nh        1 16J     -0.637000
     15 CAR        -5.6580    3.4240    3.4000 ca        1 16J      0.139600
     16 CAE        -6.4770    4.5480    3.1360 ca        1 16J     -0.162500
     17 CAC        -7.8030    4.5770    3.5470 ca        1 16J     -0.099500
     18 CAQ        -8.3480    3.4900    4.2360 ca        1 16J     -0.011600
     19 ClA        -9.9710    3.5310    4.7400 cl        1 16J     -0.097400
     20 CAD        -7.5590    2.3710    4.5080 ca        1 16J     -0.099500
     21 CAF        -6.2330    2.3340    4.0910 ca        1 16J     -0.162500
     22 H1         -1.1570   -0.3050   -0.2660 h1        1 16J      0.072700
     23 H2         -0.1630   -1.1790    1.0000 h1        1 16J      0.072700
     24 H3          0.8580    0.8210   -1.1630 h1        1 16J      0.059700
     25 H4          1.2350   -0.9730   -0.9990 h1        1 16J      0.059700
     26 H5          2.9000    1.3150    1.8730 h1        1 16J      0.059700
     27 H6          1.9110    2.2610    0.6440 h1        1 16J      0.059700
     28 H7          0.6090    2.0820    2.7420 h1        1 16J      0.072700
     29 H8          0.9070    0.2850    2.8370 h1        1 16J      0.072700
     30 H9         -1.5970    3.4950    3.9020 h1        1 16J      0.072450
     31 H10        -1.4030    1.7030    3.6190 h1        1 16J      0.072450
     32 H11        -3.7490    1.3870    3.1250 h1        1 16J      0.050950
     33 H12        -3.5920    2.3430    4.6750 h1        1 16J      0.050950
     34 H13        -2.1760    4.9530    1.8870 h1        1 16J      0.072450
     35 H14        -2.3620    4.1050    0.2730 h1        1 16J      0.072450
     36 H15        -4.3790    2.9600    0.9620 h1        1 16J      0.050950
     37 H16        -4.5480    4.7280    1.3760 h1        1 16J      0.050950
     38 H17        -6.0680    5.4260    2.6110 ha        1 16J      0.139000
     39 H18        -8.4210    5.4630    3.3330 ha        1 16J      0.146500
     40 H19        -7.9840    1.5100    5.0480 ha        1 16J      0.146500
     41 H20        -5.6440    1.4310    4.3140 ha        1 16J      0.139000
@<TRIPOS>BOND
     1    1    2 1   
     2    1    6 1   
     3    1   22 1   
     4    1   23 1   
     5    2    3 1   
     6    2   24 1   
     7    2   25 1   
     8    3    4 1   
     9    4    5 1   
    10    4   26 1   
    11    4   27 1   
    12    5    6 1   
    13    5   28 1   
    14    5   29 1   
    15    6    7 1   
    16    7    8 2   
    17    7    9 1   
    18    9   10 1   
    19    9   12 1   
    20   10   11 1   
    21   10   30 1   
    22   10   31 1   
    23   11   14 1   
    24   11   32 1   
    25   11   33 1   
    26   12   13 1   
    27   12   34 1   
    28   12   35 1   
    29   13   14 1   
    30   13   36 1   
    31   13   37 1   
    32   14   15 1   
    33   15   16 ar  
    34   15   21 ar  
    35   16   17 ar  
    36   16   38 1   
    37   17   18 ar  
    38   17   39 1   
    39   18   19 1   
    40   18   20 ar  
    41   20   21 ar  
    42   20   40 1   
    43   21   41 1   
@<TRIPOS>SUBSTRUCTURE
     1 16J         1 TEMP              0 ****  ****    0 ROOT
