@<TRIPOS>MOLECULE
16K
   36    38     1     0     0
SMALL
bcc


@<TRIPOS>ATOM
      1 S           0.2660    0.5260    0.0300 ss        1 16K     -0.098300
      2 C1          1.8700   -0.0060    0.1020 cc        1 16K     -0.297900
      3 N1          4.0070   -0.2430   -1.0290 nb        1 16K     -0.740000
      4 O1         10.0270    2.4490   -3.0960 o         1 16K     -0.208000
      5 C2          2.6560   -0.1880   -1.1030 ca        1 16K      0.582800
      6 N2          4.1010   -0.5080   -3.4750 nb        1 16K     -0.739000
      7 O2         10.7050    1.9190   -5.0150 o         1 16K     -0.208000
      8 C3          4.6930   -0.4200   -2.2240 ca        1 16K      0.866900
      9 N3          6.0960   -0.5750   -2.1080 nh        1 16K     -0.705300
     10 C4          2.7600   -0.4390   -3.4950 ca        1 16K      0.466200
     11 N4          9.9440    1.7850   -4.0950 no        1 16K      0.312200
     12 C5          1.9750   -0.2840   -2.3450 ca        1 16K     -0.414600
     13 N5          1.2450    0.0500    2.3620 nd        1 16K     -0.646000
     14 C6          6.9490   -0.3590   -3.2150 ca        1 16K      0.126600
     15 C7          7.9660    0.6150   -3.1320 ca        1 16K     -0.113000
     16 C8          8.8680    0.7620   -4.1940 ca        1 16K     -0.160200
     17 C9          8.7720   -0.0290   -5.3480 ca        1 16K     -0.079000
     18 C10         7.7610   -0.9840   -5.4200 ca        1 16K     -0.131000
     19 C11         6.8610   -1.1630   -4.3730 ca        1 16K     -0.066000
     20 C12         2.2490   -0.2170    1.4360 cd        1 16K      0.426600
     21 C13         0.1370    0.4570    1.7370 cc        1 16K      0.422700
     22 C14        -1.1240    0.8300    2.4140 c3        1 16K     -0.137400
     23 C15         3.5800   -0.6860    1.8870 c3        1 16K     -0.130400
     24 HN3         6.4730   -0.2570   -1.2350 hn        1 16K      0.441800
     25 H4          2.2980   -0.5120   -4.4980 h4        1 16K      0.031100
     26 H5          0.8810   -0.2400   -2.4010 ha        1 16K      0.158000
     27 H7          8.0640    1.2600   -2.2400 ha        1 16K      0.171000
     28 H9          9.4850    0.1040   -6.1800 ha        1 16K      0.172000
     29 H10         7.6770   -1.6130   -6.3200 ha        1 16K      0.151000
     30 H11         6.0810   -1.9370   -4.4580 ha        1 16K      0.166000
     31 H14        -0.9510    1.6840    3.1170 hc        1 16K      0.063367
     32 H14A       -1.5200   -0.0350    3.0050 hc        1 16K      0.063367
     33 H14B       -1.8930    1.1330    1.6610 hc        1 16K      0.063367
     34 H15         3.8690   -1.6070    1.3210 hc        1 16K      0.062700
     35 H15A        4.3420    0.1090    1.6880 hc        1 16K      0.062700
     36 H15B        3.5880   -0.9220    2.9800 hc        1 16K      0.062700
@<TRIPOS>BOND
     1    1    2 1   
     2    1   21 1   
     3    2    5 1   
     4    2   20 2   
     5    3    5 ar  
     6    3    8 ar  
     7    4   11 1   
     8    5   12 ar  
     9    6    8 ar  
    10    6   10 ar  
    11    7   11 1   
    12    8    9 1   
    13    9   14 1   
    14    9   24 1   
    15   10   12 ar  
    16   10   25 1   
    17   11   16 1   
    18   12   26 1   
    19   13   20 1   
    20   13   21 2   
    21   14   15 ar  
    22   14   19 ar  
    23   15   16 ar  
    24   15   27 1   
    25   16   17 ar  
    26   17   18 ar  
    27   17   28 1   
    28   18   19 ar  
    29   18   29 1   
    30   19   30 1   
    31   20   23 1   
    32   21   22 1   
    33   22   31 1   
    34   22   32 1   
    35   22   33 1   
    36   23   34 1   
    37   23   35 1   
    38   23   36 1   
@<TRIPOS>SUBSTRUCTURE
     1 16K         1 TEMP              0 ****  ****    0 ROOT
