@<TRIPOS>MOLECULE
16K
   36    38     1     0     0
SMALL
bcc


@<TRIPOS>ATOM
      1 S           0.2630    0.5190    0.0280 ss        1 16K     -0.098300
      2 C1          1.8690   -0.0070    0.1000 cc        1 16K     -0.297900
      3 N1          4.0070   -0.2440   -1.0300 nb        1 16K     -0.740000
      4 O1         10.0300    2.4460   -3.0900 o         1 16K     -0.208000
      5 C2          2.6560   -0.1870   -1.1040 ca        1 16K      0.582800
      6 N2          4.1020   -0.5050   -3.4760 nb        1 16K     -0.739000
      7 O2         10.7090    1.9180   -5.0090 o         1 16K     -0.208000
      8 C3          4.6930   -0.4200   -2.2250 ca        1 16K      0.866900
      9 N3          6.0960   -0.5760   -2.1080 nh        1 16K     -0.705300
     10 C4          2.7610   -0.4350   -3.4970 ca        1 16K      0.466200
     11 N4          9.9480    1.7830   -4.0890 no        1 16K      0.312200
     12 C5          1.9750   -0.2810   -2.3470 ca        1 16K     -0.414600
     13 N5          1.2430    0.0490    2.3610 nd        1 16K     -0.646000
     14 C6          6.9500   -0.3590   -3.2140 ca        1 16K      0.126600
     15 C7          7.9680    0.6140   -3.1290 ca        1 16K     -0.113000
     16 C8          8.8700    0.7620   -4.1910 ca        1 16K     -0.160200
     17 C9          8.7740   -0.0280   -5.3460 ca        1 16K     -0.079000
     18 C10         7.7630   -0.9810   -5.4200 ca        1 16K     -0.131000
     19 C11         6.8620   -1.1610   -4.3740 ca        1 16K     -0.066000
     20 C12         2.2480   -0.2150    1.4350 cd        1 16K      0.426600
     21 C13         0.1340    0.4520    1.7340 cc        1 16K      0.422700
     22 C14        -1.1280    0.8210    2.4110 c3        1 16K     -0.137400
     23 C15         3.5800   -0.6800    1.8870 c3        1 16K     -0.130400
     24 HN3         6.4730   -0.2590   -1.2340 hn        1 16K      0.441800
     25 H4          2.2990   -0.5060   -4.5000 h4        1 16K      0.031100
     26 H5          0.8810   -0.2360   -2.4030 ha        1 16K      0.158000
     27 H7          8.0660    1.2570   -2.2360 ha        1 16K      0.171000
     28 H9          9.4870    0.1060   -6.1770 ha        1 16K      0.172000
     29 H10         7.6770   -1.6090   -6.3210 ha        1 16K      0.151000
     30 H11         6.0810   -1.9340   -4.4600 ha        1 16K      0.166000
     31 H14        -1.8980    1.1210    1.6570 hc        1 16K      0.063367
     32 H14A       -1.5220   -0.0440    3.0030 hc        1 16K      0.063367
     33 H14B       -0.9590    1.6760    3.1130 hc        1 16K      0.063367
     34 H15         3.8720   -1.6010    1.3240 hc        1 16K      0.062700
     35 H15A        3.5900   -0.9120    2.9810 hc        1 16K      0.062700
     36 H15B        4.3400    0.1170    1.6860 hc        1 16K      0.062700
@<TRIPOS>BOND
     1    1    2 1   
     2    1   21 1   
     3    2    5 1   
     4    2   20 2   
     5    3    5 ar  
     6    3    8 ar  
     7    4   11 1   
     8    5   12 ar  
     9    6    8 ar  
    10    6   10 ar  
    11    7   11 1   
    12    8    9 1   
    13    9   14 1   
    14    9   24 1   
    15   10   12 ar  
    16   10   25 1   
    17   11   16 1   
    18   12   26 1   
    19   13   20 1   
    20   13   21 2   
    21   14   15 ar  
    22   14   19 ar  
    23   15   16 ar  
    24   15   27 1   
    25   16   17 ar  
    26   17   18 ar  
    27   17   28 1   
    28   18   19 ar  
    29   18   29 1   
    30   19   30 1   
    31   20   23 1   
    32   21   22 1   
    33   22   31 1   
    34   22   32 1   
    35   22   33 1   
    36   23   34 1   
    37   23   35 1   
    38   23   36 1   
@<TRIPOS>SUBSTRUCTURE
     1 16K         1 TEMP              0 ****  ****    0 ROOT
