@<TRIPOS>MOLECULE
16K
   36    38     1     0     0
SMALL
bcc


@<TRIPOS>ATOM
      1 S          -4.7280    0.5200    0.8360 ss        1 16K     -0.098300
      2 C1         -3.4250   -0.1640    0.0010 cc        1 16K     -0.297900
      3 N1         -1.0270   -0.1980   -0.3920 nb        1 16K     -0.740000
      4 O1          5.3240   -2.1790    1.4740 o         1 16K     -0.208000
      5 C2         -2.1390    0.5020   -0.0610 ca        1 16K      0.582800
      6 N2          0.3080    1.8540   -0.1300 nb        1 16K     -0.739000
      7 O2          6.8710   -0.7700    1.2540 o         1 16K     -0.208000
      8 C3          0.1680    0.5080   -0.4320 ca        1 16K      0.866900
      9 N3          1.2970   -0.2240   -0.8770 nh        1 16K     -0.705300
     10 C4         -0.8220    2.5010    0.2000 ca        1 16K      0.466200
     11 N4          5.7370   -1.1230    1.0720 no        1 16K      0.312200
     12 C5         -2.0800    1.8870    0.2490 ca        1 16K     -0.414600
     13 N5         -5.1290   -1.7450   -0.3180 nd        1 16K     -0.646000
     14 C6          2.6110    0.2160   -0.5930 ca        1 16K      0.126600
     15 C7          3.4870   -0.6250    0.1250 ca        1 16K     -0.113000
     16 C8          4.8150   -0.2270    0.3230 ca        1 16K     -0.160200
     17 C9          5.2900    1.0000   -0.1630 ca        1 16K     -0.079000
     18 C10         4.4140    1.8220   -0.8670 ca        1 16K     -0.131000
     19 C11         3.0940    1.4450   -1.0920 ca        1 16K     -0.066000
     20 C12        -3.8050   -1.3900   -0.5650 cd        1 16K      0.426600
     21 C13        -5.7270   -0.8080    0.4220 cc        1 16K      0.422700
     22 C14        -7.1340   -0.8630    0.8740 c3        1 16K     -0.137400
     23 C15        -2.9300   -2.2730   -1.3700 c3        1 16K     -0.130400
     24 HN3         1.1820   -1.2190   -0.8350 hn        1 16K      0.441800
     25 H4         -0.7000    3.5740    0.4380 h4        1 16K      0.031100
     26 H5         -2.9820    2.4500    0.5140 ha        1 16K      0.158000
     27 H7          3.1420   -1.5940    0.5280 ha        1 16K      0.171000
     28 H9          6.3370    1.3040    0.0070 ha        1 16K      0.172000
     29 H10         4.7750    2.7880   -1.2560 ha        1 16K      0.151000
     30 H11         2.4300    2.1150   -1.6640 ha        1 16K      0.166000
     31 H14        -7.8260   -0.9120   -0.0050 hc        1 16K      0.063367
     32 H14A       -7.3060   -1.7730    1.5040 hc        1 16K      0.063367
     33 H14B       -7.3830    0.0440    1.4780 hc        1 16K      0.063367
     34 H15        -2.1340   -2.7070   -0.7130 hc        1 16K      0.062700
     35 H15A       -3.5030   -3.1140   -1.8350 hc        1 16K      0.062700
     36 H15B       -2.4390   -1.6820   -2.1830 hc        1 16K      0.062700
@<TRIPOS>BOND
     1    1    2 1   
     2    1   21 1   
     3    2    5 1   
     4    2   20 2   
     5    3    5 ar  
     6    3    8 ar  
     7    4   11 1   
     8    5   12 ar  
     9    6    8 ar  
    10    6   10 ar  
    11    7   11 1   
    12    8    9 1   
    13    9   14 1   
    14    9   24 1   
    15   10   12 ar  
    16   10   25 1   
    17   11   16 1   
    18   12   26 1   
    19   13   20 1   
    20   13   21 2   
    21   14   15 ar  
    22   14   19 ar  
    23   15   16 ar  
    24   15   27 1   
    25   16   17 ar  
    26   17   18 ar  
    27   17   28 1   
    28   18   19 ar  
    29   18   29 1   
    30   19   30 1   
    31   20   23 1   
    32   21   22 1   
    33   22   31 1   
    34   22   32 1   
    35   22   33 1   
    36   23   34 1   
    37   23   35 1   
    38   23   36 1   
@<TRIPOS>SUBSTRUCTURE
     1 16K         1 TEMP              0 ****  ****    0 ROOT
