@<TRIPOS>MOLECULE
16K
   36    38     1     0     0
SMALL
bcc


@<TRIPOS>ATOM
      1 S           0.2600    0.5090    0.0230 ss        1 16K     -0.098300
      2 C1          1.8690   -0.0080    0.1010 cc        1 16K     -0.297900
      3 N1          4.0090   -0.2410   -1.0270 nb        1 16K     -0.740000
      4 O1         10.0110    2.4720   -3.1160 o         1 16K     -0.208000
      5 C2          2.6570   -0.1960   -1.1020 ca        1 16K      0.582800
      6 N2          4.1060   -0.5280   -3.4700 nb        1 16K     -0.739000
      7 O2         10.6940    1.9290   -5.0300 o         1 16K     -0.208000
      8 C3          4.6960   -0.4250   -2.2200 ca        1 16K      0.866900
      9 N3          6.1010   -0.5690   -2.1020 nu        1 16K     -0.705300
     10 C4          2.7640   -0.4690   -3.4920 ca        1 16K      0.466200
     11 N4          9.9340    1.7980   -4.1090 no        1 16K      0.312200
     12 C5          1.9770   -0.3080   -2.3440 ca        1 16K     -0.414600
     13 N5          1.2420    0.0660    2.3600 nd        1 16K     -0.646000
     14 C6          6.9520   -0.3580   -3.2110 ca        1 16K      0.126600
     15 C7          7.9630    0.6240   -3.1360 ca        1 16K     -0.113000
     16 C8          8.8640    0.7670   -4.1990 ca        1 16K     -0.160200
     17 C9          8.7740   -0.0350   -5.3460 ca        1 16K     -0.079000
     18 C10         7.7700   -0.9980   -5.4090 ca        1 16K     -0.131000
     19 C11         6.8710   -1.1730   -4.3610 ca        1 16K     -0.066000
     20 C12         2.2500   -0.2020    1.4370 cd        1 16K      0.426600
     21 C13         0.1310    0.4570    1.7300 cc        1 16K      0.422700
     22 C14        -1.1330    0.8250    2.4030 c3        1 16K     -0.137400
     23 C15         3.5840   -0.6540    1.8940 c3        1 16K     -0.130400
     24 HN3         6.4750   -0.2400   -1.2320 hn        1 16K      0.441800
     25 H4          2.3030   -0.5540   -4.4940 h4        1 16K      0.031100
     26 H5          0.8830   -0.2720   -2.4000 ha        1 16K      0.158000
     27 H7          8.0560    1.2780   -2.2500 ha        1 16K      0.171000
     28 H9          9.4860    0.0950   -6.1780 ha        1 16K      0.172000
     29 H10         7.6900   -1.6360   -6.3030 ha        1 16K      0.151000
     30 H11         6.0960   -1.9530   -4.4390 ha        1 16K      0.166000
     31 H14        -0.9680    1.6880    3.0970 hc        1 16K      0.063367
     32 H14A       -1.5220   -0.0360    3.0030 hc        1 16K      0.063367
     33 H14B       -1.9040    1.1140    1.6470 hc        1 16K      0.063367
     34 H15         3.8810   -1.5790    1.3390 hc        1 16K      0.062700
     35 H15A        4.3400    0.1450    1.6850 hc        1 16K      0.062700
     36 H15B        3.5950   -0.8760    2.9900 hc        1 16K      0.062700
@<TRIPOS>BOND
     1    1    2 1   
     2    1   21 1   
     3    2    5 1   
     4    2   20 2   
     5    3    5 ar  
     6    3    8 ar  
     7    4   11 1   
     8    5   12 ar  
     9    6    8 ar  
    10    6   10 ar  
    11    7   11 1   
    12    8    9 1   
    13    9   14 1   
    14    9   24 1   
    15   10   12 ar  
    16   10   25 1   
    17   11   16 1   
    18   12   26 1   
    19   13   20 1   
    20   13   21 2   
    21   14   15 ar  
    22   14   19 ar  
    23   15   16 ar  
    24   15   27 1   
    25   16   17 ar  
    26   17   18 ar  
    27   17   28 1   
    28   18   19 ar  
    29   18   29 1   
    30   19   30 1   
    31   20   23 1   
    32   21   22 1   
    33   22   31 1   
    34   22   32 1   
    35   22   33 1   
    36   23   34 1   
    37   23   35 1   
    38   23   36 1   
@<TRIPOS>SUBSTRUCTURE
     1 16K         1 TEMP              0 ****  ****    0 ROOT
