@<TRIPOS>MOLECULE
16K
   36    32     1     0     0
SMALL
bcc


@<TRIPOS>ATOM
      1 S          -3.0180    0.5790    2.5950 ss        1 16K      0.558000
      2 C1         -1.5330    0.1960    2.5170 c2        1 16K     -0.396000
      3 N1         -0.3410   -0.3890    0.6150 n1        1 16K     -0.225000
      4 O1          4.3540   -1.1880   -5.9440 o         1 16K     -0.487700
      5 C2         -0.6380    0.5000    1.5250 c1        1 16K      0.136000
      6 N2          1.2460    1.1290   -0.3610 n1        1 16K     -0.205000
      7 O2          4.7470    0.6540   -4.8390 o         1 16K     -0.487700
      8 C3          0.6170   -0.0990   -0.3630 c1        1 16K      0.147000
      9 N3          1.0260   -1.1050   -1.2740 n3        1 16K     -0.229000
     10 C4          0.9340    2.0530    0.5900 c1        1 16K     -0.001000
     11 N4          3.9720   -0.3420   -5.1490 no        1 16K      0.831400
     12 C5          0.0170    1.7710    1.5220 c1        1 16K     -0.263000
     13 N5         -2.3970   -0.2070    4.7980 n2        1 16K     -0.113000
     14 C6          1.2130   -0.7800   -2.6900 c2        1 16K      0.046000
     15 C7          2.4730   -0.6680   -3.2060 c2        1 16K     -0.049000
     16 C8          2.6490   -0.4270   -4.5900 c2        1 16K     -0.119000
     17 C9          1.5700   -0.3110   -5.3890 c2        1 16K     -0.081000
     18 C10         0.2980   -0.4280   -4.8500 c1        1 16K     -0.125000
     19 C11         0.1380   -0.6630   -3.4950 c2        1 16K     -0.130000
     20 C12        -1.1280   -0.2770    3.8130 c1        1 16K     -0.033000
     21 C13        -3.5020    0.2980    4.0680 c1        1 16K     -0.280000
     22 C14        -4.9020    0.5040    4.6030 c2        1 16K     -0.158500
     23 C15         0.2430   -0.8110    4.1740 c2        1 16K     -0.158500
     24 HN3         1.1260   -1.9660   -0.9860 hn        1 16K      0.237000
     25 H4          1.3570    2.8830    0.5940 ha        1 16K      0.172000
     26 H5         -0.2040    2.4250    2.1930 ha        1 16K      0.164000
     27 H7          3.3000   -0.8720   -2.5980 ha        1 16K      0.192000
     28 H9          1.6920   -0.1370   -6.3820 ha        1 16K      0.173000
     29 H10        -0.5090   -0.3440   -5.4370 DU        1 16K      0.149000
     30 H11        -0.7720   -0.7450   -3.1130 ha        1 16K      0.143000
     31 H14        -5.0970   -0.2130    5.3690 ha        1 16K      0.099167
     32 H14A       -5.5500    0.3900    3.8790 ha        1 16K      0.099167
     33 H14B       -4.9750    1.3520    4.9480 ha        1 16K      0.099167
     34 H15         0.1520   -1.5520    4.8810 ha        1 16K      0.099167
     35 H15A        0.8050   -0.0610    4.5460 ha        1 16K      0.099167
     36 H15B        0.6390   -1.1480    3.4360 ha        1 16K      0.099167
@<TRIPOS>BOND
     1    1    2 1   
     2    1   21 1   
     3    2    5 1   
     4    2   20 1   
     5    3    8 1   
     6    4   11 2   
     7    5   12 1   
     8    6   10 1   
     9    7   11 2   
    10    8    9 1   
    11    9   14 1   
    12    9   24 1   
    13   10   25 1   
    14   11   16 1   
    15   12   26 1   
    16   13   20 1   
    17   13   21 1   
    18   14   15 1   
    19   14   19 1   
    20   15   16 1   
    21   15   27 1   
    22   16   17 1   
    23   17   18 1   
    24   17   28 1   
    25   18   19 1   
    26   19   30 1   
    27   22   31 1   
    28   22   32 1   
    29   22   33 1   
    30   23   34 1   
    31   23   35 1   
    32   23   36 1   
@<TRIPOS>SUBSTRUCTURE
     1 16K         1 TEMP              0 ****  ****    0 ROOT
