@<TRIPOS>MOLECULE
16L
   41    42     1     0     0
SMALL
bcc


@<TRIPOS>ATOM
      1 CAB         0.0780    0.3540    0.3940 c3        1 16L     -0.047300
      2 CAQ         1.5540    0.3390    0.4950 ca        1 16L     -0.129800
      3 CAL         2.2350    1.2260    1.3250 ca        1 16L     -0.086000
      4 CAV         2.3010   -0.5890   -0.2620 ca        1 16L      0.125100
      5 OAE         1.5680   -1.4340   -1.0660 oh        1 16L     -0.498100
      6 CAR         3.7050   -0.6290   -0.1850 ca        1 16L     -0.129800
      7 CAC         4.4890   -1.5980   -0.9850 c3        1 16L     -0.047300
      8 CAM         4.3550    0.2690    0.6660 ca        1 16L     -0.086000
      9 CAT         3.6350    1.1980    1.4250 ca        1 16L     -0.090800
     10 CAH         4.3010    2.1740    2.2720 ce        1 16L     -0.096200
     11 CAG         5.3870    2.0120    3.0400 cf        1 16L     -0.110200
     12 CAS         6.1520    0.7960    3.2800 ca        1 16L     -0.034800
     13 CAN         7.5470    0.8960    3.3760 ca        1 16L     -0.149000
     14 CAJ         5.5240   -0.4390    3.4710 ca        1 16L     -0.142000
     15 CAI         6.2890   -1.5680    3.7550 ca        1 16L     -0.107000
     16 CAK         7.6720   -1.4860    3.8460 ca        1 16L     -0.185000
     17 CAU         8.3270   -0.2440    3.6550 ca        1 16L      0.068600
     18 NAO         9.7290   -0.2150    3.7460 n         1 16L     -0.468100
     19 CAP        10.5610    0.8970    3.7100 c         1 16L      0.666300
     20 OAD        10.1330    2.0580    3.5580 o         1 16L     -0.595100
     21 CAF        12.0190    0.6230    3.8580 ce        1 16L     -0.245200
     22 CAA        12.9020    1.6220    3.8630 c2        1 16L     -0.125000
     23 H1         -0.3380   -0.6290    0.7270 hc        1 16L      0.045200
     24 H2         -0.3650    1.1650    1.0210 hc        1 16L      0.045200
     25 H3         -0.2310    0.5100   -0.6710 hc        1 16L      0.045200
     26 H4          1.6640    1.9600    1.9150 ha        1 16L      0.140000
     27 H5          2.1820   -2.0060   -1.5470 ho        1 16L      0.420000
     28 H6          5.5840   -1.4860   -0.7900 hc        1 16L      0.045200
     29 H7          4.1960   -2.6470   -0.7290 hc        1 16L      0.045200
     30 H8          4.3130   -1.4380   -2.0790 hc        1 16L      0.045200
     31 H9          5.4540    0.2460    0.7450 ha        1 16L      0.140000
     32 H10         3.8240    3.1740    2.2500 ha        1 16L      0.125000
     33 H11         5.7810    2.8930    3.5830 ha        1 16L      0.132000
     34 H12         8.0220    1.8800    3.2290 ha        1 16L      0.175000
     35 H13         4.4290   -0.5130    3.3920 ha        1 16L      0.145000
     36 H14         5.7930   -2.5380    3.9090 ha        1 16L      0.132000
     37 H15         8.2500   -2.3950    4.0720 ha        1 16L      0.127000
     38 H16        10.1610   -1.0990    3.9010 hn        1 16L      0.314500
     39 H17        12.3350   -0.4260    3.9610 ha        1 16L      0.130000
     40 H19        12.5950    2.6750    3.7590 ha        1 16L      0.132000
     41 H20        13.9810    1.4460    3.9700 ha        1 16L      0.132000
@<TRIPOS>BOND
     1    1    2 1   
     2    1   23 1   
     3    1   24 1   
     4    1   25 1   
     5    2    3 ar  
     6    2    4 ar  
     7    3    9 ar  
     8    3   26 1   
     9    4    5 1   
    10    4    6 ar  
    11    5   27 1   
    12    6    7 1   
    13    6    8 ar  
    14    7   28 1   
    15    7   29 1   
    16    7   30 1   
    17    8    9 ar  
    18    8   31 1   
    19    9   10 1   
    20   10   11 2   
    21   10   32 1   
    22   11   12 1   
    23   11   33 1   
    24   12   13 ar  
    25   12   14 ar  
    26   13   17 ar  
    27   13   34 1   
    28   14   15 ar  
    29   14   35 1   
    30   15   16 ar  
    31   15   36 1   
    32   16   17 ar  
    33   16   37 1   
    34   17   18 1   
    35   18   19 1   
    36   18   38 1   
    37   19   20 2   
    38   19   21 1   
    39   21   22 2   
    40   21   39 1   
    41   22   40 1   
    42   22   41 1   
@<TRIPOS>SUBSTRUCTURE
     1 16L         1 TEMP              0 ****  ****    0 ROOT
