@<TRIPOS>MOLECULE
16L
   41    42     1     0     0
SMALL
bcc


@<TRIPOS>ATOM
      1 CAB         6.2100    1.5500    0.0510 c3        1 16L     -0.048300
      2 CAQ         4.9930    0.7070    0.0430 ca        1 16L     -0.127800
      3 CAL         3.7200    1.2660    0.1040 ca        1 16L     -0.087500
      4 CAV         5.1120   -0.6990   -0.0260 ca        1 16L      0.126100
      5 OAE         6.3980   -1.1880   -0.0820 oh        1 16L     -0.498100
      6 CAR         3.9740   -1.5250   -0.0320 ca        1 16L     -0.127800
      7 CAC         4.1000   -2.9990   -0.0970 c3        1 16L     -0.048300
      8 CAM         2.7120   -0.9280    0.0270 ca        1 16L     -0.087500
      9 CAT         2.5680    0.4620    0.0900 ca        1 16L     -0.085800
     10 CAH         1.2660    1.1020    0.1540 ce        1 16L     -0.094200
     11 CAG         0.1090    0.5250   -0.2120 cf        1 16L     -0.113200
     12 CAS        -1.1930    1.1700   -0.1410 ca        1 16L     -0.027800
     13 CAN        -2.3360    0.3570   -0.1070 ca        1 16L     -0.147000
     14 CAJ        -1.3290    2.5630   -0.1190 ca        1 16L     -0.148000
     15 CAI        -2.5970    3.1350   -0.0550 ca        1 16L     -0.104000
     16 CAK        -3.7360    2.3420   -0.0140 ca        1 16L     -0.184000
     17 CAU        -3.6210    0.9290   -0.0410 ca        1 16L      0.071600
     18 NAO        -4.8010    0.1690    0.0090 n         1 16L     -0.468100
     19 CAP        -4.9320   -1.2090   -0.1060 c         1 16L      0.666300
     20 OAD        -3.9570   -1.9700   -0.2610 o         1 16L     -0.596100
     21 CAF        -6.3230   -1.7390   -0.0300 ce        1 16L     -0.245200
     22 CAA        -6.5630   -3.0440   -0.1630 c2        1 16L     -0.125000
     23 H1          6.8590    1.2760    0.9200 hc        1 16L      0.045867
     24 H2          6.8010    1.3750   -0.8830 hc        1 16L      0.045867
     25 H3          5.9540    2.6340    0.1180 hc        1 16L      0.045867
     26 H4          3.6160    2.3610    0.1600 ha        1 16L      0.135500
     27 H5          6.3560   -2.1540   -0.1270 ho        1 16L      0.420000
     28 H6          4.6820   -3.3830    0.7790 hc        1 16L      0.045867
     29 H7          3.0960   -3.4890   -0.0870 hc        1 16L      0.045867
     30 H8          4.6280   -3.3080   -1.0350 hc        1 16L      0.045867
     31 H9          1.8180   -1.5720    0.0310 ha        1 16L      0.135500
     32 H10         1.2800    2.1400    0.5330 ha        1 16L      0.125000
     33 H11         0.0900   -0.5130   -0.5910 ha        1 16L      0.132000
     34 H12        -2.2100   -0.7380   -0.1310 ha        1 16L      0.174000
     35 H13        -0.4400    3.2090   -0.1620 ha        1 16L      0.134000
     36 H14        -2.7010    4.2310   -0.0380 ha        1 16L      0.131000
     37 H15        -4.7240    2.8230    0.0380 ha        1 16L      0.127000
     38 H16        -5.6400    0.6970    0.1070 hn        1 16L      0.315500
     39 H17        -7.1380   -1.0180    0.1400 ha        1 16L      0.131000
     40 H19        -7.5790   -3.4580   -0.1100 ha        1 16L      0.131500
     41 H20        -5.7550   -3.7730   -0.3320 ha        1 16L      0.131500
@<TRIPOS>BOND
     1    1    2 1   
     2    1   23 1   
     3    1   24 1   
     4    1   25 1   
     5    2    3 ar  
     6    2    4 ar  
     7    3    9 ar  
     8    3   26 1   
     9    4    5 1   
    10    4    6 ar  
    11    5   27 1   
    12    6    7 1   
    13    6    8 ar  
    14    7   28 1   
    15    7   29 1   
    16    7   30 1   
    17    8    9 ar  
    18    8   31 1   
    19    9   10 1   
    20   10   11 2   
    21   10   32 1   
    22   11   12 1   
    23   11   33 1   
    24   12   13 ar  
    25   12   14 ar  
    26   13   17 ar  
    27   13   34 1   
    28   14   15 ar  
    29   14   35 1   
    30   15   16 ar  
    31   15   36 1   
    32   16   17 ar  
    33   16   37 1   
    34   17   18 1   
    35   18   19 1   
    36   18   38 1   
    37   19   20 2   
    38   19   21 1   
    39   21   22 2   
    40   21   39 1   
    41   22   40 1   
    42   22   41 1   
@<TRIPOS>SUBSTRUCTURE
     1 16L         1 TEMP              0 ****  ****    0 ROOT
