@<TRIPOS>MOLECULE
16L
   42    43     1     0     0
SMALL
bcc


@<TRIPOS>ATOM
      1 CAB         0.6720    0.0470    2.0610 c3        1 16L     -0.055300
      2 CAQ         1.9230    0.1910    1.2840 ca        1 16L     -0.119800
      3 CAL         2.8830    1.1420    1.6200 ca        1 16L     -0.093000
      4 CAV         2.1560   -0.6430    0.1660 ca        1 16L      0.137100
      5 OAE         1.1740   -1.5640   -0.1020 oh        1 16L     -0.486100
      6 CAR         3.3310   -0.5230   -0.5990 ca        1 16L     -0.119800
      7 CAC         3.5630   -1.3860   -1.7800 c3        1 16L     -0.055300
      8 CAM         4.2770    0.4380   -0.2310 ca        1 16L     -0.093000
      9 CAT         4.0640    1.2660    0.8740 ca        1 16L     -0.137800
     10 CAH         5.0220    2.3120    1.2120 ce        1 16L     -0.019200
     11 CAG         6.1930    2.1780    1.8510 cf        1 16L     -0.171200
     12 CAS         6.7710    0.9590    2.3930 ca        1 16L      0.002200
     13 CAN         8.1680    0.8520    2.4610 ca        1 16L     -0.120000
     14 CAJ         5.9800   -0.0960    2.8760 ca        1 16L     -0.069000
     15 CAI         6.5690   -1.2410    3.4080 ca        1 16L     -0.099000
     16 CAK         7.9550   -1.3640    3.4750 ca        1 16L     -0.109000
     17 CAU         8.7500   -0.3070    2.9980 ca        1 16L     -0.057400
     18 NAO        10.2100   -0.4270    3.0500 n4        1 16L     -0.542200
     19 CAP        10.7540   -0.1680    4.4510 c         1 16L      0.562300
     20 OAD        11.2600   -1.1480    4.9820 o         1 16L     -0.431100
     21 CAF        10.6140    1.1950    4.9480 ce        1 16L     -0.287200
     22 CAA        11.1610    1.5540    6.1190 c2        1 16L     -0.024000
     23 H1          0.5960   -0.9900    2.4770 hc        1 16L      0.053367
     24 H2          0.6260    0.7800    2.9030 hc        1 16L      0.053367
     25 H3         -0.2110    0.2090    1.3930 hc        1 16L      0.053367
     26 H4          2.7060    1.8110    2.4770 ha        1 16L      0.139000
     27 H5          1.3840   -2.0100   -0.9360 ho        1 16L      0.429000
     28 H6          2.7710   -1.2120   -2.5530 hc        1 16L      0.053367
     29 H7          4.5540   -1.1710   -2.2490 hc        1 16L      0.053367
     30 H8          3.5420   -2.4670   -1.4900 hc        1 16L      0.053367
     31 H9          5.1940    0.5490   -0.8300 ha        1 16L      0.139000
     32 H10         4.7120    3.3230    0.8780 ha        1 16L      0.149000
     33 H11         6.8170    3.0790    2.0020 ha        1 16L      0.135000
     34 H12         8.7870    1.6810    2.0820 ha        1 16L      0.148000
     35 H13         4.8780   -0.0130    2.8260 ha        1 16L      0.183000
     36 H14         5.9350   -2.0630    3.7800 ha        1 16L      0.171000
     37 H15         8.4040   -2.2780    3.8980 ha        1 16L      0.160000
     38 H16        10.4750   -1.3800    2.7630 hn        1 16L      0.462300
     39 H17        10.0240    1.9010    4.3380 ha        1 16L      0.169000
     40 H19        11.7400    0.8590    6.7490 ha        1 16L      0.162000
     41 H20        11.0540    2.5810    6.5080 ha        1 16L      0.162000
     42 HAO2       10.6280    0.2470    2.4000 hn        1 16L      0.462300
@<TRIPOS>BOND
     1    1    2 1   
     2    1   23 1   
     3    1   24 1   
     4    1   25 1   
     5    2    3 ar  
     6    2    4 ar  
     7    3    9 ar  
     8    3   26 1   
     9    4    5 1   
    10    4    6 ar  
    11    5   27 1   
    12    6    7 1   
    13    6    8 ar  
    14    7   28 1   
    15    7   29 1   
    16    7   30 1   
    17    8    9 ar  
    18    8   31 1   
    19    9   10 1   
    20   10   11 2   
    21   10   32 1   
    22   11   12 1   
    23   11   33 1   
    24   12   13 ar  
    25   12   14 ar  
    26   13   17 ar  
    27   13   34 1   
    28   14   15 ar  
    29   14   35 1   
    30   15   16 ar  
    31   15   36 1   
    32   16   17 ar  
    33   16   37 1   
    34   17   18 1   
    35   18   19 1   
    36   18   38 1   
    37   18   42 1   
    38   19   20 2   
    39   19   21 1   
    40   21   22 2   
    41   21   39 1   
    42   22   40 1   
    43   22   41 1   
@<TRIPOS>SUBSTRUCTURE
     1 16L         1 TEMP              0 ****  ****    0 ROOT
