@<TRIPOS>MOLECULE
16L
   41    35     1     0     0
SMALL
bcc


@<TRIPOS>ATOM
      1 CAB        -2.7800   -2.1610   -0.8210 c3        1 16L     -0.167000
      2 CAQ        -1.2690   -2.2030   -0.8620 c2        1 16L     -0.095000
      3 CAL        -0.5440   -2.2130    0.3200 c2        1 16L     -0.096000
      4 CAV        -0.6090   -2.2340   -2.0800 c1        1 16L      0.078000
      5 OAE        -1.3460   -2.2660   -3.2790 o         1 16L     -0.253000
      6 CAR         0.7760   -2.2740   -2.1170 c1        1 16L     -0.151000
      7 CAC         1.4980   -2.2450   -3.4460 c2        1 16L     -0.180000
      8 CAM         1.5010   -2.2840   -0.9360 c1        1 16L     -0.079000
      9 CAT         0.8410   -2.2530    0.2830 c1        1 16L     -0.080000
     10 CAH         1.6300   -2.3260    1.5720 c2        1 16L     -0.109000
     11 CAG         2.1120   -1.1980    2.1320 c1        1 16L     -0.123000
     12 CAS         1.8640    0.1410    1.4720 c1        1 16L     -0.023000
     13 CAN         0.8460    0.9620    1.9320 c2        1 16L     -0.170000
     14 CAJ         2.7130    0.5850    0.4700 c1        1 16L     -0.150000
     15 CAI         2.5440    1.8510   -0.0710 c1        1 16L     -0.131000
     16 CAK         1.5270    2.6710    0.3890 c1        1 16L     -0.131000
     17 CAU         0.6780    2.2270    1.3910 c1        1 16L      0.075000
     18 NAO        -0.3710    3.0630    1.8540 n         1 16L     -0.323000
     19 CAP        -1.3630    3.5240    0.9500 c2        1 16L      0.338000
     20 OAD        -1.3140    3.2040   -0.2200 o         1 16L     -0.346000
     21 CAF        -2.4910    4.4010    1.4480 c2        1 16L     -0.197000
     22 CAA        -3.7010    3.8640    1.7000 c1        1 16L     -0.175000
     23 H1         -3.1000   -1.3990   -1.3490 hc        1 16L      0.085667
     24 H2         -3.1400   -2.9920   -1.1960 hc        1 16L      0.085667
     25 H3         -3.0800   -2.0640    0.1070 hc        1 16L      0.085667
     26 H4         -1.0090   -2.1910    1.1770 ha        1 16L      0.136000
     27 H5         -1.4570   -3.1100   -3.5350 ho        1 16L      0.220000
     28 H6          1.3280   -3.0810   -3.9290 ha        1 16L      0.085000
     29 H7          2.4610   -2.1460   -3.2930 ha        1 16L      0.085000
     30 H8          1.1720   -1.4890   -3.9780 ha        1 16L      0.085000
     31 H9          2.4760   -2.3130   -0.9620 ha        1 16L      0.146000
     32 H10         1.7890   -3.1900    1.9990 ha        1 16L      0.126000
     33 H11         2.6210   -1.2450    2.9640 ha        1 16L      0.128000
     34 H12         0.2480    0.6490    2.6370 ha        1 16L      0.140000
     35 H13         3.4300    0.0080    0.1460 ha        1 16L      0.134000
     36 H14         3.1420    2.1640   -0.7760 ha        1 16L      0.154500
     37 H15         1.4080    3.5620    0.0080 ha        1 16L      0.154500
     38 H16        -0.4080    3.3040    2.7330 hn        1 16L      0.232000
     39 H17        -2.3420    5.3570    1.5870 ha        1 16L      0.159000
     40 H19        -3.8500    2.9080    1.5610 DU        1 16L      0.119000
     41 H20        -4.4300    4.4310    2.0210 ha        1 16L      0.126000
@<TRIPOS>BOND
     1    1    2 1   
     2    1   23 1   
     3    1   24 1   
     4    1   25 1   
     5    2    3 1   
     6    2    4 1   
     7    3    9 1   
     8    3   26 1   
     9    4    6 1   
    10    5   27 1   
    11    6    8 1   
    12    7   28 1   
    13    7   29 1   
    14    7   30 1   
    15    8   31 1   
    16    9   10 1   
    17   10   11 1   
    18   10   32 1   
    19   11   33 1   
    20   12   13 1   
    21   12   14 1   
    22   13   17 1   
    23   13   34 1   
    24   14   35 1   
    25   15   16 1   
    26   15   36 1   
    27   16   37 1   
    28   17   18 1   
    29   18   19 1   
    30   18   38 1   
    31   19   20 1   
    32   19   21 1   
    33   21   22 1   
    34   21   39 1   
    35   22   41 1   
@<TRIPOS>SUBSTRUCTURE
     1 16L         1 TEMP              0 ****  ****    0 ROOT
