@<TRIPOS>MOLECULE
16L
   41    42     1     0     0
SMALL
bcc


@<TRIPOS>ATOM
      1 CAB         0.0810    0.3850    0.3830 c3        1 16L     -0.047300
      2 CAQ         1.5570    0.3570    0.4860 ca        1 16L     -0.129800
      3 CAL         2.2460    1.2490    1.3040 ca        1 16L     -0.086000
      4 CAV         2.2960   -0.5880   -0.2580 ca        1 16L      0.125100
      5 OAE         1.5560   -1.4360   -1.0510 oh        1 16L     -0.498100
      6 CAR         3.6990   -0.6400   -0.1790 ca        1 16L     -0.129800
      7 CAC         4.4750   -1.6270   -0.9650 c3        1 16L     -0.047300
      8 CAM         4.3570    0.2640    0.6600 ca        1 16L     -0.086000
      9 CAT         3.6450    1.2090    1.4060 ca        1 16L     -0.090800
     10 CAH         4.3190    2.1900    2.2410 ce        1 16L     -0.096200
     11 CAG         5.4030    2.0280    3.0110 cf        1 16L     -0.110200
     12 CAS         6.1570    0.8090    3.2690 ca        1 16L     -0.034800
     13 CAN         7.5530    0.8970    3.3650 ca        1 16L     -0.149000
     14 CAJ         5.5180   -0.4180    3.4740 ca        1 16L     -0.142000
     15 CAI         6.2720   -1.5500    3.7740 ca        1 16L     -0.107000
     16 CAK         7.6560   -1.4790    3.8670 ca        1 16L     -0.185000
     17 CAU         8.3230   -0.2450    3.6600 ca        1 16L      0.068600
     18 NAO         9.7240   -0.2270    3.7530 ns        1 16L     -0.468100
     19 CAP        10.5660    0.8780    3.7120 c         1 16L      0.666300
     20 OAD        10.1460    2.0410    3.5510 o         1 16L     -0.595100
     21 CAF        12.0210    0.5940    3.8650 ce        1 16L     -0.245200
     22 CAA        12.9110    1.5860    3.8730 c2        1 16L     -0.125000
     23 H1         -0.2250    0.5290   -0.6840 hc        1 16L      0.045200
     24 H2         -0.3450   -0.5900    0.7300 hc        1 16L      0.045200
     25 H3         -0.3550    1.2080    0.9980 hc        1 16L      0.045200
     26 H4          1.6810    1.9960    1.8840 ha        1 16L      0.140000
     27 H5          2.1650   -2.0210   -1.5240 ho        1 16L      0.420000
     28 H6          5.5710   -1.5220   -0.7710 hc        1 16L      0.045200
     29 H7          4.1720   -2.6700   -0.6950 hc        1 16L      0.045200
     30 H8          4.3010   -1.4800   -2.0610 hc        1 16L      0.045200
     31 H9          5.4560    0.2310    0.7410 ha        1 16L      0.140000
     32 H10         3.8520    3.1940    2.2040 ha        1 16L      0.125000
     33 H11         5.8050    2.9130    3.5430 ha        1 16L      0.132000
     34 H12         8.0370    1.8760    3.2070 ha        1 16L      0.175000
     35 H13         4.4230   -0.4830    3.3950 ha        1 16L      0.145000
     36 H14         5.7670   -2.5140    3.9400 ha        1 16L      0.132000
     37 H15         8.2260   -2.3900    4.1050 ha        1 16L      0.127000
     38 H16        10.1490   -1.1130    3.9170 hn        1 16L      0.314500
     39 H17        12.3290   -0.4580    3.9690 ha        1 16L      0.130000
     40 H19        12.6120    2.6410    3.7680 ha        1 16L      0.132000
     41 H20        13.9880    1.4020    3.9840 ha        1 16L      0.132000
@<TRIPOS>BOND
     1    1    2 1   
     2    1   23 1   
     3    1   24 1   
     4    1   25 1   
     5    2    3 ar  
     6    2    4 ar  
     7    3    9 ar  
     8    3   26 1   
     9    4    5 1   
    10    4    6 ar  
    11    5   27 1   
    12    6    7 1   
    13    6    8 ar  
    14    7   28 1   
    15    7   29 1   
    16    7   30 1   
    17    8    9 ar  
    18    8   31 1   
    19    9   10 1   
    20   10   11 2   
    21   10   32 1   
    22   11   12 1   
    23   11   33 1   
    24   12   13 ar  
    25   12   14 ar  
    26   13   17 ar  
    27   13   34 1   
    28   14   15 ar  
    29   14   35 1   
    30   15   16 ar  
    31   15   36 1   
    32   16   17 ar  
    33   16   37 1   
    34   17   18 1   
    35   18   19 1   
    36   18   38 1   
    37   19   20 2   
    38   19   21 1   
    39   21   22 2   
    40   21   39 1   
    41   22   40 1   
    42   22   41 1   
@<TRIPOS>SUBSTRUCTURE
     1 16L         1 TEMP              0 ****  ****    0 ROOT
