@<TRIPOS>MOLECULE
16M
   19    19     1     0     0
SMALL
bcc


@<TRIPOS>ATOM
      1 C9          0.0020    0.0010    0.1360 c3        1 16M     -0.088100
      2 C8          1.4930   -0.0020   -0.0410 c3        1 16M     -0.032300
      3 S7          2.1920    0.0040    1.5840 ss        1 16M     -0.189000
      4 C4          3.8720    0.0000    1.3650 ca        1 16M      0.002900
      5 C3          4.6310    0.0030    2.5470 ca        1 16M     -0.134000
      6 C5          4.5330   -0.0050    0.1340 ca        1 16M     -0.134000
      7 C6          5.9270   -0.0070    0.0810 ca        1 16M     -0.113500
      8 C1          6.6740   -0.0040    1.2570 ca        1 16M     -0.141000
      9 C2          6.0200    0.0010    2.4910 ca        1 16M     -0.113500
     10 H1         -0.3320    0.9100    0.6930 hc        1 16M      0.048367
     11 H2         -0.4990   -0.0030   -0.8630 hc        1 16M      0.048367
     12 H3         -0.3340   -0.9040    0.7000 hc        1 16M      0.048367
     13 H4          1.8230    0.8980   -0.6160 h1        1 16M      0.065700
     14 H5          1.8210   -0.9060   -0.6090 h1        1 16M      0.065700
     15 H6          4.1170    0.0070    3.5210 ha        1 16M      0.135000
     16 H7          3.9590   -0.0070   -0.8050 ha        1 16M      0.135000
     17 H8          6.4340   -0.0110   -0.8950 ha        1 16M      0.132000
     18 H9          7.7720   -0.0060    1.2140 ha        1 16M      0.132000
     19 H10         6.6050    0.0030    3.4230 ha        1 16M      0.132000
@<TRIPOS>BOND
     1    1    2 1   
     2    1   10 1   
     3    1   11 1   
     4    1   12 1   
     5    2    3 1   
     6    2   13 1   
     7    2   14 1   
     8    3    4 1   
     9    4    5 ar  
    10    4    6 ar  
    11    5    9 ar  
    12    5   15 1   
    13    6    7 ar  
    14    6   16 1   
    15    7    8 ar  
    16    7   17 1   
    17    8    9 ar  
    18    8   18 1   
    19    9   19 1   
@<TRIPOS>SUBSTRUCTURE
     1 16M         1 TEMP              0 ****  ****    0 ROOT
