@<TRIPOS>MOLECULE
16M
   19    16     1     0     0
SMALL
bcc


@<TRIPOS>ATOM
      1 C9         -1.1120   -3.4770    0.0070 c3        1 16M     -0.088100
      2 C8         -0.4720   -2.1580    0.3830 c3        1 16M     -0.032300
      3 S7         -1.0050   -0.8990   -0.7460 ss        1 16M     -0.187200
      4 C4         -0.1530    0.6150   -0.3900 c1        1 16M      0.001100
      5 C3         -0.6750    1.5030    0.5370 c1        1 16M     -0.070750
      6 C5          1.0190    0.9240   -1.0630 c1        1 16M     -0.065500
      7 C6          1.6690    2.1220   -0.8080 c1        1 16M     -0.070750
      8 C1          1.1470    3.0100    0.1200 c1        1 16M     -0.070750
      9 C2         -0.0260    2.7000    0.7920 c1        1 16M     -0.070750
     10 H1         -0.8640   -3.7100   -0.9120 hc        1 16M      0.048367
     11 H2         -2.0860   -3.3970    0.0730 hc        1 16M      0.048367
     12 H3         -0.7990   -4.1770    0.6180 hc        1 16M      0.048367
     13 H4          0.5020   -2.2440    0.3390 h1        1 16M      0.065700
     14 H5         -0.7370   -1.9140    1.2920 h1        1 16M      0.065700
     15 H6         -1.5000    1.2850    1.0100 ha        1 16M      0.073750
     16 H7          1.3870    0.2990   -1.7160 ha        1 16M      0.083500
     17 H8          2.4940    2.3400   -1.2810 ha        1 16M      0.073750
     18 H9          1.6040    3.8530    0.2990 ha        1 16M      0.073750
     19 H10        -0.3930    3.3260    1.4450 ha        1 16M      0.073750
@<TRIPOS>BOND
     1    1    2 1   
     2    1   10 1   
     3    1   11 1   
     4    1   12 1   
     5    2    3 1   
     6    2   13 1   
     7    2   14 1   
     8    3    4 1   
     9    4    6 3   
    10    5    9 3   
    11    5   15 1   
    12    6   16 1   
    13    7    8 3   
    14    7   17 1   
    15    8   18 1   
    16    9   19 1   
@<TRIPOS>SUBSTRUCTURE
     1 16M         1 TEMP              0 ****  ****    0 ROOT
