@<TRIPOS>MOLECULE
16M
   19    19     1     0     0
SMALL
bcc


@<TRIPOS>ATOM
      1 C9          3.7250    0.3020   -0.0010 c3        1 16M     -0.088100
      2 C8          2.2960    0.7600   -0.0000 c3        1 16M     -0.032300
      3 S7          1.2990   -0.7010   -0.0010 ss        1 16M     -0.189000
      4 C4         -0.3080   -0.1660   -0.0000 ca        1 16M      0.002900
      5 C3         -1.2790   -1.1810   -0.0010 ca        1 16M     -0.134000
      6 C5         -0.7220    1.1690   -0.0000 ca        1 16M     -0.134000
      7 C6         -2.0800    1.4870    0.0000 ca        1 16M     -0.113500
      8 C1         -3.0380    0.4760   -0.0000 ca        1 16M     -0.141000
      9 C2         -2.6320   -0.8610   -0.0010 ca        1 16M     -0.113500
     10 H1          3.9470   -0.3130    0.9060 hc        1 16M      0.048367
     11 H2          3.9470   -0.3120   -0.9080 hc        1 16M      0.048367
     12 H3          4.4080    1.1870   -0.0000 hc        1 16M      0.048367
     13 H4          2.0820    1.3840    0.9020 h1        1 16M      0.065700
     14 H5          2.0820    1.3840   -0.9020 h1        1 16M      0.065700
     15 H6         -0.9600   -2.2350   -0.0010 ha        1 16M      0.135000
     16 H7          0.0210    1.9810    0.0000 ha        1 16M      0.135000
     17 H8         -2.3910    2.5420    0.0000 ha        1 16M      0.132000
     18 H9         -4.1080    0.7270   -0.0000 ha        1 16M      0.132000
     19 H10        -3.3840   -1.6640   -0.0010 ha        1 16M      0.132000
@<TRIPOS>BOND
     1    1    2 1   
     2    1   10 1   
     3    1   11 1   
     4    1   12 1   
     5    2    3 1   
     6    2   13 1   
     7    2   14 1   
     8    3    4 1   
     9    4    5 ar  
    10    4    6 ar  
    11    5    9 ar  
    12    5   15 1   
    13    6    7 ar  
    14    6   16 1   
    15    7    8 ar  
    16    7   17 1   
    17    8    9 ar  
    18    8   18 1   
    19    9   19 1   
@<TRIPOS>SUBSTRUCTURE
     1 16M         1 TEMP              0 ****  ****    0 ROOT
