@<TRIPOS>MOLECULE
16N
   19    17     1     0     0
SMALL
bcc


@<TRIPOS>ATOM
      1 C1          0.4060    0.0000   -1.8530 c1        1 16N     -0.119000
      2 C2          1.8020    0.0000   -1.8530 c1        1 16N     -0.132000
      3 C6         -0.2900    0.0000   -0.6490 c1        1 16N     -0.079000
      4 C7         -1.7980    0.0000   -0.3300 c2        1 16N     -0.122000
      5 C8         -1.9550    0.0000    1.1320 c3        1 16N     -0.158000
      6 C9         -0.6110    0.0000    1.7290 c3        1 16N     -0.122000
      7 C5          0.4190    0.0000    0.5780 c2        1 16N     -0.079000
      8 C4          1.8100    0.0000    0.5750 c1        1 16N     -0.119000
      9 C3          2.5060    0.0000   -0.6350 c1        1 16N     -0.132000
     10 H1         -0.0820    0.0000   -2.6980 ha        1 16N      0.132000
     11 H2          2.2900    0.0000   -2.6980 ha        1 16N      0.129000
     12 H3         -2.2140   -0.7980   -0.7070 ha        1 16N      0.093000
     13 H4         -2.2140    0.7980   -0.7070 ha        1 16N      0.093000
     14 H5         -2.4270    0.8100    1.4040 hc        1 16N      0.083000
     15 H6         -2.4270   -0.8100    1.4040 hc        1 16N      0.083000
     16 H7         -0.4970    0.8100    2.2620 hc        1 16N      0.093000
     17 H8         -0.4970   -0.8100    2.2620 hc        1 16N      0.093000
     18 H9          2.2990    0.0000    1.4200 ha        1 16N      0.132000
     19 H10         3.4820    0.0000   -0.6360 ha        1 16N      0.129000
@<TRIPOS>BOND
     1    1    3 1   
     2    1   10 1   
     3    2    9 1   
     4    2   11 1   
     5    3    7 1   
     6    4    5 1   
     7    4   12 1   
     8    4   13 1   
     9    5    6 1   
    10    5   14 1   
    11    5   15 1   
    12    6    7 1   
    13    6   16 1   
    14    6   17 1   
    15    7    8 1   
    16    8   18 1   
    17    9   19 1   
@<TRIPOS>SUBSTRUCTURE
     1 16N         1 TEMP              0 ****  ****    0 ROOT
