@<TRIPOS>MOLECULE
16N
   19    20     1     0     0
SMALL
bcc


@<TRIPOS>ATOM
      1 C1         -1.0100   -1.4110   -0.0200 ca        1 16N     -0.119000
      2 C2         -2.2150   -0.6960   -0.0450 ca        1 16N     -0.132000
      3 C6          0.1830   -0.7080    0.0040 ca        1 16N     -0.086300
      4 C7          1.5770   -1.2390    0.0330 c3        1 16N     -0.036100
      5 C8          2.4850   -0.0000    0.0510 c3        1 16N     -0.079400
      6 C9          1.5770    1.2390    0.0330 c3        1 16N     -0.036100
      7 C5          0.1830    0.7080    0.0040 ca        1 16N     -0.086300
      8 C4         -1.0100    1.4120   -0.0200 ca        1 16N     -0.119000
      9 C3         -2.2150    0.6960   -0.0450 ca        1 16N     -0.132000
     10 H1         -1.0170   -2.5100   -0.0200 ha        1 16N      0.132000
     11 H2         -3.1680   -1.2440   -0.0640 ha        1 16N      0.129000
     12 H3          1.7430   -1.8720    0.9400 hc        1 16N      0.053700
     13 H4          1.7800   -1.8720   -0.8670 hc        1 16N      0.053700
     14 H5          3.1240   -0.0000    0.9670 hc        1 16N      0.043700
     15 H6          3.1610   -0.0000   -0.8380 hc        1 16N      0.043700
     16 H7          1.7430    1.8720    0.9400 hc        1 16N      0.053700
     17 H8          1.7800    1.8720   -0.8680 hc        1 16N      0.053700
     18 H9         -1.0160    2.5100   -0.0200 ha        1 16N      0.132000
     19 H10        -3.1680    1.2440   -0.0640 ha        1 16N      0.129000
@<TRIPOS>BOND
     1    1    2 ar  
     2    1    3 ar  
     3    1   10 1   
     4    2    9 ar  
     5    2   11 1   
     6    3    4 1   
     7    3    7 ar  
     8    4    5 1   
     9    4   12 1   
    10    4   13 1   
    11    5    6 1   
    12    5   14 1   
    13    5   15 1   
    14    6    7 1   
    15    6   16 1   
    16    6   17 1   
    17    7    8 ar  
    18    8    9 ar  
    19    8   18 1   
    20    9   19 1   
@<TRIPOS>SUBSTRUCTURE
     1 16N         1 TEMP              0 ****  ****    0 ROOT
