@<TRIPOS>MOLECULE
16O
   44    45     1     0     0
SMALL
bcc


@<TRIPOS>ATOM
      1 C1          0.7180   -0.6950   -0.0500 c3        1 16O      0.332300
      2 N1          0.6050   -1.2220   -1.4730 n4        1 16O     -0.609800
      3 S1         -1.4260   -2.8750   -1.9110 s         1 16O      0.249600
      4 BR1         0.2760    3.7140   -9.3270 br        1 16O      0.028900
      5 C2          2.1840   -0.3500    0.3150 c3        1 16O      0.119100
      6 N2         -1.5750   -0.2380   -2.2360 n4        1 16O     -0.300900
      7 O2          2.8980   -1.5600    0.2140 oh        1 16O     -0.623800
      8 C3          2.1570    0.2250    1.7450 c3        1 16O      0.114100
      9 N3         -0.9970    0.4070   -3.3400 n2        1 16O     -0.634400
     10 O3          3.4890    0.6100    2.0050 oh        1 16O     -0.585800
     11 C4          1.2110    1.4470    1.8180 c3        1 16O      0.083100
     12 O4          1.0980    1.7470    3.1930 oh        1 16O     -0.573800
     13 C5         -0.1800    1.0780    1.2740 c3        1 16O      0.122100
     14 O5         -0.0560    0.4860   -0.0380 os        1 16O     -0.464600
     15 C6         -1.0870    2.2850    1.0100 c3        1 16O      0.134400
     16 O6         -2.1340    1.8160    0.1680 oh        1 16O     -0.656800
     17 C7         -0.8060   -1.4980   -1.8660 c         1 16O      0.034400
     18 C8         -1.7360    0.7350   -4.3830 ce        1 16O      0.598800
     19 C9         -1.2110    1.4400   -5.5270 ca        1 16O     -0.239900
     20 C10        -2.0940    1.6950   -6.6020 ca        1 16O     -0.044000
     21 C11        -1.6480    2.3700   -7.7290 ca        1 16O     -0.120000
     22 C12        -0.3170    2.8090   -7.8140 ca        1 16O      0.056100
     23 C13         0.5610    2.5620   -6.7480 ca        1 16O     -0.120000
     24 C14         0.1220    1.8860   -5.6170 ca        1 16O     -0.044000
     25 H1          0.2980   -1.4840    0.6440 hx        1 16O      0.122700
     26 HN1         1.0510   -0.5410   -2.1110 hn        1 16O      0.502300
     27 H2          2.6160    0.4140   -0.3920 h1        1 16O      0.095700
     28 HN2        -1.5400    0.4510   -1.4350 hn        1 16O      0.488300
     29 HO2         3.7210   -1.4660    0.7240 ho        1 16O      0.485000
     30 H3          1.8230   -0.5590    2.4820 h1        1 16O      0.085700
     31 HO3         3.5270    0.9040    2.9290 ho        1 16O      0.459000
     32 H4          1.6500    2.3010    1.2340 h1        1 16O      0.086700
     33 HO4         1.0200    2.7070    3.2870 ho        1 16O      0.439000
     34 H5         -0.6860    0.3430    1.9600 h1        1 16O      0.092700
     35 H6         -0.5300    3.0960    0.4710 h1        1 16O      0.078200
     36 H6A        -1.4790    2.6630    1.9910 h1        1 16O      0.078200
     37 HO6        -2.9030    2.3790    0.3310 ho        1 16O      0.447000
     38 H8         -2.8300    0.4990   -4.4520 h4        1 16O      0.029800
     39 H10        -3.1430    1.3600   -6.5530 ha        1 16O      0.149500
     40 H11        -2.3500    2.5600   -8.5620 ha        1 16O      0.183500
     41 H13         1.6090    2.9080   -6.8030 ha        1 16O      0.183500
     42 H14         0.8290    1.7110   -4.7910 ha        1 16O      0.149500
     43 H12         1.1460   -2.1080   -1.5050 hn        1 16O      0.502300
     44 H22        -2.5630   -0.5360   -2.3600 hn        1 16O      0.488300
@<TRIPOS>BOND
     1    1    2 1   
     2    1    5 1   
     3    1   14 1   
     4    1   25 1   
     5    2   17 1   
     6    2   26 1   
     7    2   43 1   
     8    3   17 2   
     9    4   22 1   
    10    5    7 1   
    11    5    8 1   
    12    5   27 1   
    13    6    9 1   
    14    6   17 1   
    15    6   28 1   
    16    6   44 1   
    17    7   29 1   
    18    8   10 1   
    19    8   11 1   
    20    8   30 1   
    21    9   18 2   
    22   10   31 1   
    23   11   12 1   
    24   11   13 1   
    25   11   32 1   
    26   12   33 1   
    27   13   14 1   
    28   13   15 1   
    29   13   34 1   
    30   15   16 1   
    31   15   35 1   
    32   15   36 1   
    33   16   37 1   
    34   18   19 1   
    35   18   38 1   
    36   19   20 ar  
    37   19   24 ar  
    38   20   21 ar  
    39   20   39 1   
    40   21   22 ar  
    41   21   40 1   
    42   22   23 ar  
    43   23   24 ar  
    44   23   41 1   
    45   24   42 1   
@<TRIPOS>SUBSTRUCTURE
     1 16O         1 TEMP              0 ****  ****    0 ROOT
