@<TRIPOS>MOLECULE
16O
   42    40     1     0     0
SMALL
bcc


@<TRIPOS>ATOM
      1 C1          0.7890   -2.1470   -0.5290 c3        1 16O      0.101000
      2 N1          0.4130   -0.7960   -0.0630 n         1 16O     -0.332000
      3 S1         -2.1550   -1.3890   -0.5830 s         1 16O     -0.281000
      4 BR1        -2.0520    6.1510   -4.6850 br        1 16O      0.063000
      5 C2          2.2030   -2.2430   -0.5590 c3        1 16O      0.018000
      6 N2         -1.1660    1.0960   -0.2770 n         1 16O     -0.288000
      7 O2          2.5840   -3.5490   -1.2910 oh        1 16O     -0.303000
      8 C3          2.8190   -2.2550    0.7240 c3        1 16O     -0.007000
      9 N3         -1.9890    1.6590    0.7260 n2        1 16O     -0.044000
     10 O3          2.6490   -0.9310    1.3290 oh        1 16O     -0.331000
     11 C4          2.2430   -3.2780    1.6540 c3        1 16O     -0.033000
     12 O4          2.5500   -4.5540    1.1610 oh        1 16O     -0.325000
     13 C5          0.6660   -3.1720    1.8420 c3        1 16O     -0.038000
     14 O5          0.1390   -3.1550    0.3540 os        1 16O     -0.259000
     15 C6          0.3430   -2.0440    2.4780 c3        1 16O     -0.054000
     16 O6          0.1780   -2.3070    3.8130 oh        1 16O     -0.325000
     17 C7         -0.9090   -0.3120   -0.2810 c2        1 16O      0.191000
     18 C8         -2.5990    2.8100    0.5120 c1        1 16O     -0.121000
     19 C9         -2.4150    3.5390   -0.8260 c1        1 16O     -0.076000
     20 C10        -1.2510    4.2430   -1.0740 c2        1 16O     -0.122000
     21 C11        -1.1390    5.0090   -2.2100 c1        1 16O     -0.100000
     22 C12        -2.1990    5.0750   -3.1110 c1        1 16O     -0.158000
     23 C13        -3.3600    4.3710   -2.8640 c1        1 16O     -0.103000
     24 C14        -3.4710    3.6050   -1.7260 c1        1 16O     -0.108000
     25 H1          0.4500   -2.2680   -1.4380 h2        1 16O      0.197000
     26 HN1         1.0250   -0.2620    0.2650 hn        1 16O      0.260000
     27 H2          2.5650   -1.4640   -1.0810 h1        1 16O      0.147000
     28 HN2        -0.8250    1.6340   -0.9550 hn        1 16O      0.259000
     29 HO2         3.1320   -3.3460   -2.0380 ho        1 16O      0.226000
     30 H3          3.8140   -2.4420    0.6080 h1        1 16O      0.118000
     31 HO3         3.4370   -0.5870    1.5090 ho        1 16O      0.216000
     32 H4          2.6620   -3.1750    2.5200 h1        1 16O      0.100000
     33 HO4         2.9690   -5.0230    1.7920 ho        1 16O      0.213000
     34 H5          0.3040   -3.9940    2.3460 h1        1 16O      0.114000
     35 H6          1.0770   -1.3720    2.3560 h1        1 16O      0.107500
     36 H6A        -0.4610   -1.6990    2.1250 h1        1 16O      0.107500
     37 HO6        -0.5730   -1.8750    4.1200 ho        1 16O      0.201000
     38 H8         -3.2010    3.2220    1.2480 ha        1 16O      0.172000
     39 H10        -0.5180    4.1960   -0.4480 ha        1 16O      0.147000
     40 H11        -0.2910    5.5220   -2.3900 ha        1 16O      0.154000
     41 H13        -4.1180    4.4200   -3.5080 ha        1 16O      0.151000
     42 H14        -4.3200    3.0900   -1.5450 ha        1 16O      0.143000
@<TRIPOS>BOND
     1    1    2 1   
     2    1    5 1   
     3    1   14 1   
     4    1   25 1   
     5    2   17 1   
     6    2   26 1   
     7    3   17 1   
     8    4   22 1   
     9    5    7 1   
    10    5    8 1   
    11    5   27 1   
    12    6    9 1   
    13    6   17 1   
    14    6   28 1   
    15    7   29 1   
    16    8   10 1   
    17    8   11 1   
    18    8   30 1   
    19    9   18 1   
    20   10   31 1   
    21   11   12 1   
    22   11   13 1   
    23   11   32 1   
    24   12   33 1   
    25   13   14 1   
    26   13   15 1   
    27   13   34 1   
    28   15   16 1   
    29   15   35 1   
    30   15   36 1   
    31   16   37 1   
    32   18   38 1   
    33   19   20 1   
    34   19   24 1   
    35   20   21 1   
    36   20   39 1   
    37   21   40 1   
    38   22   23 1   
    39   23   41 1   
    40   24   42 1   
@<TRIPOS>SUBSTRUCTURE
     1 16O         1 TEMP              0 ****  ****    0 ROOT
