@<TRIPOS>MOLECULE
16O
   44    45     1     0     0
SMALL
bcc


@<TRIPOS>ATOM
      1 C1          0.2420   -0.2550    0.0440 c3        1 16O      0.342300
      2 N1         -0.0120   -0.4440   -1.4520 ny        1 16O     -0.603800
      3 S1         -2.5750   -1.0120   -0.8590 s         1 16O      0.295600
      4 Br1         0.5500    4.2860   -9.1880 br        1 16O      0.033900
      5 C2          1.7610   -0.3950    0.3350 c3        1 16O      0.111100
      6 N2         -1.5470   -1.1900   -3.2800 ny        1 16O     -0.307900
      7 O2          2.1150   -1.7030   -0.0550 oh        1 16O     -0.635800
      8 C3          1.9450   -0.1350    1.8410 c3        1 16O      0.117100
      9 N3         -0.9530   -0.2480   -4.1290 n2        1 16O     -0.658400
     10 O3          3.3370   -0.2090    2.0570 oh        1 16O     -0.589800
     11 C4          1.3970    1.2640    2.1910 c3        1 16O      0.080100
     12 O4          1.4440    1.3380    3.6020 oh        1 16O     -0.577800
     13 C5         -0.0630    1.4010    1.7290 c3        1 16O      0.088100
     14 O5         -0.1840    1.0620    0.3240 os        1 16O     -0.431600
     15 C6         -0.5730    2.8490    1.8060 c3        1 16O      0.137400
     16 O6         -1.9680    2.8680    1.6260 oh        1 16O     -0.587800
     17 C7         -1.3920   -0.8720   -1.7820 c         1 16O      0.005400
     18 C8         -1.6650    0.3580   -5.0640 ce        1 16O      0.609800
     19 C9         -1.0950    1.2840   -6.0080 ca        1 16O     -0.244900
     20 C10        -1.9730    1.9210   -6.9160 ca        1 16O     -0.039000
     21 C11        -1.4820    2.8140   -7.8560 ca        1 16O     -0.121500
     22 C12        -0.1060    3.0920   -7.9220 ca        1 16O      0.062100
     23 C13         0.7700    2.4580   -7.0260 ca        1 16O     -0.121500
     24 C14         0.2850    1.5650   -6.0800 ca        1 16O     -0.039000
     25 H1         -0.3600   -1.0270    0.6110 hx        1 16O      0.120700
     26 HN1         0.1830    0.4650   -1.9150 hn        1 16O      0.497300
     27 H2          2.3630    0.3550   -0.2520 h1        1 16O      0.095700
     28 HN2        -2.5670   -1.3470   -3.4260 hn        1 16O      0.465800
     29 HO2         2.9380   -1.9400    0.4080 ho        1 16O      0.487000
     30 H3          1.4140   -0.9200    2.4500 h1        1 16O      0.083700
     31 HO3         3.4880   -0.0620    3.0050 ho        1 16O      0.460000
     32 H4          2.0370    2.0550    1.7100 h1        1 16O      0.084700
     33 HO4         1.6220    2.2560    3.8490 ho        1 16O      0.439000
     34 H5         -0.7280    0.7160    2.3220 h1        1 16O      0.086700
     35 H6         -0.2570    3.2800    2.7920 h1        1 16O      0.081200
     36 H6A        -0.1470    3.4550    0.9610 h1        1 16O      0.081200
     37 HO6        -2.3840    2.8540    2.4980 ho        1 16O      0.426000
     38 H8         -2.7650    0.1820   -5.1980 h4        1 16O      0.031800
     39 H10        -3.0560    1.7130   -6.8830 ha        1 16O      0.151500
     40 H11        -2.1810    3.3040   -8.5590 ha        1 16O      0.185500
     41 H13         1.8540    2.6630   -7.0750 ha        1 16O      0.185500
     42 H14         0.9950    1.0730   -5.3970 ha        1 16O      0.151500
     43 H12         0.6810   -1.1390   -1.7850 hn        1 16O      0.497300
     44 H22        -1.0530   -2.0860   -3.4690 hn        1 16O      0.465800
@<TRIPOS>BOND
     1    1    2 1   
     2    1    5 1   
     3    1   14 1   
     4    1   25 1   
     5    2   17 1   
     6    2   26 1   
     7    2   43 1   
     8    3   17 2   
     9    4   22 1   
    10    5    7 1   
    11    5    8 1   
    12    5   27 1   
    13    6    9 1   
    14    6   17 1   
    15    6   28 1   
    16    6   44 1   
    17    7   29 1   
    18    8   10 1   
    19    8   11 1   
    20    8   30 1   
    21    9   18 2   
    22   10   31 1   
    23   11   12 1   
    24   11   13 1   
    25   11   32 1   
    26   12   33 1   
    27   13   14 1   
    28   13   15 1   
    29   13   34 1   
    30   15   16 1   
    31   15   35 1   
    32   15   36 1   
    33   16   37 1   
    34   18   19 1   
    35   18   38 1   
    36   19   20 ar  
    37   19   24 ar  
    38   20   21 ar  
    39   20   39 1   
    40   21   22 ar  
    41   21   40 1   
    42   22   23 ar  
    43   23   24 ar  
    44   23   41 1   
    45   24   42 1   
@<TRIPOS>SUBSTRUCTURE
     1 16O         1 TEMP              0 ****  ****    0 ROOT
