@<TRIPOS>MOLECULE
16O
   44    44     1     0     0
SMALL
bcc


@<TRIPOS>ATOM
      1 C1        -38.7690 -266.0920  613.9840 c3        1 16O      0.050000
      2 N1        -37.2710 -266.0940  614.0980 n4        1 16O     -0.077000
      3 S1        -35.5820 -264.1440  613.7620 s         1 16O      0.084000
      4 BR1        84.8950  572.9010-1318.8280 br        1 16O      0.272000
      5 C2        -39.2810 -267.2770  613.1220 c3        1 16O      0.001000
      6 N2        -37.1570 -264.4160  615.8720 n         1 16O     -0.326000
      7 O2        -38.7140 -267.1060  611.8420 oh        1 16O     -0.344000
      8 C3        -40.8170 -267.2030  613.1070 c3        1 16O      0.003000
      9 N3         83.7500  574.3820-1325.4830 n1        1 16O      0.113000
     10 O3        -41.2420 -268.3400  612.3850 oh        1 16O     -0.320000
     11 C4        -41.3560 -267.2320  614.5530 c3        1 16O     -0.030000
     12 O4        -42.7450 -266.9860  614.4380 oh        1 16O     -0.310000
     13 C5        -40.6950 -266.1200  615.3820 c3        1 16O     -0.028000
     14 O5        -39.2620 -266.2420  615.3100 os        1 16O     -0.294000
     15 C6        -40.9990 -266.2270  616.8830 c3        1 16O     -0.018000
     16 O6        -40.4310 -265.1280  617.5580 oh        1 16O     -0.319000
     17 C7        -36.6760 -264.8010  614.6650 c2        1 16O     -0.023000
     18 C8         84.3800  573.9590-1324.6040 c1        1 16O     -0.188000
     19 C9         85.1720  573.4300-1323.5120 c3        1 16O     -0.040000
     20 C10        84.5280  572.2530-1322.8770 c2        1 16O      0.056000
     21 C11        84.4860  572.1050-1321.5180 c2        1 16O     -0.202000
     22 C12        84.9830  573.1170-1320.6550 c2        1 16O      0.071000
     23 C13        85.5290  574.3040-1321.2090 c2        1 16O     -0.202000
     24 C14        85.5900  574.4900-1322.5610 c2        1 16O      0.056000
     25 H1        -39.0860 -265.1030  613.5350 hx        1 16O      0.158000
     26 HN1       -36.9860 -266.8920  614.6780 hn        1 16O      0.275000
     27 H2        -38.9550 -268.2640  613.5570 h1        1 16O      0.125000
     28 HN2       -37.9060 -264.8760  616.3500 hn        1 16O      0.284000
     29 HO2       -39.2160 -267.6620  611.2240 ho        1 16O      0.268000
     30 H3        -41.1630 -266.2640  612.5890 h1        1 16O      0.119000
     31 HO3       -42.2100 -268.3090  612.3550 ho        1 16O      0.247000
     32 H4        -41.1530 -268.2370  615.0140 h1        1 16O      0.119000
     33 HO4       -43.1760 -267.3780  615.2090 ho        1 16O      0.227000
     34 H5        -41.0010 -265.1110  614.9900 h1        1 16O      0.117000
     35 H6        -42.1100 -266.2870  617.0200 h1        1 16O      0.117000
     36 H6A       -40.5000 -267.1350  617.3190 h1        1 16O      0.117000
     37 HO6       -41.0760 -264.4090  617.5540 ho        1 16O      0.217000
     38 H8         86.1560  573.0270-1323.9720 hc        1 16O      0.239000
     39 H10        84.1060  571.4830-1323.5530 ha        1 16O      0.204000
     40 H11        84.0370  571.1910-1321.0790 ha        1 16O      0.209000
     41 H13        85.8920  575.1010-1320.5280 ha        1 16O      0.209000
     42 H14        85.9800  575.4310-1322.9970 ha        1 16O      0.204000
     43 H12       -36.8810 -266.2070  613.1400 hn        1 16O      0.275000
     44 H22       -36.7670 -263.5940  616.2840 hn        1 16O      0.284000
@<TRIPOS>BOND
     1    1    2 1   
     2    1    5 1   
     3    1   14 1   
     4    1   25 1   
     5    2   17 1   
     6    2   26 1   
     7    2   43 1   
     8    3   17 1   
     9    4   22 1   
    10    5    7 1   
    11    5    8 1   
    12    5   27 1   
    13    6   17 1   
    14    6   28 1   
    15    6   44 1   
    16    7   29 1   
    17    8   10 1   
    18    8   11 1   
    19    8   30 1   
    20    9   18 1   
    21   10   31 1   
    22   11   12 1   
    23   11   13 1   
    24   11   32 1   
    25   12   33 1   
    26   13   14 1   
    27   13   15 1   
    28   13   34 1   
    29   15   16 1   
    30   15   35 1   
    31   15   36 1   
    32   16   37 1   
    33   18   19 1   
    34   19   20 1   
    35   19   24 1   
    36   19   38 1   
    37   20   21 1   
    38   20   39 1   
    39   21   22 1   
    40   21   40 1   
    41   22   23 1   
    42   23   24 1   
    43   23   41 1   
    44   24   42 1   
@<TRIPOS>SUBSTRUCTURE
     1 16O         1 TEMP              0 ****  ****    0 ROOT
