@<TRIPOS>MOLECULE
16O
   42    43     1     0     0
SMALL
bcc


@<TRIPOS>ATOM
      1 C1         -3.3210   -0.1290    0.6660 c3        1 16O      0.238500
      2 N1         -1.9700   -0.6170    0.8700 n         1 16O     -0.482900
      3 S1         -2.8710   -3.0850    1.2830 s         1 16O     -0.522400
      4 BR1         6.8320    0.9450   -1.1890 br        1 16O     -0.078100
      5 C2         -3.6270    1.1080    1.5570 c3        1 16O      0.090100
      6 N2         -0.4440   -2.4920    0.6750 n         1 16O     -0.293900
      7 O2         -3.6890    0.7620    2.9280 oh        1 16O     -0.596800
      8 C3         -5.0280    1.6370    1.2050 c3        1 16O      0.109100
      9 N3          0.6090   -1.7350    0.3740 n2        1 16O     -0.475300
     10 O3         -5.2810    2.8600    1.8730 oh        1 16O     -0.605800
     11 C4         -5.1170    1.9370   -0.3000 c3        1 16O      0.122100
     12 O4         -6.4470    2.2570   -0.6640 oh        1 16O     -0.592800
     13 C5         -4.7180    0.6850   -1.0950 c3        1 16O      0.108100
     14 O5         -3.4030    0.2700   -0.7180 os        1 16O     -0.455600
     15 C6         -4.6410    0.9900   -2.5940 c3        1 16O      0.140400
     16 O6         -4.4500   -0.1850   -3.3480 oh        1 16O     -0.591800
     17 C7         -1.7440   -1.9890    0.9030 c         1 16O      0.579400
     18 C8          1.7990   -2.2640    0.2470 ce        1 16O      0.392800
     19 C9          2.9720   -1.4580   -0.1030 ca        1 16O     -0.118900
     20 C10         4.2380   -2.0540    0.0160 ca        1 16O     -0.105000
     21 C11         5.3870   -1.3380   -0.3060 ca        1 16O     -0.107500
     22 C12         5.2870   -0.0170   -0.7550 ca        1 16O     -0.015900
     23 C13         4.0300    0.5800   -0.8780 ca        1 16O     -0.107500
     24 C14         2.8780   -0.1360   -0.5540 ca        1 16O     -0.105000
     25 H1         -4.0690   -0.9560    0.8800 h2        1 16O      0.123700
     26 HN1        -1.2660   -0.0210    0.4810 hn        1 16O      0.324500
     27 H2         -2.8600    1.9150    1.3940 h1        1 16O      0.061700
     28 HN2        -0.3590   -3.4840    0.8520 hn        1 16O      0.341500
     29 HO2        -2.8320    0.3960    3.1780 ho        1 16O      0.423000
     30 H3         -5.8050    0.8770    1.4990 h1        1 16O      0.070700
     31 HO3        -5.1890    2.6830    2.8190 ho        1 16O      0.429000
     32 H4         -4.4340    2.7960   -0.5520 h1        1 16O      0.061700
     33 HO4        -6.7220    2.9790   -0.0820 ho        1 16O      0.427000
     34 H5         -5.4490   -0.1480   -0.9050 h1        1 16O      0.078700
     35 H6         -5.6280    1.4080   -2.9300 h1        1 16O      0.065200
     36 H6A        -3.8160    1.7240   -2.7930 h1        1 16O      0.065200
     37 HO6        -3.6290   -0.5900   -3.0420 ho        1 16O      0.409000
     38 H8          2.0180   -3.3460    0.3940 h4        1 16O     -0.000200
     39 H10         4.3280   -3.0930    0.3680 ha        1 16O      0.145000
     40 H11         6.3720   -1.8200   -0.2050 ha        1 16O      0.151000
     41 H13         3.9380    1.6190   -1.2320 ha        1 16O      0.151000
     42 H14         1.8970    0.3510   -0.6590 ha        1 16O      0.145000
@<TRIPOS>BOND
     1    1    2 1   
     2    1    5 1   
     3    1   14 1   
     4    1   25 1   
     5    2   17 1   
     6    2   26 1   
     7    3   17 2   
     8    4   22 1   
     9    5    7 1   
    10    5    8 1   
    11    5   27 1   
    12    6    9 1   
    13    6   17 1   
    14    6   28 1   
    15    7   29 1   
    16    8   10 1   
    17    8   11 1   
    18    8   30 1   
    19    9   18 2   
    20   10   31 1   
    21   11   12 1   
    22   11   13 1   
    23   11   32 1   
    24   12   33 1   
    25   13   14 1   
    26   13   15 1   
    27   13   34 1   
    28   15   16 1   
    29   15   35 1   
    30   15   36 1   
    31   16   37 1   
    32   18   19 1   
    33   18   38 1   
    34   19   20 ar  
    35   19   24 ar  
    36   20   21 ar  
    37   20   39 1   
    38   21   22 ar  
    39   21   40 1   
    40   22   23 ar  
    41   23   24 ar  
    42   23   41 1   
    43   24   42 1   
@<TRIPOS>SUBSTRUCTURE
     1 16O         1 TEMP              0 ****  ****    0 ROOT
