@<TRIPOS>MOLECULE
16P
   50    49     1     0     0
SMALL
bcc


@<TRIPOS>ATOM
      1 C1         -0.3840    2.5650    0.0350 c3        1 16P     -0.097100
      2 C2         -0.2250    1.0640    0.0870 c3        1 16P      0.131400
      3 O1          1.1460    0.8020    0.3830 os        1 16P     -0.428600
      4 C3          1.4290   -0.5940    0.4420 c3        1 16P      0.126400
      5 C4          2.8730   -0.7220    0.9160 c3        1 16P      0.127400
      6 O2          2.8190   -1.2870    2.2250 os        1 16P     -0.429600
      7 C5          4.0980   -1.3080    2.8570 c3        1 16P      0.127400
      8 C6          3.9260   -2.0880    4.1560 c3        1 16P      0.127400
      9 O3          4.5670   -3.3470    3.9600 os        1 16P     -0.429600
     10 C7          4.3420   -4.2420    5.0470 c3        1 16P      0.127400
     11 C8          5.2210   -5.4620    4.7930 c3        1 16P      0.127400
     12 O4          6.2870   -5.3970    5.7380 os        1 16P     -0.429600
     13 C9          7.2770   -6.3960    5.5040 c3        1 16P      0.127400
     14 C10         8.2500   -6.3260    6.6760 c3        1 16P      0.127400
     15 O5          8.0030   -7.4800    7.4770 os        1 16P     -0.429600
     16 C11         8.7410   -7.4570    8.6980 c3        1 16P      0.127400
     17 C12         8.5270   -8.8160    9.3570 c3        1 16P      0.126400
     18 O6          9.7830   -9.4900    9.3080 os        1 16P     -0.428600
     19 C13         9.6910  -10.8380    9.7670 c3        1 16P      0.131400
     20 C14        11.0800  -11.4250    9.6840 c3        1 16P     -0.097100
     21 H11        -1.4470    2.8170   -0.1910 hc        1 16P      0.045033
     22 H12        -0.1000    3.0200    1.0140 hc        1 16P      0.045033
     23 H13         0.2720    2.9990   -0.7560 hc        1 16P      0.045033
     24 H21        -0.4910    0.5950   -0.8990 h1        1 16P      0.024700
     25 H22        -0.8730    0.6160    0.8870 h1        1 16P      0.024700
     26 H31         0.7290   -1.1040    1.1550 h1        1 16P      0.041700
     27 H32         1.3120   -1.0370   -0.5820 h1        1 16P      0.041700
     28 H41         3.4500   -1.4090    0.2430 h1        1 16P      0.043200
     29 H42         3.3730    0.2820    0.9470 h1        1 16P      0.043200
     30 H51         4.8520   -1.8040    2.1900 h1        1 16P      0.043200
     31 H52         4.4190   -0.2550    3.0720 h1        1 16P      0.043200
     32 H61         4.4240   -1.5500    5.0040 h1        1 16P      0.043200
     33 H62         2.8390   -2.2380    4.3900 h1        1 16P      0.043200
     34 H71         3.2590   -4.5360    5.0640 h1        1 16P      0.043700
     35 H72         4.6140   -3.7500    6.0190 h1        1 16P      0.043700
     36 H81         5.6270   -5.4500    3.7470 h1        1 16P      0.043700
     37 H82         4.6380   -6.4060    4.9610 h1        1 16P      0.043700
     38 H91         6.7990   -7.4100    5.4430 h1        1 16P      0.043200
     39 H92         7.8080   -6.1710    4.5410 h1        1 16P      0.043200
     40 H101        8.0820   -5.3930    7.2770 h1        1 16P      0.043200
     41 H102        9.3090   -6.3530    6.3080 h1        1 16P      0.043200
     42 H111        9.8300   -7.2820    8.4910 h1        1 16P      0.043200
     43 H112        8.3440   -6.6360    9.3510 h1        1 16P      0.043200
     44 H121        8.2170   -8.6900   10.4270 h1        1 16P      0.041700
     45 H122        7.7470   -9.4070    8.8070 h1        1 16P      0.041700
     46 H131        9.3100  -10.8490   10.8230 h1        1 16P      0.024700
     47 H132        8.9720  -11.4060    9.1170 h1        1 16P      0.024700
     48 H141       11.0550  -12.4850   10.0300 hc        1 16P      0.045033
     49 H142       11.7870  -10.8460   10.3250 hc        1 16P      0.045033
     50 H143       11.4540  -11.3920    8.6320 hc        1 16P      0.045033
@<TRIPOS>BOND
     1    1    2 1   
     2    1   21 1   
     3    1   22 1   
     4    1   23 1   
     5    2    3 1   
     6    2   24 1   
     7    2   25 1   
     8    3    4 1   
     9    4    5 1   
    10    4   26 1   
    11    4   27 1   
    12    5    6 1   
    13    5   28 1   
    14    5   29 1   
    15    6    7 1   
    16    7    8 1   
    17    7   30 1   
    18    7   31 1   
    19    8    9 1   
    20    8   32 1   
    21    8   33 1   
    22    9   10 1   
    23   10   11 1   
    24   10   34 1   
    25   10   35 1   
    26   11   12 1   
    27   11   36 1   
    28   11   37 1   
    29   12   13 1   
    30   13   14 1   
    31   13   38 1   
    32   13   39 1   
    33   14   15 1   
    34   14   40 1   
    35   14   41 1   
    36   15   16 1   
    37   16   17 1   
    38   16   42 1   
    39   16   43 1   
    40   17   18 1   
    41   17   44 1   
    42   17   45 1   
    43   18   19 1   
    44   19   20 1   
    45   19   46 1   
    46   19   47 1   
    47   20   48 1   
    48   20   49 1   
    49   20   50 1   
@<TRIPOS>SUBSTRUCTURE
     1 16P         1 TEMP              0 ****  ****    0 ROOT
