@<TRIPOS>MOLECULE
16P
   50    49     1     0     0
SMALL
bcc


@<TRIPOS>ATOM
      1 C1         -0.2590    1.9660   -1.2740 c3        1 16P     -0.097100
      2 C2         -0.3180    1.0130   -0.1020 c3        1 16P      0.132400
      3 O1          1.0160    0.8770    0.3870 os        1 16P     -0.428600
      4 C3          1.0880   -0.0050    1.5040 c3        1 16P      0.128400
      5 C4          2.5610   -0.0550    1.8990 c3        1 16P      0.129400
      6 O2          2.6220   -0.8700    3.0670 os        1 16P     -0.430600
      7 C5          3.9540   -0.9980    3.5610 c3        1 16P      0.129400
      8 C6          3.8940   -2.0030    4.7060 c3        1 16P      0.127400
      9 O3          4.5290   -3.1900    4.2360 os        1 16P     -0.428600
     10 C7          4.3980   -4.2730    5.1540 c3        1 16P      0.127400
     11 C8          5.2680   -5.4050    4.6170 c3        1 16P      0.127400
     12 O4          6.4090   -5.4780    5.4690 os        1 16P     -0.428600
     13 C9          7.3900   -6.3900    4.9810 c3        1 16P      0.127400
     14 C10         8.4540   -6.5030    6.0670 c3        1 16P      0.129400
     15 O5          8.3100   -7.8030    6.6380 os        1 16P     -0.430600
     16 C11         9.1640   -7.9890    7.7650 c3        1 16P      0.129400
     17 C12         8.9060   -9.4130    8.2500 c3        1 16P      0.128400
     18 O6          9.8180   -9.6280    9.3230 os        1 16P     -0.428600
     19 C13         9.6810  -10.9320    9.8890 c3        1 16P      0.132400
     20 C14        10.6950  -11.0320   11.0050 c3        1 16P     -0.097100
     21 H11        -1.2850    2.1020   -1.6900 hc        1 16P      0.045367
     22 H12         0.1410    2.9560   -0.9500 hc        1 16P      0.045367
     23 H13         0.4100    1.5610   -2.0710 hc        1 16P      0.045367
     24 H21        -0.7050    0.0070   -0.4170 h1        1 16P      0.025700
     25 H22        -0.9760    1.4150    0.7140 h1        1 16P      0.025700
     26 H31         0.4640    0.3900    2.3480 h1        1 16P      0.038950
     27 H32         0.7200   -1.0240    1.2160 h1        1 16P      0.038950
     28 H41         3.1770   -0.5080    1.0790 h1        1 16P      0.040700
     29 H42         2.9460    0.9740    2.1260 h1        1 16P      0.040700
     30 H51         4.6370   -1.3600    2.7470 h1        1 16P      0.044700
     31 H52         4.3060    0.0000    3.9330 h1        1 16P      0.044700
     32 H61         4.4540   -1.6150    5.5980 h1        1 16P      0.043700
     33 H62         2.8300   -2.2190    4.9920 h1        1 16P      0.043700
     34 H71         3.3230   -4.5920    5.1960 h1        1 16P      0.043700
     35 H72         4.7390   -3.9600    6.1760 h1        1 16P      0.043700
     36 H81         5.5840   -5.1970    3.5610 h1        1 16P      0.043700
     37 H82         4.7130   -6.3790    4.6600 h1        1 16P      0.043700
     38 H91         6.9230   -7.3890    4.7740 h1        1 16P      0.043700
     39 H92         7.8360   -5.9800    4.0370 h1        1 16P      0.043700
     40 H101        8.3070   -5.7160    6.8540 h1        1 16P      0.044700
     41 H102        9.4800   -6.4080    5.6240 h1        1 16P      0.044700
     42 H111       10.2360   -7.8620    7.4620 h1        1 16P      0.040700
     43 H112        8.9130   -7.2460    8.5660 h1        1 16P      0.040700
     44 H121        7.8500   -9.5240    8.6100 h1        1 16P      0.038950
     45 H122        9.0960  -10.1520    7.4280 h1        1 16P      0.038950
     46 H131        8.6360  -11.0620   10.2770 h1        1 16P      0.025700
     47 H132        9.8730  -11.7040    9.0960 h1        1 16P      0.025700
     48 H141       10.6230  -12.0400   11.4780 hc        1 16P      0.045367
     49 H142       10.5020  -10.2490   11.7770 hc        1 16P      0.045367
     50 H143       11.7270  -10.8860   10.6070 hc        1 16P      0.045367
@<TRIPOS>BOND
     1    1    2 1   
     2    1   21 1   
     3    1   22 1   
     4    1   23 1   
     5    2    3 1   
     6    2   24 1   
     7    2   25 1   
     8    3    4 1   
     9    4    5 1   
    10    4   26 1   
    11    4   27 1   
    12    5    6 1   
    13    5   28 1   
    14    5   29 1   
    15    6    7 1   
    16    7    8 1   
    17    7   30 1   
    18    7   31 1   
    19    8    9 1   
    20    8   32 1   
    21    8   33 1   
    22    9   10 1   
    23   10   11 1   
    24   10   34 1   
    25   10   35 1   
    26   11   12 1   
    27   11   36 1   
    28   11   37 1   
    29   12   13 1   
    30   13   14 1   
    31   13   38 1   
    32   13   39 1   
    33   14   15 1   
    34   14   40 1   
    35   14   41 1   
    36   15   16 1   
    37   16   17 1   
    38   16   42 1   
    39   16   43 1   
    40   17   18 1   
    41   17   44 1   
    42   17   45 1   
    43   18   19 1   
    44   19   20 1   
    45   19   46 1   
    46   19   47 1   
    47   20   48 1   
    48   20   49 1   
    49   20   50 1   
@<TRIPOS>SUBSTRUCTURE
     1 16P         1 TEMP              0 ****  ****    0 ROOT
