@<TRIPOS>MOLECULE
16P
   50    49     1     0     0
SMALL
bcc


@<TRIPOS>ATOM
      1 C1         -7.4690    7.0060   -4.9670 c3        1 16P     -0.097100
      2 C2         -7.2540    5.5510   -4.5820 c3        1 16P      0.132400
      3 O1         -5.9130    5.3680   -4.1410 os        1 16P     -0.428600
      4 C3         -5.6600    4.0760   -3.5840 c3        1 16P      0.128400
      5 C4         -4.1600    3.9020   -3.3550 c3        1 16P      0.129400
      6 O2         -3.9400    2.8590   -2.3830 os        1 16P     -0.430600
      7 C5         -2.5660    2.4140   -2.2980 c3        1 16P      0.129400
      8 C6         -2.3610    1.6310   -0.9930 c3        1 16P      0.127400
      9 O3         -1.1770    0.8300   -1.0940 os        1 16P     -0.428600
     10 C7         -0.6920    0.3530    0.1680 c3        1 16P      0.127400
     11 C8          0.2390   -0.8640   -0.0600 c3        1 16P      0.127400
     12 O4          1.2490   -0.8990    0.9750 os        1 16P     -0.428600
     13 C9          1.8600   -2.2070    1.1600 c3        1 16P      0.127400
     14 C10         3.2230   -2.0440    1.8710 c3        1 16P      0.129400
     15 O5          3.5470   -3.2320    2.5370 os        1 16P     -0.430600
     16 C11         4.8950   -3.3220    2.9150 c3        1 16P      0.129400
     17 C12         5.0600   -4.4240    3.9510 c3        1 16P      0.128400
     18 O6          6.3850   -4.9370    3.8890 os        1 16P     -0.428600
     19 C13         6.7520   -5.7230    5.0160 c3        1 16P      0.132400
     20 C14         8.1050   -6.4010    4.7500 c3        1 16P     -0.097100
     21 H11        -6.7690    7.2860   -5.5820 hc        1 16P      0.045367
     22 H12        -8.3520    7.1040   -5.4050 hc        1 16P      0.045367
     23 H13        -7.4400    7.5690   -4.1570 hc        1 16P      0.045367
     24 H21        -7.4250    4.9740   -5.3670 h1        1 16P      0.025700
     25 H22        -7.8740    5.3090   -3.8550 h1        1 16P      0.025700
     26 H31        -5.9730    3.3960   -4.1930 h1        1 16P      0.038700
     27 H32        -6.1280    3.9920   -2.7360 h1        1 16P      0.038700
     28 H41        -3.7800    4.7420   -3.0240 h1        1 16P      0.040700
     29 H42        -3.7260    3.6580   -4.2010 h1        1 16P      0.040700
     30 H51        -1.9790    3.1800   -2.3100 h1        1 16P      0.044700
     31 H52        -2.3620    1.8340   -3.0640 h1        1 16P      0.044700
     32 H61        -3.1320    1.0530   -0.8360 h1        1 16P      0.043700
     33 H62        -2.2670    2.2570   -0.2490 h1        1 16P      0.043700
     34 H71        -1.4520    0.0830    0.7300 h1        1 16P      0.043700
     35 H72        -0.1990    1.0570    0.6100 h1        1 16P      0.043700
     36 H81         0.6690   -0.7850   -0.9300 h1        1 16P      0.043700
     37 H82        -0.2890   -1.6890   -0.0300 h1        1 16P      0.043700
     38 H91         1.2680   -2.7720    1.7110 h1        1 16P      0.043700
     39 H92         1.9950   -2.6310    0.2870 h1        1 16P      0.043700
     40 H101        3.1670   -1.3070    2.5230 h1        1 16P      0.044700
     41 H102        3.9170   -1.8420    1.2070 h1        1 16P      0.044700
     42 H111        5.4400   -3.5280    2.1300 h1        1 16P      0.040700
     43 H112        5.1850   -2.4660    3.2990 h1        1 16P      0.040700
     44 H121        4.4210   -5.1460    3.7650 h1        1 16P      0.038700
     45 H122        4.8920   -4.0620    4.8420 h1        1 16P      0.038700
     46 H131        6.8240   -5.1530    5.8000 h1        1 16P      0.025700
     47 H132        6.0660   -6.4120    5.1740 h1        1 16P      0.025700
     48 H141        8.3970   -6.8860    5.5620 hc        1 16P      0.045367
     49 H142        8.0140   -7.0350    4.0050 hc        1 16P      0.045367
     50 H143        8.7740   -5.7180    4.5190 hc        1 16P      0.045367
@<TRIPOS>BOND
     1    1    2 1   
     2    1   21 1   
     3    1   22 1   
     4    1   23 1   
     5    2    3 1   
     6    2   24 1   
     7    2   25 1   
     8    3    4 1   
     9    4    5 1   
    10    4   26 1   
    11    4   27 1   
    12    5    6 1   
    13    5   28 1   
    14    5   29 1   
    15    6    7 1   
    16    7    8 1   
    17    7   30 1   
    18    7   31 1   
    19    8    9 1   
    20    8   32 1   
    21    8   33 1   
    22    9   10 1   
    23   10   11 1   
    24   10   34 1   
    25   10   35 1   
    26   11   12 1   
    27   11   36 1   
    28   11   37 1   
    29   12   13 1   
    30   13   14 1   
    31   13   38 1   
    32   13   39 1   
    33   14   15 1   
    34   14   40 1   
    35   14   41 1   
    36   15   16 1   
    37   16   17 1   
    38   16   42 1   
    39   16   43 1   
    40   17   18 1   
    41   17   44 1   
    42   17   45 1   
    43   18   19 1   
    44   19   20 1   
    45   19   46 1   
    46   19   47 1   
    47   20   48 1   
    48   20   49 1   
    49   20   50 1   
@<TRIPOS>SUBSTRUCTURE
     1 16P         1 TEMP              0 ****  ****    0 ROOT
