@<TRIPOS>MOLECULE
16P
   50    49     1     0     0
SMALL
bcc


@<TRIPOS>ATOM
      1 C1         10.2350   -0.5940   -0.0100 c3        1 16P     -0.097100
      2 C2          9.1340    0.0660    0.7870 c3        1 16P      0.131400
      3 O1          8.0600    0.3160   -0.1170 os        1 16P     -0.428600
      4 C3          6.9580    0.9590    0.5170 c3        1 16P      0.126400
      5 C4          5.8380    1.0190   -0.5170 c3        1 16P      0.127400
      6 O2          4.8150    0.1390   -0.0560 os        1 16P     -0.429600
      7 C5          3.7740   -0.0290   -1.0160 c3        1 16P      0.127400
      8 C6          2.6790   -0.8390   -0.3310 c3        1 16P      0.127400
      9 O3          1.6050    0.0640   -0.0770 os        1 16P     -0.429600
     10 C7          0.5740   -0.5300    0.7080 c3        1 16P      0.127400
     11 C8         -0.5740    0.4730    0.7480 c3        1 16P      0.127400
     12 O4         -1.6050   -0.0580   -0.0820 os        1 16P     -0.429600
     13 C9         -2.6790    0.8630   -0.2650 c3        1 16P      0.127400
     14 C10        -3.7740    0.1090   -1.0120 c3        1 16P      0.127400
     15 O5         -4.8150   -0.1340   -0.0680 os        1 16P     -0.429600
     16 C11        -5.8380   -0.9750   -0.5970 c3        1 16P      0.127400
     17 C12        -6.9580   -0.9970    0.4390 c3        1 16P      0.126400
     18 O6         -8.0600   -0.3060   -0.1430 os        1 16P     -0.428600
     19 C13        -9.1350   -0.1290    0.7780 c3        1 16P      0.131400
     20 C14       -10.2350    0.5930    0.0350 c3        1 16P     -0.097100
     21 H11        11.0980   -0.8110    0.6620 hc        1 16P      0.045033
     22 H12         9.8700   -1.5480   -0.4600 hc        1 16P      0.045033
     23 H13        10.5730    0.0760   -0.8370 hc        1 16P      0.045033
     24 H21         8.7780   -0.6030    1.6160 h1        1 16P      0.024700
     25 H22         9.4830    1.0380    1.2310 h1        1 16P      0.024700
     26 H31         6.6340    0.3770    1.4210 h1        1 16P      0.041700
     27 H32         7.2620    1.9940    0.8270 h1        1 16P      0.041700
     28 H41         5.4230    2.0590   -0.5890 h1        1 16P      0.043200
     29 H42         6.2080    0.6910   -1.5240 h1        1 16P      0.043200
     30 H51         3.3840    0.9710   -1.3450 h1        1 16P      0.043200
     31 H52         4.1770   -0.5860   -1.9030 h1        1 16P      0.043200
     32 H61         2.3180   -1.6590   -1.0070 h1        1 16P      0.043200
     33 H62         3.0520   -1.2800    0.6310 h1        1 16P      0.043200
     34 H71         0.2420   -1.4980    0.2460 h1        1 16P      0.043700
     35 H72         0.9630   -0.7210    1.7430 h1        1 16P      0.043700
     36 H81        -0.9630    0.5820    1.7940 h1        1 16P      0.043700
     37 H82        -0.2420    1.4740    0.3630 h1        1 16P      0.043700
     38 H91        -3.0520    1.2260    0.7300 h1        1 16P      0.043200
     39 H92        -2.3180    1.7330   -0.8730 h1        1 16P      0.043200
     40 H101       -4.1770    0.7340   -1.8510 h1        1 16P      0.043200
     41 H102       -3.3830   -0.8620   -1.4180 h1        1 16P      0.043200
     42 H111       -6.2080   -0.5680   -1.5750 h1        1 16P      0.043200
     43 H112       -5.4230   -2.0060   -0.7510 h1        1 16P      0.043200
     44 H121       -7.2620   -2.0530    0.6650 h1        1 16P      0.041700
     45 H122       -6.6350   -0.4880    1.3850 h1        1 16P      0.041700
     46 H131       -9.4830   -1.1320    1.1430 h1        1 16P      0.024700
     47 H132       -8.7780    0.4730    1.6570 h1        1 16P      0.024700
     48 H141      -11.0990    0.7570    0.7220 hc        1 16P      0.045033
     49 H142       -9.8700    1.5790   -0.3380 hc        1 16P      0.045033
     50 H143      -10.5730   -0.0100   -0.8420 hc        1 16P      0.045033
@<TRIPOS>BOND
     1    1    2 1   
     2    1   21 1   
     3    1   22 1   
     4    1   23 1   
     5    2    3 1   
     6    2   24 1   
     7    2   25 1   
     8    3    4 1   
     9    4    5 1   
    10    4   26 1   
    11    4   27 1   
    12    5    6 1   
    13    5   28 1   
    14    5   29 1   
    15    6    7 1   
    16    7    8 1   
    17    7   30 1   
    18    7   31 1   
    19    8    9 1   
    20    8   32 1   
    21    8   33 1   
    22    9   10 1   
    23   10   11 1   
    24   10   34 1   
    25   10   35 1   
    26   11   12 1   
    27   11   36 1   
    28   11   37 1   
    29   12   13 1   
    30   13   14 1   
    31   13   38 1   
    32   13   39 1   
    33   14   15 1   
    34   14   40 1   
    35   14   41 1   
    36   15   16 1   
    37   16   17 1   
    38   16   42 1   
    39   16   43 1   
    40   17   18 1   
    41   17   44 1   
    42   17   45 1   
    43   18   19 1   
    44   19   20 1   
    45   19   46 1   
    46   19   47 1   
    47   20   48 1   
    48   20   49 1   
    49   20   50 1   
@<TRIPOS>SUBSTRUCTURE
     1 16P         1 TEMP              0 ****  ****    0 ROOT
