@<TRIPOS>MOLECULE
16Q
   19    19     1     0     0
SMALL
bcc


@<TRIPOS>ATOM
      1 C9          3.6390    0.1270    0.0000 c3        1 16Q     -0.100100
      2 C8          2.2740   -0.5210   -0.0000 c3        1 16Q      0.128400
      3 O7          1.3270    0.5540    0.0010 os        1 16Q     -0.332900
      4 C1         -0.0040    0.1880    0.0000 ca        1 16Q      0.128100
      5 C2         -0.4690   -1.1330   -0.0000 ca        1 16Q     -0.182000
      6 C6         -0.9100    1.2680    0.0010 ca        1 16Q     -0.182000
      7 C5         -2.2740    1.0070    0.0010 ca        1 16Q     -0.097000
      8 C4         -2.7460   -0.3080    0.0000 ca        1 16Q     -0.166000
      9 C3         -1.8440   -1.3690   -0.0010 ca        1 16Q     -0.097000
     10 H1          3.7680    0.7680   -0.9040 hc        1 16Q      0.048700
     11 H2          3.7680    0.7670    0.9050 hc        1 16Q      0.048700
     12 H3          4.4210   -0.6690   -0.0000 hc        1 16Q      0.048700
     13 H4          2.1230   -1.1500   -0.9170 h1        1 16Q      0.037700
     14 H5          2.1230   -1.1510    0.9160 h1        1 16Q      0.037700
     15 H6          0.2290   -1.9810   -0.0010 ha        1 16Q      0.141500
     16 H7         -0.5230    2.2960    0.0020 ha        1 16Q      0.141500
     17 H8         -2.9870    1.8450    0.0020 ha        1 16Q      0.131500
     18 H9         -3.8280   -0.5040    0.0000 ha        1 16Q      0.132000
     19 H10        -2.2130   -2.4050   -0.0010 ha        1 16Q      0.131500
@<TRIPOS>BOND
     1    1    2 1   
     2    1   10 1   
     3    1   11 1   
     4    1   12 1   
     5    2    3 1   
     6    2   13 1   
     7    2   14 1   
     8    3    4 1   
     9    4    5 ar  
    10    4    6 ar  
    11    5    9 ar  
    12    5   15 1   
    13    6    7 ar  
    14    6   16 1   
    15    7    8 ar  
    16    7   17 1   
    17    8    9 ar  
    18    8   18 1   
    19    9   19 1   
@<TRIPOS>SUBSTRUCTURE
     1 16Q         1 TEMP              0 ****  ****    0 ROOT
