@<TRIPOS>MOLECULE
16Q
   19    16     1     0     0
SMALL
bcc


@<TRIPOS>ATOM
      1 C9         -3.2100   -0.0000   -0.9250 c3        1 16Q     -0.100100
      2 C8         -1.6960   -0.0000   -0.9250 c3        1 16Q      0.128400
      3 O7         -1.2260   -0.0000    0.4040 os        1 16Q     -0.316400
      4 C1          0.1750   -0.0000    0.5120 c1        1 16Q      0.111600
      5 C2          0.8600    1.1980    0.6410 c1        1 16Q     -0.072000
      6 C6          0.8720   -1.1980    0.4900 c1        1 16Q     -0.148500
      7 C5          2.2540   -1.1980    0.5970 c1        1 16Q     -0.072000
      8 C4          2.9390    0.0010    0.7260 c1        1 16Q     -0.072000
      9 C3          2.2410    1.1980    0.7480 c1        1 16Q     -0.072000
     10 H1         -3.5350   -0.8330   -0.5340 hc        1 16Q      0.048700
     11 H2         -3.5350    0.0780   -1.8420 hc        1 16Q      0.048700
     12 H3         -3.5350    0.7550   -0.3990 hc        1 16Q      0.048700
     13 H4         -1.3710   -0.7970   -1.3850 h1        1 16Q      0.037700
     14 H5         -1.3710    0.7970   -1.3850 h1        1 16Q      0.037700
     15 H6          0.3690    2.0410    0.6570 ha        1 16Q      0.078250
     16 H7          0.3900   -2.0420    0.3990 ha        1 16Q      0.077500
     17 H8          2.7450   -2.0410    0.5810 ha        1 16Q      0.078250
     18 H9          3.9120    0.0010    0.8010 ha        1 16Q      0.078250
     19 H10         2.7240    2.0420    0.8390 ha        1 16Q      0.078250
@<TRIPOS>BOND
     1    1    2 1   
     2    1   10 1   
     3    1   11 1   
     4    1   12 1   
     5    2    3 1   
     6    2   13 1   
     7    2   14 1   
     8    3    4 1   
     9    4    6 3   
    10    5    9 3   
    11    5   15 1   
    12    6   16 1   
    13    7    8 3   
    14    7   17 1   
    15    8   18 1   
    16    9   19 1   
@<TRIPOS>SUBSTRUCTURE
     1 16Q         1 TEMP              0 ****  ****    0 ROOT
