@<TRIPOS>MOLECULE
16R
   16    16     1     0     0
SMALL
bcc


@<TRIPOS>ATOM
      1 C8          0.0550    0.0030   -0.0700 c3        1 16R     -0.068000
      2 S7          1.7960   -0.0010    0.0880 ss        1 16R     -0.171000
      3 C4          2.1140    0.0010    1.7520 ca        1 16R     -0.002100
      4 C3          3.4720   -0.0030    2.1070 ca        1 16R     -0.133000
      5 C5          1.1470    0.0050    2.7610 ca        1 16R     -0.133000
      6 C6          1.5290    0.0060    4.1030 ca        1 16R     -0.113500
      7 C1          2.8780    0.0030    4.4490 ca        1 16R     -0.140000
      8 C2          3.8500   -0.0020    3.4450 ca        1 16R     -0.113500
      9 H1         -0.1410    0.0020   -1.1690 h1        1 16R      0.069033
     10 H2         -0.4130    0.9090    0.3770 h1        1 16R      0.069033
     11 H3         -0.4170   -0.8980    0.3810 h1        1 16R      0.069033
     12 H4          4.2390   -0.0060    1.3160 ha        1 16R      0.135500
     13 H5          0.0770    0.0080    2.5050 ha        1 16R      0.135500
     14 H6          0.7580    0.0090    4.8880 ha        1 16R      0.132000
     15 H7          3.1790    0.0030    5.5060 ha        1 16R      0.132000
     16 H8          4.9170   -0.0050    3.7130 ha        1 16R      0.132000
@<TRIPOS>BOND
     1    1    2 1   
     2    1    9 1   
     3    1   10 1   
     4    1   11 1   
     5    2    3 1   
     6    3    4 ar  
     7    3    5 ar  
     8    4    8 ar  
     9    4   12 1   
    10    5    6 ar  
    11    5   13 1   
    12    6    7 ar  
    13    6   14 1   
    14    7    8 ar  
    15    7   15 1   
    16    8   16 1   
@<TRIPOS>SUBSTRUCTURE
     1 16R         1 TEMP              0 ****  ****    0 ROOT
