@<TRIPOS>MOLECULE
16R
   16    14     1     0     0
SMALL
bcc


@<TRIPOS>ATOM
      1 C8          0.0390    0.6310   -2.9410 c3        1 16R     -0.368000
      2 S7         -1.0430   -0.2530   -1.9780 ss        1 16R      0.238000
      3 C4         -0.4710   -0.2370   -0.2550 c2        1 16R     -0.229000
      4 C3         -0.8260    0.8140    0.5870 c2        1 16R     -0.144000
      5 C5          0.3030   -1.2930    0.2340 c1        1 16R     -0.122000
      6 C6          0.7220   -1.2950    1.5730 c1        1 16R     -0.127000
      7 C1          0.3700   -0.2510    2.4120 c1        1 16R     -0.127000
      8 C2         -0.4060    0.8090    1.9240 c1        1 16R     -0.113000
      9 H1          0.3060    1.4200   -2.4750 h1        1 16R      0.108333
     10 H2         -0.3800    0.8690   -3.7470 h1        1 16R      0.108333
     11 H3          0.8530    0.0650   -3.1370 h1        1 16R      0.108333
     12 H4         -1.3270    1.4910    0.2760 ha        1 16R      0.130000
     13 H5          0.5400   -1.9850   -0.3220 ha        1 16R      0.141000
     14 H6          1.3050   -2.0930    1.9440 ha        1 16R      0.132500
     15 H7          0.6730   -0.2520    3.3740 ha        1 16R      0.132500
     16 H8         -0.6580    1.5610    2.5290 ha        1 16R      0.131000
@<TRIPOS>BOND
     1    1    2 1   
     2    1    9 1   
     3    1   10 1   
     4    1   11 1   
     5    2    3 1   
     6    3    4 1   
     7    3    5 1   
     8    4    8 1   
     9    4   12 1   
    10    5   13 1   
    11    6    7 1   
    12    6   14 1   
    13    7   15 1   
    14    8   16 1   
@<TRIPOS>SUBSTRUCTURE
     1 16R         1 TEMP              0 ****  ****    0 ROOT
