@<TRIPOS>MOLECULE
16R
   16    16     1     0     0
SMALL
bcc


@<TRIPOS>ATOM
      1 C8         -2.6530    0.9170    0.0010 c3        1 16R     -0.068000
      2 S7         -1.7570   -0.5840    0.0010 ss        1 16R     -0.171000
      3 C4         -0.1190   -0.1490    0.0000 ca        1 16R     -0.002100
      4 C3          0.7890   -1.2200    0.0010 ca        1 16R     -0.133000
      5 C5          0.3720    1.1590   -0.0000 ca        1 16R     -0.133000
      6 C6          1.7470    1.3960   -0.0010 ca        1 16R     -0.113500
      7 C1          2.6430    0.3300   -0.0000 ca        1 16R     -0.140000
      8 C2          2.1590   -0.9800    0.0000 ca        1 16R     -0.113500
      9 H1         -3.7280    0.6180    0.0010 h1        1 16R      0.069033
     10 H2         -2.4520    1.5360    0.9040 h1        1 16R      0.069033
     11 H3         -2.4520    1.5350   -0.9030 h1        1 16R      0.069033
     12 H4          0.4090   -2.2530    0.0010 ha        1 16R      0.135500
     13 H5         -0.3220    2.0120   -0.0000 ha        1 16R      0.135500
     14 H6          2.1200    2.4310   -0.0010 ha        1 16R      0.132000
     15 H7          3.7260    0.5170   -0.0010 ha        1 16R      0.132000
     16 H8          2.8620   -1.8260    0.0000 ha        1 16R      0.132000
@<TRIPOS>BOND
     1    1    2 1   
     2    1    9 1   
     3    1   10 1   
     4    1   11 1   
     5    2    3 1   
     6    3    4 ar  
     7    3    5 ar  
     8    4    8 ar  
     9    4   12 1   
    10    5    6 ar  
    11    5   13 1   
    12    6    7 ar  
    13    6   14 1   
    14    7    8 ar  
    15    7   15 1   
    16    8   16 1   
@<TRIPOS>SUBSTRUCTURE
     1 16R         1 TEMP              0 ****  ****    0 ROOT
