@<TRIPOS>MOLECULE
16S
   29    31     1     0     0
SMALL
bcc


@<TRIPOS>ATOM
      1 CAM        -0.1230   -0.4700    0.0120 ca        1 16S     -0.093000
      2 CAL         1.2730   -0.4750   -0.0770 ca        1 16S      0.104100
      3 OAR         1.8270   -0.8460   -1.2790 oh        1 16S     -0.490100
      4 CAP         2.0500   -0.1090    1.0450 ca        1 16S      0.062100
      5 OAS         3.4170   -0.1410    0.8750 oh        1 16S     -0.512100
      6 CAO         1.4280    0.2620    2.2410 ca        1 16S     -0.178000
      7 CAN         0.0380    0.2640    2.3240 ca        1 16S     -0.097000
      8 CAK        -0.7380   -0.1050    1.2170 ca        1 16S     -0.074800
      9 CAJ        -2.1990   -0.1160    1.3260 cc        1 16S      0.199900
     10 OAG        -2.7990    0.1230    0.0980 os        1 16S     -0.223200
     11 CAF        -4.1850    0.1310    0.0650 ca        1 16S      0.142100
     12 CAA        -4.7520    0.3690   -1.2010 ca        1 16S     -0.158000
     13 CAB        -6.1360    0.3950   -1.3150 ca        1 16S     -0.078000
     14 CAC        -6.9500    0.1860   -0.1940 ca        1 16S     -0.166000
     15 CAD        -6.3810   -0.0480    1.0510 ca        1 16S     -0.047000
     16 CAE        -4.9850   -0.0800    1.1980 ca        1 16S     -0.214600
     17 CAH        -4.3550   -0.3270    2.5030 c         1 16S      0.590900
     18 OAQ        -5.0010   -0.5140    3.5440 o         1 16S     -0.546100
     19 CAI        -2.8930   -0.3350    2.4660 cd        1 16S     -0.320200
     20 H1         -0.7240   -0.7520   -0.8670 ha        1 16S      0.170000
     21 H2          2.7920   -0.8040   -1.1900 ho        1 16S      0.439000
     22 H3          3.8280    0.1270    1.7100 ho        1 16S      0.434000
     23 H4          2.0350    0.5510    3.1110 ha        1 16S      0.142000
     24 H5         -0.4490    0.5650    3.2640 ha        1 16S      0.147000
     25 H6         -4.0980    0.5310   -2.0690 ha        1 16S      0.155000
     26 H7         -6.5960    0.5800   -2.2970 ha        1 16S      0.140000
     27 H8         -8.0440    0.2100   -0.3040 ha        1 16S      0.141000
     28 H9         -7.0070   -0.2140    1.9430 ha        1 16S      0.161000
     29 H10        -2.3770   -0.5380    3.4160 ha        1 16S      0.168000
@<TRIPOS>BOND
     1    1    2 ar  
     2    1    8 ar  
     3    1   20 1   
     4    2    3 1   
     5    2    4 ar  
     6    3   21 1   
     7    4    5 1   
     8    4    6 ar  
     9    5   22 1   
    10    6    7 ar  
    11    6   23 1   
    12    7    8 ar  
    13    7   24 1   
    14    8    9 1   
    15    9   10 1   
    16    9   19 2   
    17   10   11 1   
    18   11   12 ar  
    19   11   16 ar  
    20   12   13 ar  
    21   12   25 1   
    22   13   14 ar  
    23   13   26 1   
    24   14   15 ar  
    25   14   27 1   
    26   15   16 ar  
    27   15   28 1   
    28   16   17 1   
    29   17   18 2   
    30   17   19 1   
    31   19   29 1   
@<TRIPOS>SUBSTRUCTURE
     1 16S         1 TEMP              0 ****  ****    0 ROOT
