@<TRIPOS>MOLECULE
16S
   29    31     1     0     0
SMALL
bcc


@<TRIPOS>ATOM
      1 CAM        -1.9870    0.7700    0.3180 ca        1 16S     -0.129000
      2 CAL        -3.3770    0.8520    0.2730 ca        1 16S      0.032100
      3 OAR        -4.0840    1.9960    0.5880 oh        1 16S     -0.515100
      4 CAP        -4.1510   -0.2690   -0.1080 ca        1 16S      0.136100
      5 OAS        -5.5200   -0.2430   -0.1670 oh        1 16S     -0.487100
      6 CAO        -3.5100   -1.4680   -0.4450 ca        1 16S     -0.143000
      7 CAN        -2.1210   -1.5460   -0.3990 ca        1 16S     -0.091000
      8 CAK        -1.3550   -0.4370   -0.0150 ca        1 16S     -0.080800
      9 CAJ         0.1040   -0.5430    0.0450 cc        1 16S      0.200900
     10 OAG         0.7090    0.6880   -0.1680 os        1 16S     -0.229200
     11 CAF         2.0950    0.7230   -0.1370 ca        1 16S      0.142100
     12 CAA         2.6670    1.9890   -0.3620 ca        1 16S     -0.160000
     13 CAB         4.0510    2.1050   -0.3470 ca        1 16S     -0.078000
     14 CAC         4.8600    0.9860   -0.1130 ca        1 16S     -0.165000
     15 CAD         4.2860   -0.2590    0.1070 ca        1 16S     -0.046000
     16 CAE         2.8900   -0.4080    0.0980 ca        1 16S     -0.214600
     17 CAH         2.2550   -1.7150    0.3270 c         1 16S      0.589900
     18 OAQ         2.8980   -2.7530    0.5390 o         1 16S     -0.544100
     19 CAI         0.7940   -1.6820    0.2860 cd        1 16S     -0.319200
     20 H1         -1.3850    1.6450    0.6090 ha        1 16S      0.152000
     21 H2         -3.4450    2.6850    0.8200 ho        1 16S      0.433000
     22 H3         -5.8180    0.6460    0.0880 ho        1 16S      0.442000
     23 H4         -4.1170   -2.3350   -0.7450 ha        1 16S      0.161000
     24 H5         -1.6250   -2.4890   -0.6750 ha        1 16S      0.148000
     25 H6          2.0180    2.8560   -0.5470 ha        1 16S      0.152000
     26 H7          4.5150    3.0880   -0.5220 ha        1 16S      0.140000
     27 H8          5.9540    1.0970   -0.1050 ha        1 16S      0.142000
     28 H9          4.9080   -1.1510    0.2920 ha        1 16S      0.161000
     29 H10         0.2740   -2.6340    0.4690 ha        1 16S      0.169000
@<TRIPOS>BOND
     1    1    2 ar  
     2    1    8 ar  
     3    1   20 1   
     4    2    3 1   
     5    2    4 ar  
     6    3   21 1   
     7    4    5 1   
     8    4    6 ar  
     9    5   22 1   
    10    6    7 ar  
    11    6   23 1   
    12    7    8 ar  
    13    7   24 1   
    14    8    9 1   
    15    9   10 1   
    16    9   19 2   
    17   10   11 1   
    18   11   12 ar  
    19   11   16 ar  
    20   12   13 ar  
    21   12   25 1   
    22   13   14 ar  
    23   13   26 1   
    24   14   15 ar  
    25   14   27 1   
    26   15   16 ar  
    27   15   28 1   
    28   16   17 1   
    29   17   18 2   
    30   17   19 1   
    31   19   29 1   
@<TRIPOS>SUBSTRUCTURE
     1 16S         1 TEMP              0 ****  ****    0 ROOT
