@<TRIPOS>MOLECULE
16S
   29    31     1     0     0
SMALL
bcc


@<TRIPOS>ATOM
      1 CAM        -0.1010    0.2370    0.0120 ca        1 16S     -0.093000
      2 CAL         1.2920    0.1570   -0.0770 ca        1 16S      0.104100
      3 OAR         1.8670    0.4920   -1.2790 oh        1 16S     -0.490100
      4 CAP         2.0450   -0.2560    1.0450 ca        1 16S      0.062100
      5 OAS         3.4110   -0.3070    0.8750 oh        1 16S     -0.512100
      6 CAO         1.4020   -0.5880    2.2410 ca        1 16S     -0.178000
      7 CAN         0.0150   -0.5060    2.3230 ca        1 16S     -0.097000
      8 CAK        -0.7380   -0.0890    1.2160 ca        1 16S     -0.074800
      9 CAJ        -2.1950    0.0100    1.3260 cc        1 16S      0.199900
     10 OAG        -2.8080   -0.1910    0.0980 os        1 16S     -0.223200
     11 CAF        -4.1920   -0.1140    0.0650 ca        1 16S      0.142100
     12 CAA        -4.7730   -0.3180   -1.2000 ca        1 16S     -0.158000
     13 CAB        -6.1560   -0.2580   -1.3140 ca        1 16S     -0.078000
     14 CAC        -6.9560   -0.0010   -0.1940 ca        1 16S     -0.166000
     15 CAD        -6.3730    0.1980    1.0520 ca        1 16S     -0.047000
     16 CAE        -4.9780    0.1440    1.1980 ca        1 16S     -0.214600
     17 CAH        -4.3340    0.3520    2.5040 c         1 16S      0.590900
     18 OAQ        -4.9670    0.5770    3.5450 o         1 16S     -0.546100
     19 CAI        -2.8750    0.2710    2.4660 cd        1 16S     -0.320200
     20 H1         -0.6840    0.5550   -0.8670 ha        1 16S      0.170000
     21 H2          2.8280    0.3920   -1.1910 ho        1 16S      0.439000
     22 H3          3.8050   -0.6000    1.7090 ho        1 16S      0.434000
     23 H4          1.9900   -0.9140    3.1110 ha        1 16S      0.142000
     24 H5         -0.4890   -0.7760    3.2640 ha        1 16S      0.147000
     25 H6         -4.1310   -0.5190   -2.0690 ha        1 16S      0.155000
     26 H7         -6.6270   -0.4150   -2.2970 ha        1 16S      0.140000
     27 H8         -8.0490    0.0430   -0.3030 ha        1 16S      0.141000
     28 H9         -6.9880    0.4010    1.9440 ha        1 16S      0.161000
     29 H10        -2.3470    0.4420    3.4160 ha        1 16S      0.168000
@<TRIPOS>BOND
     1    1    2 ar  
     2    1    8 ar  
     3    1   20 1   
     4    2    3 1   
     5    2    4 ar  
     6    3   21 1   
     7    4    5 1   
     8    4    6 ar  
     9    5   22 1   
    10    6    7 ar  
    11    6   23 1   
    12    7    8 ar  
    13    7   24 1   
    14    8    9 1   
    15    9   10 1   
    16    9   19 2   
    17   10   11 1   
    18   11   12 ar  
    19   11   16 ar  
    20   12   13 ar  
    21   12   25 1   
    22   13   14 ar  
    23   13   26 1   
    24   14   15 ar  
    25   14   27 1   
    26   15   16 ar  
    27   15   28 1   
    28   16   17 1   
    29   17   18 2   
    30   17   19 1   
    31   19   29 1   
@<TRIPOS>SUBSTRUCTURE
     1 16S         1 TEMP              0 ****  ****    0 ROOT
