@<TRIPOS>MOLECULE
16S
   29    23     1     0     0
SMALL
bcc


@<TRIPOS>ATOM
      1 CAM         2.2550    0.0480    1.0890 c1        1 16S     -0.129000
      2 CAL         3.6400    0.0090    1.0750 c1        1 16S     -0.013000
      3 OAR         4.3500   -0.1940    2.2740 o         1 16S     -0.255000
      4 CAP         4.3280    0.2110   -0.1110 c1        1 16S      0.091000
      5 OAS         5.7340    0.1890   -0.1220 o         1 16S     -0.255000
      6 CAO         3.6300    0.4520   -1.2840 c2        1 16S     -0.143000
      7 CAN         2.2440    0.4910   -1.2710 c1        1 16S     -0.091000
      8 CAK         1.5570    0.2890   -0.0850 c1        1 16S     -0.069000
      9 CAJ         0.0440    0.3250   -0.0710 c2        1 16S      0.121000
     10 OAG        -0.7030   -0.9000   -0.0490 os        1 16S     -0.140000
     11 CAF        -2.1940   -0.8690   -0.1330 c2        1 16S      0.121000
     12 CAA        -2.9110   -2.0650   -0.2240 c2        1 16S     -0.160000
     13 CAB        -4.3060   -2.0450   -0.2160 c1        1 16S     -0.078000
     14 CAC        -4.9910   -0.8230   -0.1170 c1        1 16S     -0.105500
     15 CAD        -4.2770    0.3720   -0.0270 c1        1 16S     -0.105500
     16 CAE        -2.8790    0.3540   -0.0340 c1        1 16S     -0.194000
     17 CAH        -2.1080    1.6450    0.0100 c1        1 16S      0.311000
     18 OAQ        -2.6970    2.7060   -0.0300 o         1 16S     -0.305000
     19 CAI        -0.6630    1.6190   -0.0160 c1        1 16S     -0.300000
     20 H1          1.7700   -0.0940    1.9250 ha        1 16S      0.152000
     21 H2          4.3920   -1.0640    2.4490 ho        1 16S      0.236500
     22 H3          6.0430    1.0210   -0.0820 ho        1 16S      0.236500
     23 H4          4.1130    0.5940   -2.1190 ha        1 16S      0.161000
     24 H5          1.7530    0.6600   -2.0970 ha        1 16S      0.148000
     25 H6         -2.4360   -2.9150   -0.2930 ha        1 16S      0.152000
     26 H7         -4.8060   -2.8810   -0.2800 ha        1 16S      0.140000
     27 H8         -5.9670   -0.8100   -0.1120 ha        1 16S      0.151500
     28 H9         -4.7540    1.2210    0.0420 ha        1 16S      0.151500
     29 H10        -0.1610    2.4530   -0.0890 ha        1 16S      0.169000
@<TRIPOS>BOND
     1    1    8 1   
     2    1   20 1   
     3    2    4 1   
     4    3   21 1   
     5    4    6 1   
     6    5   22 1   
     7    6    7 1   
     8    6   23 1   
     9    7   24 1   
    10    8    9 1   
    11    9   10 1   
    12    9   19 1   
    13   10   11 1   
    14   11   12 1   
    15   11   16 1   
    16   12   13 1   
    17   12   25 1   
    18   13   26 1   
    19   14   15 1   
    20   14   27 1   
    21   15   28 1   
    22   17   18 1   
    23   19   29 1   
@<TRIPOS>SUBSTRUCTURE
     1 16S         1 TEMP              0 ****  ****    0 ROOT
