@<TRIPOS>MOLECULE
16T
   55    58     1     0     0
SMALL
bcc


@<TRIPOS>ATOM
      1 C1         -0.4070    0.9730    0.0540 c3        1 16T     -0.031900
      2 C2          1.0350    0.6830   -0.0690 cc        1 16T     -0.253400
      3 C3          1.8260    0.3970    1.0020 cd        1 16T      0.040600
      4 N4          3.1850    0.1390    0.8880 n         1 16T     -0.371000
      5 C5          3.8000    0.1840   -0.3910 c         1 16T      0.807500
      6 O6          5.0260   -0.0130   -0.5430 o         1 16T     -0.649500
      7 N7          2.9980    0.4670   -1.5070 ns        1 16T     -0.585500
      8 C8          1.6170    0.7190   -1.4220 c         1 16T      0.715700
      9 O9          0.9890    0.9500   -2.4680 o         1 16T     -0.606500
     10 C10         3.9640   -0.2020    2.0720 c3        1 16T      0.110700
     11 C11         4.6180   -1.5910    1.9990 c3        1 16T     -0.099400
     12 C12         5.3580   -1.8740    3.2890 c3        1 16T     -0.088400
     13 C13         6.3710   -0.7720    3.6050 c3        1 16T      0.218800
     14 N14         5.8010    0.5530    3.5650 n3        1 16T     -0.813500
     15 C15         5.0760    0.8560    2.3610 c3        1 16T      0.204800
     16 S16         5.9450    1.6150    4.7920 sy        1 16T      1.514200
     17 O17         4.8340    2.4900    4.7830 o         1 16T     -0.652300
     18 O18         6.2000    0.9200    5.9940 o         1 16T     -0.652300
     19 C19         7.3190    2.5050    4.3880 ca        1 16T     -0.412500
     20 C20         7.2100    3.6860    3.6420 ca        1 16T      0.026000
     21 C21         8.3260    4.4430    3.3160 ca        1 16T     -0.238000
     22 C22         9.5980    4.0210    3.7390 ca        1 16T      0.190100
     23 C23         9.7210    2.8360    4.5010 ca        1 16T      0.026100
     24 C24         8.5850    2.0930    4.8200 ca        1 16T      0.014000
     25 O25        10.9790    2.3240    4.8010 os        1 16T     -0.233200
     26 C26        11.5590    2.7680    5.9880 ca        1 16T      0.126100
     27 C27        12.9190    2.4420    6.1320 ca        1 16T     -0.146000
     28 C28        13.5740    2.8090    7.3020 ca        1 16T     -0.096000
     29 C29        12.9010    3.4940    8.3160 ca        1 16T     -0.152000
     30 C30        11.5510    3.8110    8.1510 ca        1 16T      0.048400
     31 C31        10.8620    3.4520    6.9880 ca        1 16T     -0.183000
     32 Cl1        10.7240    4.6460    9.3790 cl        1 16T     -0.088400
     33 O33        10.7420    4.7080    3.4510 oh        1 16T     -0.465100
     34 H1         -0.7840    0.7340    1.0780 hc        1 16T      0.052700
     35 H2         -0.5990    2.0550   -0.1560 hc        1 16T      0.052700
     36 H3         -0.9820    0.3720   -0.6960 hc        1 16T      0.052700
     37 H4          1.4130    0.3620    2.0300 h4        1 16T      0.168000
     38 H5          3.4510    0.4840   -2.3960 hn        1 16T      0.352500
     39 H6          3.2450   -0.2020    2.9460 h1        1 16T      0.069700
     40 H7          3.8370   -2.3760    1.8320 hc        1 16T      0.067700
     41 H8          5.3330   -1.6240    1.1330 hc        1 16T      0.067700
     42 H9          5.9120   -2.8440    3.1970 hc        1 16T      0.055700
     43 H10         4.6290   -1.9770    4.1350 hc        1 16T      0.055700
     44 H11         6.7990   -0.9530    4.6330 h1        1 16T      0.059700
     45 H12         7.2110   -0.8340    2.8520 h1        1 16T      0.059700
     46 H13         5.7850    0.8710    1.4820 h1        1 16T      0.074200
     47 H14         4.6000    1.8730    2.4660 h1        1 16T      0.074200
     48 H15         6.2080    4.0280    3.3220 ha        1 16T      0.158000
     49 H16         8.2220    5.3680    2.7290 ha        1 16T      0.149000
     50 H17         8.6930    1.1760    5.4280 ha        1 16T      0.171000
     51 H18        13.4390    1.9060    5.3260 ha        1 16T      0.155000
     52 H19        14.6380    2.5580    7.4310 ha        1 16T      0.141000
     53 H20        13.4320    3.7800    9.2350 ha        1 16T      0.149000
     54 H21         9.7980    3.6990    6.8620 ha        1 16T      0.158000
     55 H22        10.5040    5.4940    2.9320 ho        1 16T      0.431000
@<TRIPOS>BOND
     1    1    2 1   
     2    1   34 1   
     3    1   35 1   
     4    1   36 1   
     5    2    3 2   
     6    2    8 1   
     7    3    4 1   
     8    3   37 1   
     9    4    5 1   
    10    4   10 1   
    11    5    6 2   
    12    5    7 1   
    13    7    8 1   
    14    7   38 1   
    15    8    9 2   
    16   10   11 1   
    17   10   15 1   
    18   10   39 1   
    19   11   12 1   
    20   11   40 1   
    21   11   41 1   
    22   12   13 1   
    23   12   42 1   
    24   12   43 1   
    25   13   14 1   
    26   13   44 1   
    27   13   45 1   
    28   14   15 1   
    29   14   16 1   
    30   15   46 1   
    31   15   47 1   
    32   16   17 2   
    33   16   18 2   
    34   16   19 1   
    35   19   20 ar  
    36   19   24 ar  
    37   20   21 ar  
    38   20   48 1   
    39   21   22 ar  
    40   21   49 1   
    41   22   23 ar  
    42   22   33 1   
    43   23   24 ar  
    44   23   25 1   
    45   24   50 1   
    46   25   26 1   
    47   26   27 ar  
    48   26   31 ar  
    49   27   28 ar  
    50   27   51 1   
    51   28   29 ar  
    52   28   52 1   
    53   29   30 ar  
    54   29   53 1   
    55   30   31 ar  
    56   30   32 1   
    57   31   54 1   
    58   33   55 1   
@<TRIPOS>SUBSTRUCTURE
     1 16T         1 TEMP              0 ****  ****    0 ROOT
