@<TRIPOS>MOLECULE
16T
   55    58     1     0     0
SMALL
bcc


@<TRIPOS>ATOM
      1 C1         -0.4110    0.9910    0.0550 c3        1 16T     -0.031900
      2 C2          1.0280    0.6860   -0.0620 cc        1 16T     -0.253400
      3 C3          1.8160    0.4100    1.0140 cd        1 16T      0.040600
      4 N4          3.1730    0.1370    0.9040 n         1 16T     -0.371000
      5 C5          3.7890    0.1560   -0.3750 c         1 16T      0.807500
      6 O6          5.0130   -0.0560   -0.5230 o         1 16T     -0.649500
      7 N7          2.9900    0.4290   -1.4950 n         1 16T     -0.585500
      8 C8          1.6110    0.6950   -1.4150 c         1 16T      0.715700
      9 O9          0.9860    0.9150   -2.4650 o         1 16T     -0.606500
     10 C10         3.9480   -0.1930    2.0940 c3        1 16T      0.110700
     11 C11         4.5890   -1.5890    2.0440 c3        1 16T     -0.099400
     12 C12         5.3250   -1.8590    3.3380 c3        1 16T     -0.088400
     13 C13         6.3480   -0.7610    3.6370 c3        1 16T      0.218800
     14 N14         5.7920    0.5680    3.5750 n3        1 16T     -0.813500
     15 C15         5.0700    0.8590    2.3660 c3        1 16T      0.204800
     16 S16         5.9460    1.6490    4.7850 sy        1 16T      1.514200
     17 O17         4.8450    2.5360    4.7600 o         1 16T     -0.652300
     18 O18         6.1910    0.9710    5.9990 o         1 16T     -0.652300
     19 C19         7.3300    2.5160    4.3700 ca        1 16T     -0.412500
     20 C20         7.2360    3.6860    3.6040 ca        1 16T      0.026000
     21 C21         8.3620    4.4240    3.2680 ca        1 16T     -0.238000
     22 C22         9.6290    3.9950    3.7010 ca        1 16T      0.191100
     23 C23         9.7360    2.8210    4.4840 ca        1 16T      0.026100
     24 C24         8.5910    2.0970    4.8120 ca        1 16T      0.014000
     25 O25        10.9880    2.3000    4.7950 os        1 16T     -0.233200
     26 C26        11.5700    2.7560    5.9760 ca        1 16T      0.126100
     27 C27        12.9240    2.4140    6.1300 ca        1 16T     -0.146000
     28 C28        13.5810    2.7920    7.2960 ca        1 16T     -0.096000
     29 C29        12.9140    3.5030    8.2960 ca        1 16T     -0.152000
     30 C30        11.5680    3.8350    8.1210 ca        1 16T      0.048400
     31 C31        10.8790    3.4650    6.9620 ca        1 16T     -0.183000
     32 CL1        10.7490    4.7020    9.3330 cl        1 16T     -0.088400
     33 O33        10.7810    4.6640    3.4040 oh        1 16T     -0.465100
     34 H1         -0.5930    2.0720   -0.1730 hc        1 16T      0.052700
     35 H2         -0.7910    0.7720    1.0830 hc        1 16T      0.052700
     36 H3         -0.9920    0.3830   -0.6840 hc        1 16T      0.052700
     37 H4          1.4030    0.3950    2.0420 h4        1 16T      0.168000
     38 H5          3.4420    0.4270   -2.3850 hn        1 16T      0.352500
     39 H6          3.2290   -0.1720    2.9680 h1        1 16T      0.069700
     40 H7          5.3030   -1.6430    1.1790 hc        1 16T      0.067700
     41 H8          3.8000   -2.3690    1.8890 hc        1 16T      0.067700
     42 H9          4.5950   -1.9410    4.1850 hc        1 16T      0.055700
     43 H10         5.8700   -2.8350    3.2620 hc        1 16T      0.055700
     44 H11         7.1880   -0.8430    2.8860 h1        1 16T      0.059700
     45 H12         6.7750   -0.9300    4.6680 h1        1 16T      0.059700
     46 H13         5.7800    0.8530    1.4880 h1        1 16T      0.074200
     47 H14         4.6040    1.8830    2.4550 h1        1 16T      0.074200
     48 H15         6.2400    4.0330    3.2760 ha        1 16T      0.158000
     49 H16         8.2700    5.3400    2.6660 ha        1 16T      0.149000
     50 H17         8.6870    1.1890    5.4350 ha        1 16T      0.171000
     51 H18        13.4400    1.8580    5.3350 ha        1 16T      0.155000
     52 H19        14.6410    2.5300    7.4320 ha        1 16T      0.141000
     53 H20        13.4460    3.7980    9.2120 ha        1 16T      0.149000
     54 H21         9.8180    3.7240    6.8290 ha        1 16T      0.158000
     55 H22        10.5530    5.4430    2.8720 ho        1 16T      0.431000
@<TRIPOS>BOND
     1    1    2 1   
     2    1   34 1   
     3    1   35 1   
     4    1   36 1   
     5    2    3 2   
     6    2    8 1   
     7    3    4 1   
     8    3   37 1   
     9    4    5 1   
    10    4   10 1   
    11    5    6 2   
    12    5    7 1   
    13    7    8 1   
    14    7   38 1   
    15    8    9 2   
    16   10   11 1   
    17   10   15 1   
    18   10   39 1   
    19   11   12 1   
    20   11   40 1   
    21   11   41 1   
    22   12   13 1   
    23   12   42 1   
    24   12   43 1   
    25   13   14 1   
    26   13   44 1   
    27   13   45 1   
    28   14   15 1   
    29   14   16 1   
    30   15   46 1   
    31   15   47 1   
    32   16   17 2   
    33   16   18 2   
    34   16   19 1   
    35   19   20 ar  
    36   19   24 ar  
    37   20   21 ar  
    38   20   48 1   
    39   21   22 ar  
    40   21   49 1   
    41   22   23 ar  
    42   22   33 1   
    43   23   24 ar  
    44   23   25 1   
    45   24   50 1   
    46   25   26 1   
    47   26   27 ar  
    48   26   31 ar  
    49   27   28 ar  
    50   27   51 1   
    51   28   29 ar  
    52   28   52 1   
    53   29   30 ar  
    54   29   53 1   
    55   30   31 ar  
    56   30   32 1   
    57   31   54 1   
    58   33   55 1   
@<TRIPOS>SUBSTRUCTURE
     1 16T         1 TEMP              0 ****  ****    0 ROOT
