@<TRIPOS>MOLECULE
16T
   55    58     1     0     0
SMALL
bcc


@<TRIPOS>ATOM
      1 C1          7.8770   -0.2220    0.7800 c3        1 16T     -0.031900
      2 C2          6.6560   -0.0380   -0.0280 cc        1 16T     -0.253400
      3 C3          5.5070    0.4910    0.4760 cd        1 16T      0.039600
      4 N4          4.3550    0.6510   -0.2820 n         1 16T     -0.371000
      5 C5          4.3480    0.2370   -1.6400 c         1 16T      0.808500
      6 O6          3.3260    0.3330   -2.3560 o         1 16T     -0.651500
      7 N7          5.5260   -0.3010   -2.1790 n         1 16T     -0.585500
      8 C8          6.7110   -0.4610   -1.4390 c         1 16T      0.715700
      9 O9          7.7080   -0.9360   -2.0080 o         1 16T     -0.605500
     10 C10         3.1720    1.2630    0.3110 c3        1 16T      0.110700
     11 C11         2.7250    2.5510   -0.4000 c3        1 16T     -0.099400
     12 C12         1.5250    3.1370    0.3110 c3        1 16T     -0.089400
     13 C13         0.3920    2.1150    0.4260 c3        1 16T      0.218800
     14 N14         0.8160    0.8570    0.9890 n3        1 16T     -0.814500
     15 C15         1.9660    0.2730    0.3540 c3        1 16T      0.207800
     16 S16         0.0860    0.1670    2.2750 sy        1 16T      1.515200
     17 O17         1.0560   -0.5000    3.0580 o         1 16T     -0.652300
     18 O18        -0.7150    1.1260    2.9320 o         1 16T     -0.652300
     19 C19        -0.9180   -0.9930    1.5800 ca        1 16T     -0.411500
     20 C20        -0.4890   -2.3240    1.4560 ca        1 16T      0.012000
     21 C21        -1.3050   -3.3090    0.9200 ca        1 16T     -0.181000
     22 C22        -2.5980   -2.9650    0.4840 ca        1 16T      0.197100
     23 C23        -3.0380   -1.6280    0.6040 ca        1 16T     -0.030900
     24 C24        -2.2090   -0.6550    1.1570 ca        1 16T      0.016000
     25 O25        -4.3700   -1.3710    0.2810 os        1 16T     -0.255200
     26 C26        -4.5810   -0.5040   -0.7910 ca        1 16T      0.106100
     27 C27        -3.6330   -0.2600   -1.7900 ca        1 16T     -0.182000
     28 C28        -3.9740    0.5780   -2.8510 ca        1 16T     -0.092000
     29 C29        -5.2370    1.1620   -2.9200 ca        1 16T     -0.145000
     30 C30        -6.1720    0.9060   -1.9090 ca        1 16T      0.041400
     31 C31        -5.8580    0.0770   -0.8310 ca        1 16T     -0.140000
     32 CL1        -7.7120    1.6190   -1.9890 cl        1 16T     -0.081400
     33 O33        -3.3780   -3.9580   -0.0290 oh        1 16T     -0.477100
     34 H1          8.0550   -1.3120    0.9610 hc        1 16T      0.053033
     35 H2          8.7640    0.1830    0.2300 hc        1 16T      0.053033
     36 H3          7.7930    0.2960    1.7660 hc        1 16T      0.053033
     37 H4          5.4390    0.8190    1.5320 h4        1 16T      0.169000
     38 H5          5.5000   -0.5770   -3.1370 hn        1 16T      0.352500
     39 H6          3.4430    1.5320    1.3770 h1        1 16T      0.070700
     40 H7          3.5620    3.2970   -0.4060 hc        1 16T      0.067200
     41 H8          2.4620    2.3180   -1.4660 hc        1 16T      0.067200
     42 H9          1.8200    3.4960    1.3310 hc        1 16T      0.055200
     43 H10         1.1440    4.0210   -0.2630 hc        1 16T      0.055200
     44 H11        -0.4280    2.5470    1.0700 h1        1 16T      0.059200
     45 H12        -0.0270    1.9320   -0.6070 h1        1 16T      0.059200
     46 H13         1.7090   -0.0170   -0.7070 h1        1 16T      0.072200
     47 H14         2.2670   -0.6520    0.9250 h1        1 16T      0.072200
     48 H15         0.5220   -2.5940    1.8140 ha        1 16T      0.161000
     49 H16        -0.9670   -4.3510    0.8340 ha        1 16T      0.165000
     50 H17        -2.5810    0.3780    1.2730 ha        1 16T      0.168000
     51 H18        -2.6360   -0.7200   -1.7360 ha        1 16T      0.151000
     52 H19        -3.2370    0.7760   -3.6440 ha        1 16T      0.144000
     53 H20        -5.4970    1.8190   -3.7630 ha        1 16T      0.153000
     54 H21        -6.5830   -0.1300   -0.0300 ha        1 16T      0.167000
     55 H22        -4.2450   -3.5790   -0.2600 ho        1 16T      0.447000
@<TRIPOS>BOND
     1    1    2 1   
     2    1   34 1   
     3    1   35 1   
     4    1   36 1   
     5    2    3 2   
     6    2    8 1   
     7    3    4 1   
     8    3   37 1   
     9    4    5 1   
    10    4   10 1   
    11    5    6 2   
    12    5    7 1   
    13    7    8 1   
    14    7   38 1   
    15    8    9 2   
    16   10   11 1   
    17   10   15 1   
    18   10   39 1   
    19   11   12 1   
    20   11   40 1   
    21   11   41 1   
    22   12   13 1   
    23   12   42 1   
    24   12   43 1   
    25   13   14 1   
    26   13   44 1   
    27   13   45 1   
    28   14   15 1   
    29   14   16 1   
    30   15   46 1   
    31   15   47 1   
    32   16   17 2   
    33   16   18 2   
    34   16   19 1   
    35   19   20 ar  
    36   19   24 ar  
    37   20   21 ar  
    38   20   48 1   
    39   21   22 ar  
    40   21   49 1   
    41   22   23 ar  
    42   22   33 1   
    43   23   24 ar  
    44   23   25 1   
    45   24   50 1   
    46   25   26 1   
    47   26   27 ar  
    48   26   31 ar  
    49   27   28 ar  
    50   27   51 1   
    51   28   29 ar  
    52   28   52 1   
    53   29   30 ar  
    54   29   53 1   
    55   30   31 ar  
    56   30   32 1   
    57   31   54 1   
    58   33   55 1   
@<TRIPOS>SUBSTRUCTURE
     1 16T         1 TEMP              0 ****  ****    0 ROOT
