@<TRIPOS>MOLECULE
16T
   55    48     1     0     0
SMALL
bcc


@<TRIPOS>ATOM
      1 C1          0.1830    0.7070   -6.7720 c3        1 16T     -0.153000
      2 C2         -0.8000    0.3340   -5.6350 c1        1 16T     -0.231000
      3 C3         -0.2710    0.4940   -4.6140 c1        1 16T      0.033000
      4 N4          0.7020   -0.6140   -4.2330 n2        1 16T     -0.265000
      5 C5          0.3710   -1.9440   -4.6590 c1        1 16T      0.399000
      6 O6          0.6710   -2.8990   -3.9650 o         1 16T     -0.359000
      7 N7         -0.7080   -2.0980   -5.7740 n2        1 16T     -0.363000
      8 C8         -1.4940   -1.2370   -5.8230 c1        1 16T      0.355000
      9 O9         -2.3830   -1.4700   -5.0210 o         1 16T     -0.332000
     10 C10         1.6630   -0.4090   -3.1230 c3        1 16T      0.014000
     11 C11         2.2370    0.9300   -3.2340 c3        1 16T     -0.170000
     12 C12         3.0820    1.2830   -2.0570 c3        1 16T     -0.168000
     13 C13         2.3530    1.0620   -0.7280 c3        1 16T     -0.018000
     14 N14         1.7770   -0.2710   -0.6250 n3        1 16T     -0.829000
     15 C15         0.9380   -0.6260   -1.7870 c3        1 16T     -0.025000
     16 S16         1.4610   -0.9540    0.8990 s4        1 16T      2.070800
     17 O17         0.5400   -2.0590    0.7950 o         1 16T     -0.533900
     18 O18         2.6290   -1.6110    1.4290 o         1 16T     -0.533900
     19 C19         0.8520    0.2940    2.0290 c1        1 16T     -0.854000
     20 C20         1.7570    1.0450    2.7760 c2        1 16T      0.021000
     21 C21         1.3070    1.8250    3.8360 c1        1 16T     -0.237000
     22 C22        -0.0470    1.8570    4.1520 c1        1 16T      0.138000
     23 C23        -0.9530    1.1070    3.4070 c1        1 16T     -0.006000
     24 C24        -0.5060    0.3270    2.3470 c2        1 16T      0.008000
     25 O25        -2.3490    1.1700    3.7080 o         1 16T     -0.159000
     26 C26        -2.6770    0.1630    4.6760 c1        1 16T      0.043000
     27 C27        -2.8180    0.5110    6.0150 c1        1 16T     -0.121500
     28 C28        -3.2780   -0.4290    6.9340 c1        1 16T     -0.121500
     29 C29        -3.5960   -1.7170    6.5130 c1        1 16T     -0.124000
     30 C30        -3.4550   -2.0660    5.1750 c1        1 16T     -0.054000
     31 C31        -2.9960   -1.1270    4.2550 c2        1 16T     -0.128000
     32 CL1        -3.9240   -3.6620    4.6340 cl        1 16T     -0.005000
     33 O33        -0.4870    2.5650    5.2870 o         1 16T     -0.229000
     34 H1         -0.3270    0.8990   -7.6010 hc        1 16T      0.091333
     35 H2          0.6990    1.5040   -6.5120 hc        1 16T      0.091333
     36 H3          0.7960   -0.0410   -6.9320 hc        1 16T      0.091333
     37 H4         -0.0770    1.4100   -4.3280 ha        1 16T      0.163000
     38 H5         -0.9600   -2.9650   -5.9610 hn        1 16T      0.268000
     39 H6          2.3900   -1.0760   -3.2020 h1        1 16T      0.156000
     40 H7          2.7910    0.9740   -4.0500 hc        1 16T      0.092000
     41 H8          1.5060    1.5850   -3.3090 hc        1 16T      0.092000
     42 H9          3.3430    2.2290   -2.1250 hc        1 16T      0.100000
     43 H10         3.9000    0.7220   -2.0710 hc        1 16T      0.100000
     44 H11         2.9870    1.1910    0.0070 h1        1 16T      0.093000
     45 H12         1.6290    1.7300   -0.6460 h1        1 16T      0.093000
     46 H13         0.1280   -0.0730   -1.7740 h1        1 16T      0.099500
     47 H14         0.6800   -1.5670   -1.7160 h1        1 16T      0.099500
     48 H15         2.7120    1.0240    2.5540 ha        1 16T      0.159000
     49 H16         1.9470    2.3550    4.3630 ha        1 16T      0.147000
     50 H17        -1.1440   -0.2000    1.8240 ha        1 16T      0.166000
     51 H18        -2.5940    1.4180    6.3120 ha        1 16T      0.150500
     52 H19        -3.3770   -0.1830    7.8790 ha        1 16T      0.150500
     53 H20        -3.9210   -2.3800    7.1620 ha        1 16T      0.150000
     54 H21        -2.8960   -1.3730    3.3110 ha        1 16T      0.160000
     55 H22         0.0060    2.3310    5.9940 ho        1 16T      0.228000
@<TRIPOS>BOND
     1    1    2 1   
     2    1   34 1   
     3    1   35 1   
     4    1   36 1   
     5    2    3 1   
     6    3   37 1   
     7    4    5 1   
     8    4   10 1   
     9    5    6 1   
    10    7    8 1   
    11    7   38 1   
    12    8    9 1   
    13   10   11 1   
    14   10   15 1   
    15   10   39 1   
    16   11   12 1   
    17   11   40 1   
    18   11   41 1   
    19   12   13 1   
    20   12   42 1   
    21   12   43 1   
    22   13   14 1   
    23   13   44 1   
    24   13   45 1   
    25   14   15 1   
    26   14   16 1   
    27   15   46 1   
    28   15   47 1   
    29   16   17 1   
    30   16   18 1   
    31   19   20 1   
    32   19   24 1   
    33   20   21 1   
    34   20   48 1   
    35   21   49 1   
    36   22   23 1   
    37   23   24 1   
    38   24   50 1   
    39   25   26 1   
    40   26   31 1   
    41   27   28 1   
    42   27   51 1   
    43   28   52 1   
    44   29   30 1   
    45   29   53 1   
    46   30   31 1   
    47   31   54 1   
    48   33   55 1   
@<TRIPOS>SUBSTRUCTURE
     1 16T         1 TEMP              0 ****  ****    0 ROOT
