@<TRIPOS>MOLECULE
16T
   55    58     1     0     0
SMALL
bcc


@<TRIPOS>ATOM
      1 C1         -0.4120    1.0100    0.0520 c3        1 16T     -0.031900
      2 C2          1.0290    0.7180   -0.0720 cc        1 16T     -0.253400
      3 C3          1.8200    0.4250    0.9980 cd        1 16T      0.040600
      4 N4          3.1790    0.1650    0.8810 n         1 16T     -0.371000
      5 C5          3.7940    0.2160   -0.3970 c         1 16T      0.807500
      6 O6          5.0190    0.0160   -0.5500 o         1 16T     -0.649500
      7 N7          2.9920    0.5060   -1.5110 n         1 16T     -0.585500
      8 C8          1.6120    0.7600   -1.4250 c         1 16T      0.715700
      9 O9          0.9840    0.9970   -2.4700 o         1 16T     -0.606500
     10 C10         3.9570   -0.1840    2.0630 c3        1 16T      0.110700
     11 C11         4.6070   -1.5740    1.9840 c3        1 16T     -0.099400
     12 C12         5.3460   -1.8660    3.2720 c3        1 16T     -0.088400
     13 C13         6.3620   -0.7680    3.5930 c3        1 16T      0.218800
     14 N14         5.7960    0.5580    3.5600 n3        1 16T     -0.813500
     15 C15         5.0710    0.8700    2.3580 c3        1 16T      0.204800
     16 S16         5.9440    1.6140    4.7920 sy        1 16T      1.514200
     17 O17         4.8380    2.4950    4.7870 o         1 16T     -0.652300
     18 O18         6.1960    0.9130    5.9910 o         1 16T     -0.652300
     19 C19         7.3220    2.4990    4.3930 ca        1 16T     -0.412500
     20 C20         7.2190    3.6850    3.6540 ca        1 16T      0.026000
     21 C21         8.3400    4.4380    3.3310 ca        1 16T     -0.238000
     22 C22         9.6100    4.0070    3.7520 ca        1 16T      0.190100
     23 C23         9.7260    2.8170    4.5080 ca        1 16T      0.026100
     24 C24         8.5870    2.0780    4.8230 ca        1 16T      0.014000
     25 O25        10.9820    2.2970    4.8060 os        1 16T     -0.233200
     26 C26        11.5650    2.7320    5.9940 ca        1 16T      0.126100
     27 C27        12.9220    2.3940    6.1360 ca        1 16T     -0.146000
     28 C28        13.5800    2.7510    7.3090 ca        1 16T     -0.096000
     29 C29        12.9120    3.4380    8.3240 ca        1 16T     -0.152000
     30 C30        11.5640    3.7670    8.1610 ca        1 16T      0.048400
     31 C31        10.8730    3.4170    6.9960 ca        1 16T     -0.183000
     32 CL1        10.7450    4.6040    9.3920 cl        1 16T     -0.088400
     33 O33        10.7570    4.6900    3.4680 oh        1 16T     -0.465100
     34 H1         -0.9880    0.4180   -0.7040 hc        1 16T      0.052700
     35 H2         -0.6010    2.0960   -0.1470 hc        1 16T      0.052700
     36 H3         -0.7900    0.7620    1.0740 hc        1 16T      0.052700
     37 H4          1.4070    0.3850    2.0250 h4        1 16T      0.168000
     38 H5          3.4450    0.5260   -2.4000 hn        1 16T      0.352500
     39 H6          3.2380   -0.1870    2.9380 h1        1 16T      0.069700
     40 H7          3.8240   -2.3560    1.8120 hc        1 16T      0.067700
     41 H8          5.3220   -1.6050    1.1180 hc        1 16T      0.067700
     42 H9          5.8980   -2.8370    3.1750 hc        1 16T      0.055700
     43 H10         4.6170   -1.9720    4.1170 hc        1 16T      0.055700
     44 H11         7.2020   -0.8290    2.8400 h1        1 16T      0.059700
     45 H12         6.7900   -0.9560    4.6200 h1        1 16T      0.059700
     46 H13         5.7800    0.8880    1.4790 h1        1 16T      0.074200
     47 H14         4.5980    1.8870    2.4690 h1        1 16T      0.074200
     48 H15         6.2200    4.0340    3.3350 ha        1 16T      0.158000
     49 H16         8.2410    5.3660    2.7500 ha        1 16T      0.149000
     50 H17         8.6900    1.1580    5.4260 ha        1 16T      0.171000
     51 H18        13.4380    1.8570    5.3290 ha        1 16T      0.155000
     52 H19        14.6420    2.4910    7.4360 ha        1 16T      0.141000
     53 H20        13.4450    3.7160    9.2450 ha        1 16T      0.149000
     54 H21         9.8110    3.6720    6.8710 ha        1 16T      0.158000
     55 H22        10.5230    5.4790    2.9540 ho        1 16T      0.431000
@<TRIPOS>BOND
     1    1    2 1   
     2    1   34 1   
     3    1   35 1   
     4    1   36 1   
     5    2    3 2   
     6    2    8 1   
     7    3    4 1   
     8    3   37 1   
     9    4    5 1   
    10    4   10 1   
    11    5    6 2   
    12    5    7 1   
    13    7    8 1   
    14    7   38 1   
    15    8    9 2   
    16   10   11 1   
    17   10   15 1   
    18   10   39 1   
    19   11   12 1   
    20   11   40 1   
    21   11   41 1   
    22   12   13 1   
    23   12   42 1   
    24   12   43 1   
    25   13   14 1   
    26   13   44 1   
    27   13   45 1   
    28   14   15 1   
    29   14   16 1   
    30   15   46 1   
    31   15   47 1   
    32   16   17 2   
    33   16   18 2   
    34   16   19 1   
    35   19   20 ar  
    36   19   24 ar  
    37   20   21 ar  
    38   20   48 1   
    39   21   22 ar  
    40   21   49 1   
    41   22   23 ar  
    42   22   33 1   
    43   23   24 ar  
    44   23   25 1   
    45   24   50 1   
    46   25   26 1   
    47   26   27 ar  
    48   26   31 ar  
    49   27   28 ar  
    50   27   51 1   
    51   28   29 ar  
    52   28   52 1   
    53   29   30 ar  
    54   29   53 1   
    55   30   31 ar  
    56   30   32 1   
    57   31   54 1   
    58   33   55 1   
@<TRIPOS>SUBSTRUCTURE
     1 16T         1 TEMP              0 ****  ****    0 ROOT
