@<TRIPOS>MOLECULE
16U
   48    49     1     0     0
SMALL
bcc


@<TRIPOS>ATOM
      1 C15        -4.0690    0.3060    0.0290 c3        1 16U     -0.142400
      2 C10        -4.5290   -1.1170   -0.2050 c3        1 16U     -0.072400
      3 C11        -5.9940   -1.3070    0.1560 c3        1 16U     -0.067700
      4 C12        -6.9060   -0.7000   -0.8900 c3        1 16U     -0.090600
      5 C18        -6.2980   -2.7830    0.3170 c3        1 16U     -0.090600
      6 C14        -2.6130    0.4760   -0.3580 c         1 16U      0.664100
      7 O32        -2.0030   -0.3800   -1.0340 o         1 16U     -0.626100
      8 N1         -1.9440    1.6030    0.0920 n         1 16U     -0.465800
      9 C1         -0.6120    1.9540   -0.3840 c3        1 16U      0.033700
     10 C7          0.5170    1.2920    0.4410 c         1 16U      0.650100
     11 O22         1.4060    1.9770    0.9870 o         1 16U     -0.621100
     12 C2         -0.5050    3.4940   -0.3270 c3        1 16U     -0.088400
     13 C3         -1.7370    3.9870    0.4230 c3        1 16U     -0.090400
     14 C4         -2.6290    2.7550    0.6490 c3        1 16U      0.088000
     15 N23         0.4950   -0.0810    0.5420 n         1 16U     -0.551900
     16 C24         1.5540   -0.8130    1.1810 c3        1 16U      0.132300
     17 C25         2.6710   -1.2370    0.2660 ca        1 16U     -0.111300
     18 C26         2.8150   -2.5760   -0.1060 ca        1 16U     -0.119000
     19 C27         3.8710   -2.9610   -0.9320 ca        1 16U     -0.126000
     20 C28         4.7850   -2.0170   -1.3950 ca        1 16U     -0.121000
     21 C29         4.6340   -0.6770   -1.0230 ca        1 16U      0.014400
     22 C30         3.5820   -0.2810   -0.1940 ca        1 16U     -0.108000
     23 CL21        5.7450    0.4820   -1.5860 cl        1 16U     -0.096400
     24 H15        -4.6790    1.0160   -0.5930 hc        1 16U      0.066700
     25 H15A       -4.2150    0.5830    1.1070 hc        1 16U      0.066700
     26 H10        -3.8970   -1.8090    0.4120 hc        1 16U      0.060200
     27 H10A       -4.3590   -1.3930   -1.2800 hc        1 16U      0.060200
     28 H11        -6.1910   -0.7960    1.1410 hc        1 16U      0.043700
     29 H12        -7.9750   -0.8560   -0.6060 hc        1 16U      0.034867
     30 H12A       -6.7230    0.3980   -0.9840 hc        1 16U      0.034867
     31 H12B       -6.7320   -1.1740   -1.8860 hc        1 16U      0.034867
     32 H18        -5.6780   -3.2220    1.1350 hc        1 16U      0.034867
     33 H18A       -7.3750   -2.9310    0.5700 hc        1 16U      0.034867
     34 H18B       -6.0760   -3.3330   -0.6290 hc        1 16U      0.034867
     35 H1         -0.4830    1.5890   -1.4470 h1        1 16U      0.084700
     36 H2         -0.4840    3.9010   -1.3680 hc        1 16U      0.075200
     37 H2A         0.4360    3.8100    0.1900 hc        1 16U      0.075200
     38 H3         -2.2850    4.7620   -0.1660 hc        1 16U      0.056700
     39 H3A        -1.4500    4.4380    1.4050 hc        1 16U      0.056700
     40 H4         -3.6310    2.8970    0.1580 h1        1 16U      0.046200
     41 H4A        -2.8010    2.5830    1.7480 h1        1 16U      0.046200
     42 HN23       -0.1200   -0.5950   -0.0520 hn        1 16U      0.337500
     43 H24         1.9920   -0.1690    2.0000 h1        1 16U      0.068200
     44 H24A        1.0950   -1.7280    1.6550 h1        1 16U      0.068200
     45 H26         2.0970   -3.3290    0.2520 ha        1 16U      0.135000
     46 H27         3.9840   -4.0160   -1.2220 ha        1 16U      0.136000
     47 H28         5.6170   -2.3230   -2.0470 ha        1 16U      0.145000
     48 H30         3.4570    0.7750    0.1040 ha        1 16U      0.170000
@<TRIPOS>BOND
     1    1    2 1   
     2    1    6 1   
     3    1   24 1   
     4    1   25 1   
     5    2    3 1   
     6    2   26 1   
     7    2   27 1   
     8    3    4 1   
     9    3    5 1   
    10    3   28 1   
    11    4   29 1   
    12    4   30 1   
    13    4   31 1   
    14    5   32 1   
    15    5   33 1   
    16    5   34 1   
    17    6    7 2   
    18    6    8 1   
    19    8    9 1   
    20    8   14 1   
    21    9   10 1   
    22    9   12 1   
    23    9   35 1   
    24   10   11 2   
    25   10   15 1   
    26   12   13 1   
    27   12   36 1   
    28   12   37 1   
    29   13   14 1   
    30   13   38 1   
    31   13   39 1   
    32   14   40 1   
    33   14   41 1   
    34   15   16 1   
    35   15   42 1   
    36   16   17 1   
    37   16   43 1   
    38   16   44 1   
    39   17   18 ar  
    40   17   22 ar  
    41   18   19 ar  
    42   18   45 1   
    43   19   20 ar  
    44   19   46 1   
    45   20   21 ar  
    46   20   47 1   
    47   21   22 ar  
    48   21   23 1   
    49   22   48 1   
@<TRIPOS>SUBSTRUCTURE
     1 16U         1 TEMP              0 ****  ****    0 ROOT
