@<TRIPOS>MOLECULE
16U
   48    47     1     0     0
SMALL
bcc


@<TRIPOS>ATOM
      1 C15        -0.3100   -2.2220    0.3610 c3        1 16U     -0.177000
      2 C10         0.3490   -3.6270    0.6390 c3        1 16U     -0.150000
      3 C11        -0.1860   -4.1970    1.9900 c3        1 16U     -0.107000
      4 C12        -1.1350   -5.3620    1.7100 c3        1 16U     -0.209500
      5 C18         1.0010   -4.6950    2.8480 c3        1 16U     -0.209500
      6 C14        -1.1250   -2.2850   -0.9650 c2        1 16U      0.323000
      7 O32        -1.7030   -3.3060   -1.2680 o         1 16U     -0.361000
      8 N1         -1.0050   -1.1720   -1.9650 n         1 16U     -0.334000
      9 C1         -0.2790    0.2480   -1.7470 c3        1 16U      0.025000
     10 C7         -1.0180    1.2040   -0.7370 c2        1 16U      0.270000
     11 O22        -2.0220    0.8230   -0.1650 o         1 16U     -0.352000
     12 C2         -0.2170    0.7020   -2.9590 c3        1 16U     -0.161000
     13 C3         -1.4390    0.0440   -3.7690 c3        1 16U     -0.170000
     14 C4         -1.5390   -1.1650   -3.3700 c3        1 16U     -0.018000
     15 N23        -0.5600    2.5620   -0.5640 n         1 16U     -0.372000
     16 C24        -0.6300    3.1850    0.7290 c3        1 16U      0.006000
     17 C25         0.5920    4.1000    0.9260 c2        1 16U     -0.110000
     18 C26         1.8180    3.5540    1.2530 c2        1 16U     -0.117000
     19 C27         2.9120    4.3830    1.4710 c1        1 16U     -0.124000
     20 C28         2.7740    5.7520    1.3620 c1        1 16U     -0.118000
     21 C29         1.5450    6.3010    1.0340 c1        1 16U     -0.064000
     22 C30         0.4530    5.4750    0.8160 c2        1 16U     -0.117000
     23 CL21        1.3250    8.0340    1.0910 cl        1 16U     -0.016000
     24 H15        -0.9060   -1.9910    1.0980 hc        1 16U      0.106000
     25 H15A        0.3910   -1.5440    0.2820 hc        1 16U      0.106000
     26 H10         1.3150   -3.5280    0.6890 hc        1 16U      0.100000
     27 H10A        0.1210   -4.2420   -0.0860 hc        1 16U      0.100000
     28 H11        -0.6630   -3.5000    2.4700 hc        1 16U      0.080000
     29 H12        -1.9390   -5.0280    1.2590 hc        1 16U      0.073833
     30 H12A       -0.6830   -6.0230    1.1310 hc        1 16U      0.073833
     31 H12B       -1.3890   -5.7920    2.5620 hc        1 16U      0.073833
     32 H18         1.5750   -5.2740    2.3060 hc        1 16U      0.073833
     33 H18A        1.5210   -3.9240    3.1670 hc        1 16U      0.073833
     34 H18B        0.6580   -5.2030    3.6230 hc        1 16U      0.073833
     35 H1          0.6050    0.1580   -1.3350 h1        1 16U      0.100000
     36 H2         -0.3050    1.6850   -2.9560 hc        1 16U      0.099000
     37 H2A         0.6260    0.4460   -3.3660 hc        1 16U      0.099000
     38 H3         -1.2520    0.0650   -4.7360 hc        1 16U      0.095500
     39 H3A        -2.2720    0.5320   -3.5770 hc        1 16U      0.095500
     40 H4         -1.0030   -1.7540   -3.9380 h1        1 16U      0.100000
     41 H4A        -2.4790   -1.4470   -3.3780 h1        1 16U      0.100000
     42 HN23       -0.2690    3.0400   -1.2840 hn        1 16U      0.219000
     43 H24        -1.4490    3.7170    0.7900 h1        1 16U      0.113000
     44 H24A       -0.6370    2.4960    1.4240 h1        1 16U      0.113000
     45 H26         1.9170    2.5810    1.3310 ha        1 16U      0.156000
     46 H27         3.7840    3.9950    1.7040 ha        1 16U      0.143000
     47 H28         3.5470    6.3360    1.5160 ha        1 16U      0.149000
     48 H30        -0.4150    5.8620    0.5850 ha        1 16U      0.145000
@<TRIPOS>BOND
     1    1    2 1   
     2    1    6 1   
     3    1   24 1   
     4    1   25 1   
     5    2    3 1   
     6    2   26 1   
     7    2   27 1   
     8    3    4 1   
     9    3    5 1   
    10    3   28 1   
    11    4   29 1   
    12    4   30 1   
    13    4   31 1   
    14    5   32 1   
    15    5   33 1   
    16    5   34 1   
    17    6    7 1   
    18    6    8 1   
    19    8    9 1   
    20    8   14 1   
    21    9   10 1   
    22    9   12 1   
    23    9   35 1   
    24   10   11 1   
    25   10   15 1   
    26   12   13 1   
    27   12   36 1   
    28   12   37 1   
    29   13   14 1   
    30   13   38 1   
    31   13   39 1   
    32   14   40 1   
    33   14   41 1   
    34   15   16 1   
    35   15   42 1   
    36   16   17 1   
    37   16   43 1   
    38   16   44 1   
    39   17   18 1   
    40   17   22 1   
    41   18   19 1   
    42   18   45 1   
    43   19   46 1   
    44   20   21 1   
    45   20   47 1   
    46   21   22 1   
    47   22   48 1   
@<TRIPOS>SUBSTRUCTURE
     1 16U         1 TEMP              0 ****  ****    0 ROOT
