@<TRIPOS>MOLECULE
16V
   37    38     1     0     0
SMALL
bcc


@<TRIPOS>ATOM
      1 OAC         3.9630   -2.7980    0.6890 o         1 16V     -0.826800
      2 CAO         4.6990   -1.8350    0.3320 c         1 16V      0.909200
      3 OAD         5.9530   -1.9010    0.2100 o         1 16V     -0.826800
      4 CAS         4.0230   -0.5040    0.0240 ca        1 16V     -0.106600
      5 CAH         2.6390   -0.3810    0.1630 ca        1 16V     -0.155000
      6 CAG         4.7770    0.5950   -0.3990 ca        1 16V     -0.115000
      7 CAF         4.1660    1.8100   -0.6870 ca        1 16V     -0.169000
      8 CAR         2.7720    1.9440   -0.5580 ca        1 16V      0.062900
      9 FAE         2.1710    3.1270   -0.8420 f         1 16V     -0.159900
     10 CAT         2.0090    0.8330   -0.1260 ca        1 16V      0.057100
     11 OAN         0.6460    1.0630   -0.0090 os        1 16V     -0.337900
     12 CAJ        -0.1430   -0.1080    0.2260 c3        1 16V      0.128400
     13 CAI        -1.5910    0.3400    0.1210 c3        1 16V     -0.083400
     14 CAK        -2.5190   -0.8450    0.3150 c3        1 16V     -0.002100
     15 CAU        -3.9270   -0.4900    0.1050 cc        1 16V     -0.234600
     16 CAP        -4.5540   -0.0990   -1.0940 cd        1 16V     -0.098600
     17 CAA        -3.9820    0.0870   -2.4360 c3        1 16V     -0.034800
     18 NAL        -5.9040    0.1090   -0.7710 na        1 16V     -0.025600
     19 NAM        -6.1660   -0.1170    0.5140 nd        1 16V     -0.527800
     20 CAQ        -4.9880   -0.4880    1.0990 cc        1 16V      0.311600
     21 CAB        -4.8160   -0.8350    2.5210 c3        1 16V     -0.120400
     22 H2          2.0780   -1.2660    0.5050 ha        1 16V      0.164000
     23 H3          5.8680    0.4710   -0.4970 ha        1 16V      0.158000
     24 H4          4.7550    2.6760   -1.0190 ha        1 16V      0.123000
     25 H5          0.0940   -0.8910   -0.5420 h1        1 16V      0.042700
     26 H6          0.0830   -0.5100    1.2480 h1        1 16V      0.042700
     27 H7         -1.7980    1.1260    0.8920 hc        1 16V      0.052700
     28 H8         -1.7680    0.8050   -0.8840 hc        1 16V      0.052700
     29 H9         -2.2310   -1.6610   -0.4050 hc        1 16V      0.050200
     30 H10        -2.3880   -1.2560    1.3530 hc        1 16V      0.050200
     31 H11        -4.6820   -0.2550   -3.2370 hc        1 16V      0.054033
     32 H12        -3.7410    1.1670   -2.6090 hc        1 16V      0.054033
     33 H13        -3.0320   -0.5010   -2.5140 hc        1 16V      0.054033
     34 H14        -6.6230    0.3980   -1.3880 hn        1 16V      0.311700
     35 H15        -4.4690   -1.8950    2.6080 hc        1 16V      0.048367
     36 H16        -4.0380   -0.1710    2.9760 hc        1 16V      0.048367
     37 H17        -5.7650   -0.7220    3.1000 hc        1 16V      0.048367
@<TRIPOS>BOND
     1    1    2 1   
     2    2    3 1   
     3    2    4 1   
     4    4    5 ar  
     5    4    6 ar  
     6    5   10 ar  
     7    5   22 1   
     8    6    7 ar  
     9    6   23 1   
    10    7    8 ar  
    11    7   24 1   
    12    8    9 1   
    13    8   10 ar  
    14   10   11 1   
    15   11   12 1   
    16   12   13 1   
    17   12   25 1   
    18   12   26 1   
    19   13   14 1   
    20   13   27 1   
    21   13   28 1   
    22   14   15 1   
    23   14   29 1   
    24   14   30 1   
    25   15   16 2   
    26   15   20 1   
    27   16   17 1   
    28   16   18 1   
    29   17   31 1   
    30   17   32 1   
    31   17   33 1   
    32   18   19 1   
    33   18   34 1   
    34   19   20 2   
    35   20   21 1   
    36   21   35 1   
    37   21   36 1   
    38   21   37 1   
@<TRIPOS>SUBSTRUCTURE
     1 16V         1 TEMP              0 ****  ****    0 ROOT
