@<TRIPOS>MOLECULE
16V
   37    29     1     0     0
SMALL
bcc


@<TRIPOS>ATOM
      1 OAC         4.6820   -3.0940    4.0600 o         1 16V     -0.566500
      2 CAO         3.6440   -2.4220    4.2460 c1        1 16V      0.360000
      3 OAD         2.7780   -2.8180    5.0610 o         1 16V     -0.566500
      4 CAS         3.4360   -1.1120    3.4860 c1        1 16V     -0.089000
      5 CAH         2.6550   -1.0930    2.3290 c1        1 16V     -0.159000
      6 CAG         3.9530    0.0510    3.9800 c1        1 16V     -0.141000
      7 CAF         3.6990    1.2660    3.3240 c1        1 16V     -0.141000
      8 CAR         2.9320    1.2830    2.1890 c1        1 16V      0.023000
      9 FAE         2.7910    2.4520    1.4760 f         1 16V     -0.123000
     10 CAT         2.4050    0.0970    1.6860 c1        1 16V      0.023000
     11 OAN         1.7610    0.0940    0.4360 o         1 16V     -0.218000
     12 CAJ         0.3330    0.2260    0.5120 c3        1 16V     -0.019000
     13 CAI        -0.2580    0.1180   -0.8890 c3        1 16V     -0.192000
     14 CAK        -1.8470    0.2000   -0.8020 c3        1 16V     -0.082000
     15 CAU        -2.4320    0.2790   -2.2050 c2        1 16V     -0.188000
     16 CAP        -2.8930   -0.7810   -2.9480 c1        1 16V     -0.072000
     17 CAA        -2.9020   -2.2390   -2.5120 c2        1 16V     -0.163500
     18 NAL        -3.4450   -0.2870   -4.0830 n2        1 16V     -0.144000
     19 NAM        -3.3300    1.0970   -4.0510 n2        1 16V     -0.144000
     20 CAQ        -2.7110    1.4390   -2.9030 c1        1 16V     -0.072000
     21 CAB        -2.4100    2.8650   -2.4340 c2        1 16V     -0.163500
     22 H2          2.2730   -1.9520    1.9630 ha        1 16V      0.161000
     23 H3          4.4340    0.0510    4.8640 ha        1 16V      0.140500
     24 H4          4.1590    2.0930    3.6200 ha        1 16V      0.140500
     25 H5         -0.0280   -0.4780    1.0690 h1        1 16V      0.086500
     26 H6          0.1020    1.1080    0.9030 h1        1 16V      0.086500
     27 H7          0.0090   -0.7530   -1.2960 hc        1 16V      0.097500
     28 H8          0.0750    0.8480   -1.4390 hc        1 16V      0.097500
     29 H9         -2.1940   -0.6070   -0.3450 hc        1 16V      0.087000
     30 H10        -2.1050    0.9980   -0.2960 hc        1 16V      0.087000
     31 H11        -3.4380   -2.3340   -1.6990 ha        1 16V      0.098500
     32 H12        -3.2900   -2.7910   -3.2260 ha        1 16V      0.098500
     33 H13        -1.9830   -2.5340   -2.3340 ha        1 16V      0.098500
     34 H14        -3.8210   -0.7710   -4.7420 DU        1 16V      0.260000
     35 H15        -2.7360    2.9810   -1.5170 ha        1 16V      0.098500
     36 H16        -1.4410    3.0200   -2.4610 ha        1 16V      0.098500
     37 H17        -2.8580    3.5000   -3.0210 ha        1 16V      0.098500
@<TRIPOS>BOND
     1    1    2 1   
     2    2    3 1   
     3    4    5 1   
     4    5   22 1   
     5    6    7 1   
     6    6   23 1   
     7    7   24 1   
     8    8   10 1   
     9   11   12 1   
    10   12   13 1   
    11   12   25 1   
    12   12   26 1   
    13   13   14 1   
    14   13   27 1   
    15   13   28 1   
    16   14   15 1   
    17   14   29 1   
    18   14   30 1   
    19   15   16 1   
    20   15   20 1   
    21   16   18 1   
    22   17   31 1   
    23   17   32 1   
    24   17   33 1   
    25   18   19 1   
    26   19   20 1   
    27   21   35 1   
    28   21   36 1   
    29   21   37 1   
@<TRIPOS>SUBSTRUCTURE
     1 16V         1 TEMP              0 ****  ****    0 ROOT
