@<TRIPOS>MOLECULE
16V
   37    38     1     0     0
SMALL
bcc


@<TRIPOS>ATOM
      1 OAC         0.1480    0.6340    0.1590 o         1 16V     -0.826800
      2 CAO         1.3640    0.2920    0.1580 c         1 16V      0.909200
      3 OAD         2.0730    0.1680    1.1960 o         1 16V     -0.826800
      4 CAS         2.0180    0.0060   -1.1880 ca        1 16V     -0.106600
      5 CAH         1.2770    0.1480   -2.3630 ca        1 16V     -0.155000
      6 CAG         3.3550   -0.4000   -1.2570 ca        1 16V     -0.115000
      7 CAF         3.9560   -0.6680   -2.4820 ca        1 16V     -0.169000
      8 CAR         3.2170   -0.5360   -3.6710 ca        1 16V      0.062900
      9 FAE         3.7980   -0.8010   -4.8690 f         1 16V     -0.159900
     10 CAT         1.8650   -0.1220   -3.6010 ca        1 16V      0.057100
     11 OAN         1.2220    0.0010   -4.8250 os        1 16V     -0.337900
     12 CAJ        -0.1910    0.2160   -4.7420 c3        1 16V      0.128400
     13 CAI        -0.7100    0.1200   -6.1670 c3        1 16V     -0.083400
     14 CAK        -2.2170    0.2950   -6.1860 c3        1 16V     -0.002100
     15 CAU        -2.7830    0.0910   -7.5240 cc        1 16V     -0.234600
     16 CAP        -2.8370   -1.1010   -8.2720 cd        1 16V     -0.098600
     17 CAA        -2.3250   -2.4400   -7.9430 c3        1 16V     -0.034800
     18 NAL        -3.4920   -0.7730   -9.4690 na        1 16V     -0.025600
     19 NAM        -3.8470    0.5080   -9.5280 nd        1 16V     -0.527800
     20 CAQ        -3.4360    1.0850   -8.3600 cc        1 16V      0.311600
     21 CAB        -3.6270    2.5020   -7.9980 c3        1 16V     -0.120400
     22 H2          0.2290    0.4750   -2.2700 ha        1 16V      0.164000
     23 H3          3.9170   -0.5010   -0.3150 ha        1 16V      0.158000
     24 H4          5.0050   -0.9860   -2.5410 ha        1 16V      0.123000
     25 H5         -0.3870    1.2320   -4.3080 h1        1 16V      0.042700
     26 H6         -0.6610   -0.5640   -4.0870 h1        1 16V      0.042700
     27 H7         -0.2190    0.9030   -6.7990 hc        1 16V      0.052700
     28 H8         -0.4330   -0.8780   -6.5990 hc        1 16V      0.052700
     29 H9         -2.4780    1.3260   -5.8230 hc        1 16V      0.050200
     30 H10        -2.6830   -0.4390   -5.4700 hc        1 16V      0.050200
     31 H11        -3.0110   -3.2460   -8.3010 hc        1 16V      0.054033
     32 H12        -1.3180   -2.5960   -8.4070 hc        1 16V      0.054033
     33 H13        -2.2170   -2.5280   -6.8320 hc        1 16V      0.054033
     34 H14        -3.6900   -1.3860  -10.2230 hn        1 16V      0.311700
     35 H15        -4.1180    3.0830   -8.8160 hc        1 16V      0.048367
     36 H16        -2.6330    2.9670   -7.7750 hc        1 16V      0.048367
     37 H17        -4.2620    2.5710   -7.0790 hc        1 16V      0.048367
@<TRIPOS>BOND
     1    1    2 1   
     2    2    3 1   
     3    2    4 1   
     4    4    5 ar  
     5    4    6 ar  
     6    5   10 ar  
     7    5   22 1   
     8    6    7 ar  
     9    6   23 1   
    10    7    8 ar  
    11    7   24 1   
    12    8    9 1   
    13    8   10 ar  
    14   10   11 1   
    15   11   12 1   
    16   12   13 1   
    17   12   25 1   
    18   12   26 1   
    19   13   14 1   
    20   13   27 1   
    21   13   28 1   
    22   14   15 1   
    23   14   29 1   
    24   14   30 1   
    25   15   16 2   
    26   15   20 1   
    27   16   17 1   
    28   16   18 1   
    29   17   31 1   
    30   17   32 1   
    31   17   33 1   
    32   18   19 1   
    33   18   34 1   
    34   19   20 2   
    35   20   21 1   
    36   21   35 1   
    37   21   36 1   
    38   21   37 1   
@<TRIPOS>SUBSTRUCTURE
     1 16V         1 TEMP              0 ****  ****    0 ROOT
