@<TRIPOS>MOLECULE
16V
   37    38     1     0     0
SMALL
bcc


@<TRIPOS>ATOM
      1 OAC         0.1390    0.6090    0.1620 o         1 16V     -0.826800
      2 CAO         1.3590    0.2780    0.1610 c         1 16V      0.909200
      3 OAD         2.0680    0.1560    1.1980 o         1 16V     -0.826800
      4 CAS         2.0160    0.0040   -1.1870 ca        1 16V     -0.106600
      5 CAH         1.2740    0.1440   -2.3610 ca        1 16V     -0.155000
      6 CAG         3.3570   -0.3890   -1.2570 ca        1 16V     -0.115000
      7 CAF         3.9600   -0.6460   -2.4830 ca        1 16V     -0.169000
      8 CAR         3.2210   -0.5160   -3.6710 ca        1 16V      0.061900
      9 FAE         3.8050   -0.7700   -4.8700 f         1 16V     -0.159900
     10 CAT         1.8650   -0.1150   -3.6000 ca        1 16V      0.057100
     11 OAN         1.2210    0.0060   -4.8240 os        1 16V     -0.337900
     12 CAJ        -0.1930    0.2130   -4.7410 c3        1 16V      0.128400
     13 CAI        -0.7100    0.1200   -6.1660 c3        1 16V     -0.083400
     14 CAK        -2.2180    0.2880   -6.1860 c3        1 16V     -0.002100
     15 CAU        -2.7830    0.0870   -7.5250 cc        1 16V     -0.234600
     16 CAP        -2.8310   -1.1030   -8.2770 cd        1 16V     -0.098600
     17 CAA        -2.3150   -2.4400   -7.9520 c3        1 16V     -0.034800
     18 NAL        -3.4870   -0.7740   -9.4730 na        1 16V     -0.025600
     19 NAM        -3.8470    0.5060   -9.5280 nd        1 16V     -0.527800
     20 CAQ        -3.4390    1.0820   -8.3580 cc        1 16V      0.311600
     21 CAB        -3.6350    2.4960   -7.9910 c3        1 16V     -0.120400
     22 H2          0.2230    0.4610   -2.2670 ha        1 16V      0.164000
     23 H3          3.9190   -0.4890   -0.3150 ha        1 16V      0.158000
     24 H4          5.0130   -0.9540   -2.5420 ha        1 16V      0.123000
     25 H5         -0.3950    1.2260   -4.3020 h1        1 16V      0.042700
     26 H6         -0.6580   -0.5730   -4.0900 h1        1 16V      0.042700
     27 H7         -0.2220    0.9090   -6.7950 hc        1 16V      0.052700
     28 H8         -0.4290   -0.8740   -6.6020 hc        1 16V      0.052700
     29 H9         -2.4840    1.3170   -5.8190 hc        1 16V      0.050200
     30 H10        -2.6810   -0.4490   -5.4730 hc        1 16V      0.050200
     31 H11        -2.9980   -3.2480   -8.3120 hc        1 16V      0.054033
     32 H12        -1.3070   -2.5910   -8.4160 hc        1 16V      0.054033
     33 H13        -2.2060   -2.5310   -6.8410 hc        1 16V      0.054033
     34 H14        -3.6820   -1.3840  -10.2290 hn        1 16V      0.311700
     35 H15        -4.1280    3.0780   -8.8080 hc        1 16V      0.048367
     36 H16        -2.6440    2.9640   -7.7660 hc        1 16V      0.048367
     37 H17        -4.2720    2.5600   -7.0730 hc        1 16V      0.048367
@<TRIPOS>BOND
     1    1    2 1   
     2    2    3 1   
     3    2    4 1   
     4    4    5 ar  
     5    4    6 ar  
     6    5   10 ar  
     7    5   22 1   
     8    6    7 ar  
     9    6   23 1   
    10    7    8 ar  
    11    7   24 1   
    12    8    9 1   
    13    8   10 ar  
    14   10   11 1   
    15   11   12 1   
    16   12   13 1   
    17   12   25 1   
    18   12   26 1   
    19   13   14 1   
    20   13   27 1   
    21   13   28 1   
    22   14   15 1   
    23   14   29 1   
    24   14   30 1   
    25   15   16 2   
    26   15   20 1   
    27   16   17 1   
    28   16   18 1   
    29   17   31 1   
    30   17   32 1   
    31   17   33 1   
    32   18   19 1   
    33   18   34 1   
    34   19   20 2   
    35   20   21 1   
    36   21   35 1   
    37   21   36 1   
    38   21   37 1   
@<TRIPOS>SUBSTRUCTURE
     1 16V         1 TEMP              0 ****  ****    0 ROOT
