@<TRIPOS>MOLECULE
16W
   43    45     1     0     0
SMALL
bcc


@<TRIPOS>ATOM
      1 C1          0.5380    0.8040   -0.3930 c2        1 16W     -0.109000
      2 C2          1.8230    0.1960    0.0760 c3        1 16W      0.045000
      3 C3          1.7780   -0.3450    1.4700 c2        1 16W     -0.109000
      4 C7          4.0520    1.6210   -5.6120 c1        1 16W     -0.026000
      5 C8          4.4140    0.0130   -4.0200 c2        1 16W      0.147000
      6 C9          4.0930    0.9430   -2.9340 c2        1 16W     -0.322000
      7 C10         3.7160    2.2690   -3.2710 c2        1 16W      0.257000
      8 C11         4.2750    0.1680   -1.7200 c2        1 16W     -0.116000
      9 C12         4.1420    0.6640   -0.3220 c3        1 16W      0.036000
     10 C13         7.1640   -3.6600   -7.6810 c3        1 16W     -0.071000
     11 C14         5.3910   -2.6010   -6.5280 c3        1 16W     -0.019000
     12 C15         4.5010   -2.7920   -5.3090 c3        1 16W     -0.123000
     13 C16         5.1930   -2.3910   -4.0360 c2        1 16W      0.031000
     14 N2          4.3880    0.3570   -5.3370 n2        1 16W     -0.254000
     15 N4          3.7200    2.5620   -4.6330 n7        1 16W     -0.235000
     16 N5          4.7190   -1.2100   -3.3820 na        1 16W     -0.110000
     17 N1          4.6510   -1.0920   -2.0350 n2        1 16W     -0.034000
     18 O2          2.8450    1.1910   -0.0610 os        1 16W     -0.276000
     19 O1          6.2540   -3.7390   -6.5990 os        1 16W     -0.296000
     20 C17         6.1960   -3.1330   -3.5320 c2        1 16W     -0.207000
     21 C4          0.6310   -0.3620    2.1840 c2        1 16W     -0.196000
     22 C5         -0.5280    0.3520    1.7520 c1        1 16W      0.002000
     23 C6         -0.5810    0.7320    0.3690 c2        1 16W     -0.123000
     24 Cl1        -2.0780    1.2500   -0.2410 cl        1 16W      0.013000
     25 H1          0.5720    1.2910   -1.3790 ha        1 16W      0.153000
     26 H2          2.0430   -0.6800   -0.6160 h1        1 16W      0.147000
     27 H3          3.4850    3.4770   -4.9500 hn        1 16W      0.250000
     28 H4          4.8200    1.5510   -0.1700 h1        1 16W      0.114500
     29 H5          4.3950   -0.1340    0.4270 h1        1 16W      0.114500
     30 H6          7.8290   -2.7670   -7.5740 h1        1 16W      0.071000
     31 H7          7.7610   -4.6040   -7.6160 h1        1 16W      0.071000
     32 H8          6.6160   -3.6100   -8.6550 h1        1 16W      0.071000
     33 H9          4.7630   -2.5600   -7.4580 h1        1 16W      0.087000
     34 H10         6.0000   -1.6630   -6.4530 h1        1 16W      0.087000
     35 H11         4.2270   -3.8780   -5.2210 hc        1 16W      0.113500
     36 H12         3.5540   -2.2140   -5.4740 hc        1 16W      0.113500
     37 H13         3.2730    2.8700   -1.3710 hn        1 16W      0.246500
     38 H14         3.0490    4.0820   -2.5490 hn        1 16W      0.246500
     39 H15         6.7300   -2.9040   -2.6030 ha        1 16W      0.139500
     40 H16         6.5240   -4.0330   -4.0730 ha        1 16W      0.139500
     41 H17         2.7320   -0.7270    1.8660 ha        1 16W      0.141000
     42 H18         0.5800   -0.8420    3.1760 ha        1 16W      0.161000
     43 N3          3.3960    3.1870   -2.3050 n8        1 16W     -0.374000
@<TRIPOS>BOND
     1    1    2 1   
     2    1   23 1   
     3    1   25 1   
     4    2    3 1   
     5    2   18 1   
     6    2   26 1   
     7    3   21 1   
     8    3   41 1   
     9    4   14 1   
    10    4   15 1   
    11    5    6 1   
    12    5   14 1   
    13    5   16 1   
    14    6    7 1   
    15    6    8 1   
    16    7   15 1   
    17    7   43 1   
    18    8    9 1   
    19    8   17 1   
    20    9   18 1   
    21    9   28 1   
    22    9   29 1   
    23   10   19 1   
    24   10   30 1   
    25   10   31 1   
    26   10   32 1   
    27   11   12 1   
    28   11   19 1   
    29   11   33 1   
    30   11   34 1   
    31   12   13 1   
    32   12   35 1   
    33   12   36 1   
    34   13   16 1   
    35   13   20 1   
    36   15   27 1   
    37   16   17 1   
    38   20   39 1   
    39   20   40 1   
    40   21   22 1   
    41   21   42 1   
    42   22   23 1   
    43   23   24 1   
    44   37   43 1   
    45   38   43 1   
@<TRIPOS>SUBSTRUCTURE
     1 16W         1 TEMP              0 ****  ****    0 ROOT
