@<TRIPOS>MOLECULE
16W
   43    44     1     0     0
SMALL
bcc


@<TRIPOS>ATOM
      1 C1          0.7080    0.5930   -0.6960 c2        1 16W     -0.102000
      2 C2          2.0200   -0.0300   -0.3290 c3        1 16W      0.041000
      3 C3          1.9710   -0.8300    0.9360 c2        1 16W     -0.101000
      4 C7          4.2070    2.5720   -5.5760 c1        1 16W     -0.022000
      5 C8          4.6740    0.7260   -4.3040 c2        1 16W      0.142000
      6 C9          4.2740    1.4050   -3.0690 c2        1 16W     -0.320000
      7 C10         3.8080    2.7430   -3.1600 c2        1 16W      0.258000
      8 C11         4.4930    0.4210   -2.0240 c2        1 16W     -0.118000
      9 C12         4.3140    0.6270   -0.5600 c3        1 16W      0.036000
     10 C13         7.0350   -5.1610   -6.9240 c1        1 16W     -0.011000
     11 C14         3.5960   -2.7530   -6.0230 c2        1 16W     -0.194000
     12 C15         4.3840   -2.6680   -4.9540 c2        1 16W     -0.208000
     13 C16         5.4710   -1.6330   -4.8230 c3        1 16W      0.082000
     14 N2          4.6330    1.3070   -5.5360 n2        1 16W     -0.257000
     15 N4          3.8020    3.2870   -4.4430 n3        1 16W     -0.236000
     16 N5          5.0930   -0.5580   -3.9010 na        1 16W     -0.146000
     17 N1          4.9580   -0.7270   -2.5690 n2        1 16W     -0.038000
     18 O2          2.9850    1.0230   -0.2320 os        1 16W     -0.270000
     19 O1          5.9740   -5.3530   -6.2360 oh        1 16W     -0.144000
     20 C17         6.7700   -2.3290   -4.4150 c3        1 16W     -0.219000
     21 C4          0.7930   -1.2390    1.4510 c2        1 16W     -0.210000
     22 C5         -0.4640   -0.9290    0.8300 c1        1 16W      0.011000
     23 C6         -0.4370    0.1490   -0.1290 c2        1 16W     -0.136000
     24 CL1        -1.9360    0.8140   -0.5690 cl        1 16W      0.013000
     25 H1          0.7490    1.3710   -1.4730 ha        1 16W      0.154000
     26 H2          2.3050   -0.7350   -1.1730 h1        1 16W      0.141000
     27 H3          3.5050    4.2260   -4.5880 hn        1 16W      0.251000
     28 H4          4.9360    1.5040   -0.2220 h1        1 16W      0.115000
     29 H5          4.6010   -0.2870    0.0260 h1        1 16W      0.115000
     30 H6          7.0050   -3.1080   -5.1820 hc        1 16W      0.090000
     31 H7          7.2160   -4.1410   -7.3420 ha        1 16W     -0.002000
     32 H8          5.3670   -4.5830   -6.1090 ho        1 16W      0.151000
     33 H9          2.8190   -3.5250   -6.1140 ha        1 16W      0.126500
     34 H10         3.6630   -2.0580   -6.8730 ha        1 16W      0.126500
     35 H11         4.2890   -3.3560   -4.0980 ha        1 16W      0.139000
     36 H12         5.6350   -1.1250   -5.8240 h1        1 16W      0.138000
     37 H13         3.3140    2.9450   -1.1890 hn        1 16W      0.247000
     38 H14         3.0210    4.3420   -2.1220 hn        1 16W      0.247000
     39 H15         7.6140   -1.6000   -4.3720 hc        1 16W      0.090000
     40 H16         6.6730   -2.8260   -3.4210 hc        1 16W      0.090000
     41 H17         2.9460   -1.0930    1.3750 ha        1 16W      0.143000
     42 H18         0.7480   -1.8640    2.3590 ha        1 16W      0.161000
     43 N3          3.4150    3.4380   -2.0470 n3        1 16W     -0.375000
@<TRIPOS>BOND
     1    1    2 1   
     2    1   23 1   
     3    1   25 1   
     4    2    3 1   
     5    2   18 1   
     6    2   26 1   
     7    3   21 1   
     8    3   41 1   
     9    4   14 1   
    10    4   15 1   
    11    5    6 1   
    12    5   14 1   
    13    5   16 1   
    14    6    7 1   
    15    6    8 1   
    16    7   15 1   
    17    7   43 1   
    18    8    9 1   
    19    8   17 1   
    20    9   18 1   
    21    9   28 1   
    22    9   29 1   
    23   10   19 1   
    24   10   31 1   
    25   11   12 1   
    26   11   33 1   
    27   11   34 1   
    28   12   13 1   
    29   12   35 1   
    30   13   16 1   
    31   13   20 1   
    32   13   36 1   
    33   15   27 1   
    34   16   17 1   
    35   19   32 1   
    36   20   30 1   
    37   20   39 1   
    38   20   40 1   
    39   21   22 1   
    40   21   42 1   
    41   22   23 1   
    42   23   24 1   
    43   37   43 1   
    44   38   43 1   
@<TRIPOS>SUBSTRUCTURE
     1 16W         1 TEMP              0 ****  ****    0 ROOT
