@<TRIPOS>MOLECULE
16W
   43    36     1     0     0
SMALL
bcc


@<TRIPOS>ATOM
      1 C1         -3.5090    0.1960    3.3170 c1        1 16W     -0.155000
      2 C2         -2.3840   -0.5680    2.9790 c1        1 16W      0.085000
      3 C3         -1.9140   -1.5500    3.8630 c1        1 16W     -0.190000
      4 C7          0.8690    3.6960   -2.2810 c1        1 16W      0.034000
      5 C8          0.8730    1.4510   -1.5340 c1        1 16W      0.082000
      6 C9          0.2530    1.8270   -0.4000 c1        1 16W     -0.269000
      7 C10        -0.0710    3.1750   -0.1940 c1        1 16W      0.236000
      8 C11        -0.0110    0.6860    0.3370 c1        1 16W     -0.114000
      9 C12        -0.4850    0.3170    1.7780 c2        1 16W      0.046000
     10 C13         3.7110   -2.1060   -3.0390 c3        1 16W     -0.025000
     11 C14         1.5660   -2.6380   -4.0980 c3        1 16W     -0.025000
     12 C15         0.8480   -1.7260   -3.1250 c3        1 16W     -0.205500
     13 C16         1.7290   -0.6510   -2.6010 c3        1 16W      0.060000
     14 N2          1.1840    2.3810   -2.4810 n1        1 16W     -0.217000
     15 N4          0.2370    4.0850   -1.1260 n2        1 16W     -0.271000
     16 N5          1.0010    0.0800   -1.5170 n2        1 16W     -0.131000
     17 N1          0.4550   -0.3800   -0.3630 n2        1 16W     -0.041000
     18 N3         -0.5090    4.2350    0.6650 n2        1 16W     -0.341000
     19 O2         -1.7470   -0.3810    1.7050 o         1 16W     -0.229000
     20 O1          2.8340   -3.1610   -3.5520 os        1 16W     -0.268000
     21 C17         2.9940   -1.1810   -2.0520 c3        1 16W     -0.205500
     22 C4         -2.5730   -1.7670    5.0860 c1        1 16W     -0.121000
     23 C5         -3.6950   -1.0040    5.4210 c1        1 16W     -0.121000
     24 C6         -4.1650   -0.0220    4.5380 c1        1 16W     -0.032000
     25 CL1        -5.6310    0.8340    4.8940 cl        1 16W     -0.011000
     26 H1         -3.8410    0.8880    2.6960 ha        1 16W      0.158000
     27 H2         -1.1450   -2.0740    3.6330 ha        1 16W      0.155000
     28 H3          1.0930    4.3530   -2.9550 ha        1 16W      0.190000
     29 H4         -0.5920    1.1370    2.3060 h4        1 16W      0.119500
     30 H5          0.1710   -0.2510    2.1980 h4        1 16W      0.119500
     31 H6          4.4690   -2.5180   -2.5920 h1        1 16W      0.092000
     32 H7          4.0490   -1.5580   -3.8120 h1        1 16W      0.092000
     33 H8          1.7560   -2.1380   -4.9230 h1        1 16W      0.092000
     34 H9          0.9510   -3.4290   -4.3230 h1        1 16W      0.092000
     35 H10         0.5250   -2.2420   -2.3990 hc        1 16W      0.107250
     36 H11         0.0980   -1.3200   -3.5770 hc        1 16W      0.107250
     37 H12         1.9290   -0.0400   -3.3080 h1        1 16W      0.131000
     38 H13        -0.3990    5.0580    0.4250 hn        1 16W      0.235500
     39 H14        -0.9160    4.0380    1.4800 hn        1 16W      0.235500
     40 H15         3.5900   -0.4230   -1.8310 hc        1 16W      0.107250
     41 H16         2.7900   -1.7010   -1.1970 hc        1 16W      0.107250
     42 H17        -2.2440   -2.4570    5.7070 ha        1 16W      0.145500
     43 H18        -4.1420   -1.1520    6.2510 ha        1 16W      0.145500
@<TRIPOS>BOND
     1    1   24 1   
     2    1   26 1   
     3    2    3 1   
     4    3   27 1   
     5    4   15 1   
     6    4   28 1   
     7    5   14 1   
     8    6    7 1   
     9    7   15 1   
    10    8   17 1   
    11    9   19 1   
    12    9   29 1   
    13    9   30 1   
    14   10   20 1   
    15   10   21 1   
    16   10   31 1   
    17   10   32 1   
    18   11   12 1   
    19   11   20 1   
    20   11   33 1   
    21   11   34 1   
    22   12   13 1   
    23   12   35 1   
    24   12   36 1   
    25   13   16 1   
    26   13   21 1   
    27   13   37 1   
    28   16   17 1   
    29   18   38 1   
    30   18   39 1   
    31   21   40 1   
    32   21   41 1   
    33   22   23 1   
    34   22   42 1   
    35   23   43 1   
    36   24   25 1   
@<TRIPOS>SUBSTRUCTURE
     1 16W         1 TEMP              0 ****  ****    0 ROOT
