@<TRIPOS>MOLECULE
16W
   44    45     1     0     0
SMALL
bcc


@<TRIPOS>ATOM
      1 C1          0.7130    0.7850   -0.2150 ca        1 16W     -0.197000
      2 C2          2.0210    0.5190    0.4380 ca        1 16W      0.089100
      3 C3          2.1870   -0.3260    1.5150 ca        1 16W     -0.126000
      4 C7          3.5930    2.5920   -5.3110 ca        1 16W      0.677900
      5 C8          4.3100    0.7800   -4.1300 ca        1 16W      0.459800
      6 C9          3.9690    1.4600   -2.8660 ca        1 16W     -0.419500
      7 C10         3.4090    2.7420   -3.0070 ca        1 16W      0.560200
      8 C11         4.3400    0.5120   -1.8390 cc        1 16W      0.307900
      9 C12         4.2630    0.7080   -0.3630 c3        1 16W      0.121100
     10 C13         8.4790   -5.0700   -7.2750 c         1 16W      0.582700
     11 C14         4.5210   -3.1250   -6.3730 c3        1 16W     -0.104100
     12 C15         4.4940   -1.6890   -5.9100 c3        1 16W     -0.039200
     13 C16         5.3170   -1.4790   -4.6710 c2        1 16W     -0.040300
     14 N2          4.1220    1.3540   -5.3550 nb        1 16W     -0.613000
     15 N4          3.2190    3.3250   -4.2090 nb        1 16W     -0.694000
     16 N5          4.8260   -0.4740   -3.7550 na        1 16W      0.096000
     17 N1          4.8360   -0.6110   -2.4230 nd        1 16W     -0.423100
     18 O2          3.0380    1.3590   -0.0060 os        1 16W     -0.407900
     19 O1          7.7420   -4.2840   -6.6810 o         1 16W     -0.557100
     20 C17         6.4500   -2.1490   -4.4020 c2        1 16W     -0.164000
     21 C4          0.8840   -0.8830    1.8870 ca        1 16W     -0.123000
     22 C5          0.2460   -1.2360    0.7150 ca        1 16W     -0.150000
     23 C6         -0.3310   -0.0710    0.0270 ca        1 16W      0.086400
     24 CL1        -1.9120    0.1370   -0.4460 cl        1 16W     -0.010400
     25 H1          0.6160    1.6890   -0.8230 ha        1 16W      0.126000
     26 H2          0.7230   -1.9560    0.0220 ha        1 16W      0.145000
     27 H4          5.0640    1.4320   -0.0390 h1        1 16W      0.093200
     28 H5          4.3860   -0.2620    0.1890 h1        1 16W      0.093200
     29 H6          9.4560   -5.3910   -6.8560 h4        1 16W     -0.011300
     30 H7          8.2070   -5.5000   -8.2620 h4        1 16W     -0.011300
     31 H8          4.2210   -3.8160   -5.5480 hc        1 16W      0.054033
     32 H9          5.5400   -3.4190   -6.7290 hc        1 16W      0.054033
     33 H10         3.8040   -3.2520   -7.2210 hc        1 16W      0.054033
     34 H11         4.8990   -1.0220   -6.7200 hc        1 16W      0.064700
     35 H12         3.4250   -1.3890   -5.7360 hc        1 16W      0.064700
     36 H13         2.3230    2.8870   -1.2740 hn        1 16W      0.479800
     37 H14         2.5750    4.3830   -2.0250 hn        1 16W      0.479800
     38 H15         7.0620   -1.9970   -3.5030 ha        1 16W      0.161500
     39 H16         6.8230   -2.9160   -5.1030 ha        1 16W      0.161500
     40 H17         3.1110   -0.4530    2.0830 ha        1 16W      0.164000
     41 H18         0.4120   -0.5750    2.8260 ha        1 16W      0.170000
     42 N3          2.9980    3.4770   -1.7940 n4        1 16W     -0.828300
     43 H33         3.8230    3.6170   -1.1990 hn        1 16W      0.479800
     44 H3          3.4290    3.1010   -6.2900 h5        1 16W      0.098100
@<TRIPOS>BOND
     1    1    2 ar  
     2    1   23 ar  
     3    1   25 1   
     4    2    3 ar  
     5    2   18 1   
     6    3   21 ar  
     7    3   40 1   
     8    4   14 ar  
     9    4   15 ar  
    10    4   44 1   
    11    5    6 ar  
    12    5   14 ar  
    13    5   16 1   
    14    6    7 ar  
    15    6    8 1   
    16    7   15 ar  
    17    7   42 1   
    18    8    9 1   
    19    8   17 2   
    20    9   18 1   
    21    9   27 1   
    22    9   28 1   
    23   10   19 2   
    24   10   29 1   
    25   10   30 1   
    26   11   12 1   
    27   11   31 1   
    28   11   32 1   
    29   11   33 1   
    30   12   13 1   
    31   12   34 1   
    32   12   35 1   
    33   13   16 1   
    34   13   20 2   
    35   16   17 1   
    36   20   38 1   
    37   20   39 1   
    38   21   22 ar  
    39   21   41 1   
    40   22   23 ar  
    41   22   26 1   
    42   23   24 1   
    43   36   42 1   
    44   37   42 1   
    45   42   43 1   
@<TRIPOS>SUBSTRUCTURE
     1 16W         1 TEMP              0 ****  ****    0 ROOT
