@<TRIPOS>MOLECULE
16W
   43    46     1     0     0
SMALL
bcc


@<TRIPOS>ATOM
      1 C1         -3.9300    0.1700    0.5350 ca        1 16W     -0.149000
      2 C2         -3.0780    0.0930   -0.5810 ca        1 16W      0.124100
      3 C3         -3.5270    0.4460   -1.8590 ca        1 16W     -0.196000
      4 C7          2.5710   -3.4470    1.0430 ca        1 16W      0.694900
      5 C8          2.3480   -1.3210    0.2980 ca        1 16W      0.471800
      6 C9          0.9800   -1.6020   -0.1100 ca        1 16W     -0.479500
      7 C10         0.4830   -2.9190    0.1350 ca        1 16W      0.753200
      8 C11         0.5100   -0.3550   -0.6760 cc        1 16W      0.361900
      9 C12        -0.8150   -0.1010   -1.3030 c3        1 16W      0.121100
     10 C13         5.8260    1.8470   -0.8460 c3        1 16W      0.125900
     11 C14         5.0370    2.6460    1.2420 c3        1 16W      0.125900
     12 C15         3.6770    1.9970    1.0440 c3        1 16W     -0.127400
     13 C16         3.8380    0.7430    0.1710 c3        1 16W      0.080000
     14 N2          3.1710   -2.2470    0.8810 nb        1 16W     -0.741000
     15 N4          1.3080   -3.8450    0.7290 nb        1 16W     -0.795000
     16 N5          2.5760    0.0310   -0.0320 na        1 16W      0.003200
     17 N1          1.4900    0.5810   -0.6030 nd        1 16W     -0.500100
     18 O2         -1.8120   -0.3940   -0.3080 os        1 16W     -0.342900
     19 O1          5.6560    2.9750    0.0040 os        1 16W     -0.411600
     20 C17         4.5070    1.1560   -1.1490 c3        1 16W     -0.127400
     21 C4         -4.8440    0.8770   -2.0190 ca        1 16W     -0.089000
     22 C5         -5.7070    0.9550   -0.9300 ca        1 16W     -0.152000
     23 C6         -5.2430    0.5980    0.3420 ca        1 16W      0.045400
     24 CL1        -6.2930    0.6920    1.6760 cl        1 16W     -0.085400
     25 H1         -3.5520   -0.1060    1.5310 ha        1 16W      0.165000
     26 H2         -2.8610    0.3850   -2.7310 ha        1 16W      0.143000
     27 H3          3.2010   -4.2340    1.5140 h5        1 16W      0.053100
     28 H4         -0.9180    0.9630   -1.6480 h1        1 16W      0.064200
     29 H5         -0.9630   -0.8030   -2.1690 h1        1 16W      0.064200
     30 H6          6.2750    2.2760   -1.7810 h1        1 16W      0.052200
     31 H7          6.5480    1.1270   -0.3730 h1        1 16W      0.052200
     32 H8          4.9340    3.6330    1.7650 h1        1 16W      0.052200
     33 H9          5.7130    1.9710    1.8320 h1        1 16W      0.052200
     34 H10         3.2470    1.7270    2.0420 hc        1 16W      0.068700
     35 H11         2.9820    2.7230    0.5480 hc        1 16W      0.068700
     36 H12         4.5210    0.0170    0.7080 h1        1 16W      0.090700
     37 H13        -1.4320   -2.5270   -0.4090 hn        1 16W      0.436300
     38 H14        -1.1580   -4.1390    0.0390 hn        1 16W      0.436300
     39 H15         3.8380    1.8550   -1.7140 hc        1 16W      0.068700
     40 H16         4.6980    0.2590   -1.7900 hc        1 16W      0.068700
     41 H17        -5.2040    1.1580   -3.0210 ha        1 16W      0.141000
     42 H18        -6.7440    1.2960   -1.0670 ha        1 16W      0.151000
     43 N3         -0.7870   -3.2710   -0.2700 nh        1 16W     -0.939500
@<TRIPOS>BOND
     1    1    2 ar  
     2    1   23 ar  
     3    1   25 1   
     4    2    3 ar  
     5    2   18 1   
     6    3   21 ar  
     7    3   26 1   
     8    4   14 ar  
     9    4   15 ar  
    10    4   27 1   
    11    5    6 ar  
    12    5   14 ar  
    13    5   16 1   
    14    6    7 ar  
    15    6    8 1   
    16    7   15 ar  
    17    7   43 1   
    18    8    9 1   
    19    8   17 2   
    20    9   18 1   
    21    9   28 1   
    22    9   29 1   
    23   10   19 1   
    24   10   20 1   
    25   10   30 1   
    26   10   31 1   
    27   11   12 1   
    28   11   19 1   
    29   11   32 1   
    30   11   33 1   
    31   12   13 1   
    32   12   34 1   
    33   12   35 1   
    34   13   16 1   
    35   13   20 1   
    36   13   36 1   
    37   16   17 1   
    38   20   39 1   
    39   20   40 1   
    40   21   22 ar  
    41   21   41 1   
    42   22   23 ar  
    43   22   42 1   
    44   23   24 1   
    45   37   43 1   
    46   38   43 1   
@<TRIPOS>SUBSTRUCTURE
     1 16W         1 TEMP              0 ****  ****    0 ROOT
