@<TRIPOS>MOLECULE
16X
   35    31     1     0     0
SMALL
bcc


@<TRIPOS>ATOM
      1 N7A        -5.9010    2.4780    2.8080 n3        1 16X     -0.296000
      2 C3A        -4.9350    1.6200    2.1990 c2        1 16X     -0.128000
      3 N2A        -5.0040    0.1920    2.1260 n2        1 16X     -0.187000
      4 C1A        -3.7680   -0.3250    1.3060 c1        1 16X      0.039000
      5 C6A        -3.4510   -1.7850    0.9900 c2        1 16X     -0.155000
      6 S4A        -3.6660    2.0740    1.4380 ss        1 16X      0.451000
      7 C5A        -2.9780    0.8200    0.9030 c2        1 16X     -0.411000
      8 C4         -1.8410    0.7900    0.0880 c1        1 16X      0.156000
      9 N3         -0.6250    0.6200    0.6390 n1        1 16X     -0.225000
     10 C5         -1.9550    1.0370   -1.2540 c1        1 16X     -0.293000
     11 C6         -0.8320    1.1100   -2.0330 c1        1 16X      0.002000
     12 N1          0.3830    0.9390   -1.4800 n1        1 16X     -0.214000
     13 C2          0.4970    0.6930   -0.1410 c1        1 16X      0.151000
     14 N7          1.7950    0.5790    0.4580 n3        1 16X     -0.225000
     15 C1B         2.9030    0.0940   -0.3150 c2        1 16X      0.042000
     16 C6B         3.6530    0.9780   -1.0850 c2        1 16X     -0.078000
     17 C2B         3.2800   -1.2420   -0.2260 c1        1 16X     -0.112000
     18 C3B         4.4060   -1.6940   -0.9070 c1        1 16X     -0.118000
     19 N7B         4.7710   -2.9900   -0.8210 n2        1 16X      0.138000
     20 O8B         4.8740   -4.2880   -1.3570 os        1 16X     -0.094000
     21 O9B         5.4410   -3.9970   -0.1000 os        1 16X     -0.094000
     22 C4B         5.1550   -0.8100   -1.6760 c1        1 16X     -0.108000
     23 C5B         4.7780    0.5260   -1.7650 c1        1 16X     -0.125000
     24 H7A1       -5.7370    3.3770    2.8770 hn        1 16X      0.205500
     25 H7A2       -6.6780    2.1260    3.1470 hn        1 16X      0.205500
     26 H6A1       -3.5150   -1.9310    0.0210 ha        1 16X      0.102667
     27 H6A2       -2.5420   -1.9960    1.2940 ha        1 16X      0.102667
     28 H6A3       -4.0950   -2.3670    1.4530 ha        1 16X      0.102667
     29 H5         -2.8420    1.1610   -1.6570 ha        1 16X      0.155000
     30 H6         -0.9130    1.2870   -2.9960 ha        1 16X      0.166000
     31 H7          1.9230    0.8390    1.3300 hn        1 16X      0.232000
     32 H6B         3.3870    1.9210   -1.1470 ha        1 16X      0.162000
     33 H2B         2.7750   -1.8560    0.3490 ha        1 16X      0.152000
     34 H5B         5.3070    1.1500   -2.3080 ha        1 16X      0.144000
     35 H4B         5.9490   -1.1290   -2.1560 ha        1 16X      0.153000
@<TRIPOS>BOND
     1    1    2 1   
     2    1   24 1   
     3    1   25 1   
     4    2    3 1   
     5    2    6 1   
     6    3    4 1   
     7    4    7 1   
     8    5   26 1   
     9    5   27 1   
    10    5   28 1   
    11    6    7 1   
    12    7    8 1   
    13    8   10 1   
    14    9   13 1   
    15   10   29 1   
    16   11   12 1   
    17   11   30 1   
    18   13   14 1   
    19   14   15 1   
    20   14   31 1   
    21   15   16 1   
    22   15   17 1   
    23   16   23 1   
    24   16   32 1   
    25   17   33 1   
    26   18   22 1   
    27   19   20 1   
    28   19   21 1   
    29   20   21 1   
    30   22   35 1   
    31   23   34 1   
@<TRIPOS>SUBSTRUCTURE
     1 16X         1 TEMP              0 ****  ****    0 ROOT
