@<TRIPOS>MOLECULE
16X
   35    38     1     0     0
SMALL
bcc


@<TRIPOS>ATOM
      1 N7A         0.0060    0.6090   -0.0100 nv        1 16X     -0.897500
      2 C3A         1.3570    0.3200    0.1290 cc        1 16X      0.641300
      3 N2A         2.0000    0.1390    1.3050 nd        1 16X     -0.713000
      4 C1A         3.3640    0.0010    1.0880 cd        1 16X      0.460600
      5 C6A         4.2770   -0.2010    2.2390 c3        1 16X     -0.131400
      6 S4A         2.4070    0.3100   -1.2570 ss        1 16X     -0.132300
      7 C5A         3.7540    0.0550   -0.2560 cc        1 16X     -0.312900
      8 C4          5.0750   -0.0790   -0.8340 ca        1 16X      0.590800
      9 N3          6.1610   -0.2080   -0.0350 nb        1 16X     -0.751000
     10 C5          5.1940   -0.0590   -2.2500 ca        1 16X     -0.423600
     11 C6          6.4810   -0.1780   -2.7870 ca        1 16X      0.469200
     12 N1          7.5890   -0.3160   -2.0390 nb        1 16X     -0.738000
     13 C2          7.3910   -0.3420   -0.6670 ca        1 16X      0.868900
     14 N7          8.4960   -0.5800    0.1870 nu        1 16X     -0.705300
     15 C1B         9.8220   -0.3300   -0.2430 ca        1 16X      0.123600
     16 C6B        10.6260    0.5940    0.4600 ca        1 16X     -0.141000
     17 C2B        10.3810   -1.0600   -1.3110 ca        1 16X     -0.047000
     18 C3B        11.7230   -0.8480   -1.6660 ca        1 16X     -0.041400
     19 N7B        12.2300   -1.6450   -2.7830 nh        1 16X     -0.042000
     20 O8B        13.1140   -1.0080   -3.5980 os        1 16X     -0.043800
     21 O9B        13.5600   -1.9240   -2.7420 os        1 16X     -0.043800
     22 C4B        12.5120    0.0740   -0.9600 ca        1 16X     -0.109000
     23 C5B        11.9570    0.7820    0.1000 ca        1 16X     -0.119000
     24 H7A1       -0.5310    0.5580    0.8310 hn        1 16X      0.410300
     25 H7A2       -0.4260    0.1560   -0.7860 hn        1 16X      0.410300
     26 H6A1        4.8320   -1.1640    2.1120 hc        1 16X      0.063033
     27 H6A2        3.7230   -0.2340    3.2100 hc        1 16X      0.063033
     28 H6A3        5.0170    0.6370    2.2780 hc        1 16X      0.063033
     29 H5          4.3150    0.0490   -2.8970 ha        1 16X      0.155000
     30 H6          6.6500   -0.1610   -3.8800 h4        1 16X      0.030100
     31 H7          8.3310   -0.3420    1.1460 hn        1 16X      0.436800
     32 H6B        10.2090    1.1710    1.3000 ha        1 16X      0.139000
     33 H2B         9.7700   -1.7920   -1.8660 ha        1 16X      0.175000
     34 H5B        12.5740    1.5040    0.6570 ha        1 16X      0.143000
     35 H4B        13.5640    0.2310   -1.2480 ha        1 16X      0.154000
@<TRIPOS>BOND
     1    1    2 1   
     2    1   24 1   
     3    1   25 1   
     4    2    3 2   
     5    2    6 1   
     6    3    4 1   
     7    4    5 1   
     8    4    7 2   
     9    5   26 1   
    10    5   27 1   
    11    5   28 1   
    12    6    7 1   
    13    7    8 1   
    14    8    9 ar  
    15    8   10 ar  
    16    9   13 ar  
    17   10   11 ar  
    18   10   29 1   
    19   11   12 ar  
    20   11   30 1   
    21   12   13 ar  
    22   13   14 1   
    23   14   15 1   
    24   14   31 1   
    25   15   16 ar  
    26   15   17 ar  
    27   16   23 ar  
    28   16   32 1   
    29   17   18 ar  
    30   17   33 1   
    31   18   19 1   
    32   18   22 ar  
    33   19   20 1   
    34   19   21 1   
    35   20   21 1   
    36   22   23 ar  
    37   22   35 1   
    38   23   34 1   
@<TRIPOS>SUBSTRUCTURE
     1 16X         1 TEMP              0 ****  ****    0 ROOT
