@<TRIPOS>MOLECULE
16X
   35    38     1     0     0
SMALL
bcc


@<TRIPOS>ATOM
      1 N7A         7.1290   -0.2960    0.4320 nh        1 16X     -0.897500
      2 C3A         5.7990    0.0620    0.2580 cc        1 16X      0.639300
      3 N2A         5.3660    1.2310   -0.2680 nd        1 16X     -0.712000
      4 C1A         3.9870    1.2060   -0.4190 cd        1 16X      0.458600
      5 C6A         3.2820    2.3780   -0.9930 c3        1 16X     -0.131400
      6 S4A         4.5260   -1.0780    0.5820 ss        1 16X     -0.130300
      7 C5A         3.3700    0.0250    0.0110 cc        1 16X     -0.313900
      8 C4          1.9640   -0.3210    0.0190 ca        1 16X      0.588800
      9 N3          1.0240    0.6410   -0.1470 nb        1 16X     -0.750000
     10 C5          1.6070   -1.6810    0.2230 ca        1 16X     -0.421600
     11 C6          0.2400   -1.9870    0.2480 ca        1 16X      0.468200
     12 N1         -0.7290   -1.0720    0.0820 nb        1 16X     -0.737000
     13 C2         -0.3020    0.2300   -0.1300 ca        1 16X      0.867900
     14 N7         -1.2590    1.2350   -0.4110 nh        1 16X     -0.705300
     15 C1B        -2.6150    1.0830   -0.0320 ca        1 16X      0.123600
     16 C6B        -3.2110    2.0230    0.8380 ca        1 16X     -0.142000
     17 C2B        -3.4060    0.0550   -0.5850 ca        1 16X     -0.047000
     18 C3B        -4.7680   -0.0250   -0.2510 ca        1 16X     -0.041400
     19 N7B        -5.5200   -1.1180   -0.8660 nh        1 16X     -0.041000
     20 O8B        -6.4770   -1.6790   -0.0790 os        1 16X     -0.043800
     21 O9B        -6.8410   -0.8710   -1.0700 os        1 16X     -0.043800
     22 C4B        -5.3480    0.9150    0.6160 ca        1 16X     -0.109000
     23 C5B        -4.5640    1.9340    1.1470 ca        1 16X     -0.119000
     24 H7A1        7.7940    0.4270    0.2490 hn        1 16X      0.409300
     25 H7A2        7.3040   -0.7900    1.2800 hn        1 16X      0.409300
     26 H6A1        2.6210    2.0450   -1.8320 hc        1 16X      0.062367
     27 H6A2        2.6470    2.8530   -0.2040 hc        1 16X      0.062367
     28 H6A3        3.9980    3.1430   -1.3840 hc        1 16X      0.062367
     29 H5          2.3690   -2.4580    0.3500 ha        1 16X      0.156000
     30 H6         -0.1120   -3.0230    0.4120 h4        1 16X      0.031100
     31 H7         -0.9140    2.1700   -0.3090 hn        1 16X      0.436800
     32 H6B        -2.6110    2.8370    1.2760 ha        1 16X      0.139000
     33 H2B        -2.9590   -0.6820   -1.2730 ha        1 16X      0.175000
     34 H5B        -5.0170    2.6740    1.8250 ha        1 16X      0.143000
     35 H4B        -6.4170    0.8420    0.8700 ha        1 16X      0.154000
@<TRIPOS>BOND
     1    1    2 1   
     2    1   24 1   
     3    1   25 1   
     4    2    3 2   
     5    2    6 1   
     6    3    4 1   
     7    4    5 1   
     8    4    7 2   
     9    5   26 1   
    10    5   27 1   
    11    5   28 1   
    12    6    7 1   
    13    7    8 1   
    14    8    9 ar  
    15    8   10 ar  
    16    9   13 ar  
    17   10   11 ar  
    18   10   29 1   
    19   11   12 ar  
    20   11   30 1   
    21   12   13 ar  
    22   13   14 1   
    23   14   15 1   
    24   14   31 1   
    25   15   16 ar  
    26   15   17 ar  
    27   16   23 ar  
    28   16   32 1   
    29   17   18 ar  
    30   17   33 1   
    31   18   19 1   
    32   18   22 ar  
    33   19   20 1   
    34   19   21 1   
    35   20   21 1   
    36   22   23 ar  
    37   22   35 1   
    38   23   34 1   
@<TRIPOS>SUBSTRUCTURE
     1 16X         1 TEMP              0 ****  ****    0 ROOT
