@<TRIPOS>MOLECULE
16X
   37    40     1     0     0
SMALL
bcc


@<TRIPOS>ATOM
      1 N7A         0.9640   -0.4070    1.9310 n4        1 16X     -0.779300
      2 C3A         2.1260   -0.0410    1.1370 cc        1 16X      0.328300
      3 N2A         2.4270    1.2740    0.9410 nd        1 16X     -0.574000
      4 C1A         3.5490    1.3740    0.1570 cd        1 16X      0.435600
      5 C6A         4.1090    2.6990   -0.2070 c3        1 16X     -0.157400
      6 S4A         3.1920   -1.1350    0.3960 ss        1 16X      0.217700
      7 C5A         4.0820    0.1180   -0.2350 cc        1 16X     -0.302900
      8 C4          5.2500   -0.0680   -1.0850 ca        1 16X      0.530800
      9 N3          6.1520   -1.0350   -0.7390 nb        1 16X     -0.683000
     10 C5          5.4250    0.7300   -2.2360 ca        1 16X     -0.282600
     11 C6          6.5750    0.4980   -3.0250 ca        1 16X      0.480200
     12 N1          7.4890   -0.4350   -2.7120 nb        1 16X     -0.642000
     13 C2          7.2290   -1.1600   -1.5710 ca        1 16X      0.728900
     14 N7          8.2550   -2.1920   -1.2050 n4        1 16X     -0.605100
     15 C1B         9.4670   -1.5740   -0.6490 ca        1 16X     -0.067400
     16 C6B         9.6660   -1.5770    0.7450 ca        1 16X     -0.088000
     17 C2B        10.4170   -1.0200   -1.5220 ca        1 16X     -0.051000
     18 C3B        11.5870   -0.4630   -0.9810 ca        1 16X     -0.008400
     19 N7B        12.4900    0.2350   -1.8990 nh        1 16X     -0.044000
     20 O8B        13.7750    0.3390   -1.4910 os        1 16X     -0.001800
     21 O9B        13.4650   -0.5250   -2.4570 os        1 16X     -0.001800
     22 C4B        11.8020   -0.4810    0.4080 ca        1 16X     -0.038000
     23 C5B        10.8400   -1.0320    1.2560 ca        1 16X     -0.100000
     24 H7A1        0.1100   -0.0140    1.5010 hn        1 16X      0.483800
     25 H7A2        1.0540   -0.0170    2.8840 hn        1 16X      0.483800
     26 H6A1        3.5640    3.1100   -1.0960 hc        1 16X      0.088033
     27 H6A2        5.1960    2.6040   -0.4520 hc        1 16X      0.088033
     28 H6A3        3.9960    3.4320    0.6340 hc        1 16X      0.088033
     29 H5          4.6920    1.5010   -2.5200 ha        1 16X      0.201000
     30 H6          6.7780    1.0830   -3.9490 h4        1 16X      0.092100
     31 H7          7.8570   -2.8430   -0.5120 hn        1 16X      0.483800
     32 H6B         8.9210   -2.0060    1.4350 ha        1 16X      0.160000
     33 H2B        10.2570   -1.0120   -2.6170 ha        1 16X      0.186000
     34 H5B        11.0150   -1.0420    2.3460 ha        1 16X      0.184000
     35 H4B        12.7350   -0.0600    0.8310 ha        1 16X      0.194000
     36 H7A3        0.8820   -1.4270    1.9840 hn        1 16X      0.483800
     37 H72         8.5080   -2.7150   -2.0590 hn        1 16X      0.483800
@<TRIPOS>BOND
     1    1    2 1   
     2    1   24 1   
     3    1   25 1   
     4    1   36 1   
     5    2    3 2   
     6    2    6 1   
     7    3    4 1   
     8    4    5 1   
     9    4    7 2   
    10    5   26 1   
    11    5   27 1   
    12    5   28 1   
    13    6    7 1   
    14    7    8 1   
    15    8    9 ar  
    16    8   10 ar  
    17    9   13 ar  
    18   10   11 ar  
    19   10   29 1   
    20   11   12 ar  
    21   11   30 1   
    22   12   13 ar  
    23   13   14 1   
    24   14   15 1   
    25   14   31 1   
    26   14   37 1   
    27   15   16 ar  
    28   15   17 ar  
    29   16   23 ar  
    30   16   32 1   
    31   17   18 ar  
    32   17   33 1   
    33   18   19 1   
    34   18   22 ar  
    35   19   20 1   
    36   19   21 1   
    37   20   21 1   
    38   22   23 ar  
    39   22   35 1   
    40   23   34 1   
@<TRIPOS>SUBSTRUCTURE
     1 16X         1 TEMP              0 ****  ****    0 ROOT
