@<TRIPOS>MOLECULE
16Y
   50    48     1     0     0
SMALL
bcc


@<TRIPOS>ATOM
      1 O19        -5.7370    3.0410    7.8220 o         1 16Y     -0.588500
      2 C17        -4.6010    3.5650    7.6780 c1        1 16Y      0.327000
      3 O18        -3.9010    3.8370    8.6890 o         1 16Y     -0.588500
      4 C16        -4.0800    3.8730    6.2920 c2        1 16Y     -0.222000
      5 C15        -3.1630    2.7580    5.8390 c3        1 16Y     -0.144000
      6 C14        -2.8430    2.9340    4.3710 c3        1 16Y     -0.157000
      7 C13        -1.8280    1.8950    3.9480 c3        1 16Y     -0.157000
      8 C12        -1.6750    1.9210    2.4430 c3        1 16Y     -0.157000
      9 C11        -0.5790    0.9630    2.0300 c3        1 16Y     -0.158000
     10 C10        -0.5180    0.8880    0.5210 c3        1 16Y     -0.157000
     11 C1          0.5880   -0.0590    0.1080 c3        1 16Y     -0.158000
     12 C2          0.5930   -0.2020   -1.3980 c3        1 16Y     -0.157000
     13 C3          1.6450   -1.2100   -1.8060 c3        1 16Y     -0.158000
     14 C4          1.6280   -1.3770   -3.3090 c3        1 16Y     -0.158000
     15 C5          2.6080   -2.4580   -3.7080 c3        1 16Y     -0.157000
     16 C6          2.5750   -2.6410   -5.2090 c3        1 16Y     -0.158000
     17 C7          3.5430   -3.7340   -5.6060 c3        1 16Y     -0.162000
     18 C8          3.4760   -3.9480   -7.1020 c3        1 16Y     -0.019000
     19 O9          4.2080   -5.1040   -7.4440 oh        1 16Y     -0.330000
     20 H2         -4.8320    3.9490    5.6700 ha        1 16Y      0.058000
     21 H3         -3.5850    4.7160    6.3090 ha        1 16Y      0.058000
     22 H4         -3.6050    1.8960    5.9750 hc        1 16Y      0.083000
     23 H5         -2.3350    2.7860    6.3590 hc        1 16Y      0.083000
     24 H6         -3.6600    2.8240    3.8430 hc        1 16Y      0.065000
     25 H7         -2.1310    1.0080    4.2290 hc        1 16Y      0.076000
     26 H8         -1.4420    2.8270    2.1550 hc        1 16Y      0.073500
     27 H9         -2.5170    1.6530    2.0250 hc        1 16Y      0.073500
     28 H10        -0.7690    0.0750    2.3940 hc        1 16Y      0.077000
     29 H11         0.2790    1.2810    2.3760 hc        1 16Y      0.077000
     30 H12        -0.3380    1.7780    0.1570 hc        1 16Y      0.076000
     31 H13        -1.3730    0.5610    0.1760 hc        1 16Y      0.076000
     32 H14         0.4380   -0.9340    0.5180 hc        1 16Y      0.078000
     33 H15         1.4490    0.2970    0.4040 hc        1 16Y      0.078000
     34 H16         0.7950    0.6640   -1.8070 hc        1 16Y      0.077000
     35 H17        -0.2860   -0.5080   -1.7000 hc        1 16Y      0.077000
     36 H18         1.4550   -2.0690   -1.3800 hc        1 16Y      0.079000
     37 H19         2.5260   -0.8930   -1.5230 hc        1 16Y      0.079000
     38 H20         0.7280   -1.6300   -3.5990 hc        1 16Y      0.078000
     39 H21         1.8820   -0.5340   -3.7340 hc        1 16Y      0.078000
     40 H22         2.3620   -3.2980   -3.2710 hc        1 16Y      0.081000
     41 H23         3.5100   -2.1990   -3.4310 hc        1 16Y      0.081000
     42 H24         1.6700   -2.8900   -5.4870 hc        1 16Y      0.078000
     43 H25         2.8310   -1.8040   -5.6450 hc        1 16Y      0.078000
     44 H26         3.3040   -4.5640   -5.1460 hc        1 16Y      0.094000
     45 H27         4.4510   -3.4720   -5.3540 hc        1 16Y      0.094000
     46 H28         2.5420   -4.0600   -7.3740 h1        1 16Y      0.058000
     47 H29         3.8590   -3.1720   -7.5600 h1        1 16Y      0.058000
     48 H30         4.2940   -5.1500   -8.3280 ho        1 16Y      0.195000
     49 H31        -2.4760    3.8280    4.2220 hc        1 16Y      0.065000
     50 H32        -0.9660    2.0920    4.3670 hc        1 16Y      0.076000
@<TRIPOS>BOND
     1    1    2 1   
     2    2    3 1   
     3    4    5 1   
     4    4   20 1   
     5    4   21 1   
     6    5    6 1   
     7    5   22 1   
     8    5   23 1   
     9    6    7 1   
    10    6   24 1   
    11    6   49 1   
    12    7    8 1   
    13    7   25 1   
    14    7   50 1   
    15    8    9 1   
    16    8   26 1   
    17    8   27 1   
    18    9   10 1   
    19    9   28 1   
    20    9   29 1   
    21   10   11 1   
    22   10   30 1   
    23   10   31 1   
    24   11   12 1   
    25   11   32 1   
    26   11   33 1   
    27   12   13 1   
    28   12   34 1   
    29   12   35 1   
    30   13   14 1   
    31   13   36 1   
    32   13   37 1   
    33   14   15 1   
    34   14   38 1   
    35   14   39 1   
    36   15   16 1   
    37   15   40 1   
    38   15   41 1   
    39   16   17 1   
    40   16   42 1   
    41   16   43 1   
    42   17   18 1   
    43   17   44 1   
    44   17   45 1   
    45   18   19 1   
    46   18   46 1   
    47   18   47 1   
    48   19   48 1   
@<TRIPOS>SUBSTRUCTURE
     1 16Y         1 TEMP              0 ****  ****    0 ROOT
