@<TRIPOS>MOLECULE
16Y
   50    49     1     0     0
SMALL
bcc


@<TRIPOS>ATOM
      1 O19         8.9350   -1.0900    1.0260 o         1 16Y     -0.853800
      2 C17         8.9170   -0.1910    0.1360 c         1 16Y      0.907600
      3 O18         9.8960    0.0670   -0.6220 o         1 16Y     -0.853800
      4 C16         7.6440    0.6580   -0.0260 c3        1 16Y     -0.193400
      5 C15         6.4060   -0.2060   -0.0370 c3        1 16Y     -0.065400
      6 C14         5.1390    0.6230   -0.0090 c3        1 16Y     -0.078400
      7 C13         3.9030   -0.2510   -0.0410 c3        1 16Y     -0.078400
      8 C12         2.6360    0.5760   -0.0020 c3        1 16Y     -0.078400
      9 C11         1.4020   -0.2990   -0.0360 c3        1 16Y     -0.079400
     10 C10         0.1360    0.5290    0.0040 c3        1 16Y     -0.078400
     11 C1         -1.0980   -0.3460   -0.0310 c3        1 16Y     -0.079400
     12 C2         -2.3630    0.4850    0.0100 c3        1 16Y     -0.078400
     13 C3         -3.5980   -0.3890   -0.0260 c3        1 16Y     -0.079400
     14 C4         -4.8610    0.4440    0.0170 c3        1 16Y     -0.079400
     15 C5         -6.0980   -0.4280   -0.0200 c3        1 16Y     -0.078400
     16 C6         -7.3590    0.4080    0.0230 c3        1 16Y     -0.079400
     17 C7         -8.5940   -0.4640   -0.0150 c3        1 16Y     -0.083400
     18 C8         -9.8500    0.3890    0.0300 c3        1 16Y      0.131400
     19 O9        -10.9600   -0.4960   -0.0100 oh        1 16Y     -0.602800
     20 H2          7.6010    1.3760    0.8320 hc        1 16Y      0.018700
     21 H3          7.7120    1.2540   -0.9700 hc        1 16Y      0.018700
     22 H4          6.4100   -0.8520   -0.9540 hc        1 16Y      0.043700
     23 H5          6.4390   -0.8930    0.8500 hc        1 16Y      0.043700
     24 H6          5.1260    1.2560    0.9170 hc        1 16Y      0.025700
     25 H7          3.9130   -0.8800   -0.9700 hc        1 16Y      0.036700
     26 H8          2.6270    1.2040    0.9280 hc        1 16Y      0.034200
     27 H9          2.6220    1.2810   -0.8750 hc        1 16Y      0.034200
     28 H10         1.4120   -0.9260   -0.9670 hc        1 16Y      0.037700
     29 H11         1.4180   -1.0040    0.8360 hc        1 16Y      0.037700
     30 H12         0.1270    1.1560    0.9350 hc        1 16Y      0.036700
     31 H13         0.1220    1.2350   -0.8680 hc        1 16Y      0.036700
     32 H14        -1.0890   -0.9710   -0.9620 hc        1 16Y      0.038700
     33 H15        -1.0830   -1.0520    0.8410 hc        1 16Y      0.038700
     34 H16        -2.3710    1.1100    0.9420 hc        1 16Y      0.037700
     35 H17        -2.3760    1.1920   -0.8610 hc        1 16Y      0.037700
     36 H18        -3.5900   -1.0130   -0.9580 hc        1 16Y      0.039700
     37 H19        -3.5840   -1.0950    0.8460 hc        1 16Y      0.039700
     38 H20        -4.8690    1.0680    0.9490 hc        1 16Y      0.038700
     39 H21        -4.8740    1.1520   -0.8540 hc        1 16Y      0.038700
     40 H22        -6.0910   -1.0510   -0.9530 hc        1 16Y      0.041700
     41 H23        -6.0850   -1.1350    0.8500 hc        1 16Y      0.041700
     42 H24        -7.3650    1.0310    0.9560 hc        1 16Y      0.038700
     43 H25        -7.3700    1.1160   -0.8480 hc        1 16Y      0.038700
     44 H26        -8.6030   -1.0860   -0.9480 hc        1 16Y      0.054700
     45 H27        -8.5970   -1.1720    0.8540 hc        1 16Y      0.054700
     46 H28        -9.8810    0.9980    0.9740 h1        1 16Y      0.018700
     47 H29        -9.8860    1.0860   -0.8500 h1        1 16Y      0.018700
     48 H30       -11.7500    0.0550    0.0200 ho        1 16Y      0.396000
     49 H31         5.1260    1.3220   -0.8860 hc        1 16Y      0.025700
     50 H32         3.9210   -0.9540    0.8330 hc        1 16Y      0.036700
@<TRIPOS>BOND
     1    1    2 1   
     2    2    3 1   
     3    2    4 1   
     4    4    5 1   
     5    4   20 1   
     6    4   21 1   
     7    5    6 1   
     8    5   22 1   
     9    5   23 1   
    10    6    7 1   
    11    6   24 1   
    12    6   49 1   
    13    7    8 1   
    14    7   25 1   
    15    7   50 1   
    16    8    9 1   
    17    8   26 1   
    18    8   27 1   
    19    9   10 1   
    20    9   28 1   
    21    9   29 1   
    22   10   11 1   
    23   10   30 1   
    24   10   31 1   
    25   11   12 1   
    26   11   32 1   
    27   11   33 1   
    28   12   13 1   
    29   12   34 1   
    30   12   35 1   
    31   13   14 1   
    32   13   36 1   
    33   13   37 1   
    34   14   15 1   
    35   14   38 1   
    36   14   39 1   
    37   15   16 1   
    38   15   40 1   
    39   15   41 1   
    40   16   17 1   
    41   16   42 1   
    42   16   43 1   
    43   17   18 1   
    44   17   44 1   
    45   17   45 1   
    46   18   19 1   
    47   18   46 1   
    48   18   47 1   
    49   19   48 1   
@<TRIPOS>SUBSTRUCTURE
     1 16Y         1 TEMP              0 ****  ****    0 ROOT
