@<TRIPOS>MOLECULE
16Y
   50    49     1     0     0
SMALL
bcc


@<TRIPOS>ATOM
      1 O19         0.3030    1.0250    0.1200 o         1 16Y     -0.853800
      2 C17         1.1980    0.1350    0.0390 c         1 16Y      0.907600
      3 O18         1.5300   -0.6190    0.9990 o         1 16Y     -0.853800
      4 C16         1.9490   -0.0320   -1.2940 c3        1 16Y     -0.193400
      5 C15         0.9950   -0.0490   -2.4630 c3        1 16Y     -0.065400
      6 C14         1.7270   -0.0260   -3.7900 c3        1 16Y     -0.078400
      7 C13         0.7620   -0.0640   -4.9560 c3        1 16Y     -0.078400
      8 C12         1.4920   -0.0300   -6.2810 c3        1 16Y     -0.078400
      9 C11         0.5260   -0.0700   -7.4460 c3        1 16Y     -0.079400
     10 C10         1.2580   -0.0350   -8.7710 c3        1 16Y     -0.078400
     11 C1          0.2930   -0.0750   -9.9360 c3        1 16Y     -0.079400
     12 C2          1.0260   -0.0390  -11.2600 c3        1 16Y     -0.078400
     13 C3          0.0620   -0.0800  -12.4260 c3        1 16Y     -0.079400
     14 C4          0.7980   -0.0430  -13.7480 c3        1 16Y     -0.079400
     15 C5         -0.1640   -0.0850  -14.9160 c3        1 16Y     -0.078400
     16 C6          0.5750   -0.0480  -16.2360 c3        1 16Y     -0.079400
     17 C7         -0.3880   -0.0900  -17.4020 c3        1 16Y     -0.083400
     18 C8          0.3690   -0.0510  -18.7190 c3        1 16Y      0.131400
     19 O9         -0.5960   -0.0960  -19.7590 oh        1 16Y     -0.602800
     20 H2          2.5490   -0.9750   -1.2660 hc        1 16Y      0.018700
     21 H3          2.6620    0.8260   -1.3950 hc        1 16Y      0.018700
     22 H4          0.3520   -0.9660   -2.4070 hc        1 16Y      0.043700
     23 H5          0.3120    0.8390   -2.3830 hc        1 16Y      0.043700
     24 H6          2.4230   -0.9030   -3.8510 hc        1 16Y      0.025700
     25 H7          0.0620    0.8110   -4.8890 hc        1 16Y      0.036700
     26 H8          2.1940   -0.9030   -6.3460 hc        1 16Y      0.034200
     27 H9          2.1170    0.8990   -6.3420 hc        1 16Y      0.034200
     28 H10        -0.0980   -1.0000   -7.3860 hc        1 16Y      0.037700
     29 H11        -0.1750    0.8030   -7.3810 hc        1 16Y      0.037700
     30 H12         1.9610   -0.9070   -8.8350 hc        1 16Y      0.036700
     31 H13         1.8820    0.8960   -8.8310 hc        1 16Y      0.036700
     32 H14        -0.4100    0.7970   -9.8720 hc        1 16Y      0.038700
     33 H15        -0.3310   -1.0060   -9.8760 hc        1 16Y      0.038700
     34 H16         1.7300   -0.9110  -11.3230 hc        1 16Y      0.037700
     35 H17         1.6490    0.8920  -11.3190 hc        1 16Y      0.037700
     36 H18        -0.6410    0.7920  -12.3630 hc        1 16Y      0.039700
     37 H19        -0.5600   -1.0120  -12.3670 hc        1 16Y      0.039700
     38 H20         1.4200    0.8880  -13.8060 hc        1 16Y      0.038700
     39 H21         1.5020   -0.9150  -13.8100 hc        1 16Y      0.038700
     40 H22        -0.7860   -1.0170  -14.8580 hc        1 16Y      0.041700
     41 H23        -0.8690    0.7860  -14.8540 hc        1 16Y      0.041700
     42 H24         1.1960    0.8850  -16.2930 hc        1 16Y      0.038700
     43 H25         1.2800   -0.9190  -16.2960 hc        1 16Y      0.038700
     44 H26        -1.0930    0.7790  -17.3560 hc        1 16Y      0.054700
     45 H27        -1.0090   -1.0230  -17.3600 hc        1 16Y      0.054700
     46 H28         0.9740    0.8920  -18.7990 h1        1 16Y      0.018700
     47 H29         1.0610   -0.9320  -18.8030 h1        1 16Y      0.018700
     48 H30        -0.1070   -0.0700  -20.5880 ho        1 16Y      0.396000
     49 H31         2.3570    0.9000   -3.8540 hc        1 16Y      0.025700
     50 H32         0.1360   -0.9920   -4.8940 hc        1 16Y      0.036700
@<TRIPOS>BOND
     1    1    2 1   
     2    2    3 1   
     3    2    4 1   
     4    4    5 1   
     5    4   20 1   
     6    4   21 1   
     7    5    6 1   
     8    5   22 1   
     9    5   23 1   
    10    6    7 1   
    11    6   24 1   
    12    6   49 1   
    13    7    8 1   
    14    7   25 1   
    15    7   50 1   
    16    8    9 1   
    17    8   26 1   
    18    8   27 1   
    19    9   10 1   
    20    9   28 1   
    21    9   29 1   
    22   10   11 1   
    23   10   30 1   
    24   10   31 1   
    25   11   12 1   
    26   11   32 1   
    27   11   33 1   
    28   12   13 1   
    29   12   34 1   
    30   12   35 1   
    31   13   14 1   
    32   13   36 1   
    33   13   37 1   
    34   14   15 1   
    35   14   38 1   
    36   14   39 1   
    37   15   16 1   
    38   15   40 1   
    39   15   41 1   
    40   16   17 1   
    41   16   42 1   
    42   16   43 1   
    43   17   18 1   
    44   17   44 1   
    45   17   45 1   
    46   18   19 1   
    47   18   46 1   
    48   18   47 1   
    49   19   48 1   
@<TRIPOS>SUBSTRUCTURE
     1 16Y         1 TEMP              0 ****  ****    0 ROOT
