@<TRIPOS>MOLECULE
16Y
   50    49     1     0     0
SMALL
bcc


@<TRIPOS>ATOM
      1 O19         0.2560    0.9750    0.1230 o         1 16Y     -0.853800
      2 C17         1.1930    0.1300    0.0390 c         1 16Y      0.907600
      3 O18         1.5620   -0.6100    0.9970 o         1 16Y     -0.853800
      4 C16         1.9510    0.0030   -1.2950 c3        1 16Y     -0.193400
      5 C15         0.9980   -0.0570   -2.4630 c3        1 16Y     -0.065400
      6 C14         1.7270    0.0050   -3.7900 c3        1 16Y     -0.078400
      7 C13         0.7650   -0.0750   -4.9560 c3        1 16Y     -0.078400
      8 C12         1.4920   -0.0040   -6.2820 c3        1 16Y     -0.078400
      9 C11         0.5290   -0.0850   -7.4460 c3        1 16Y     -0.079400
     10 C10         1.2570   -0.0130   -8.7710 c3        1 16Y     -0.078400
     11 C1          0.2950   -0.0950   -9.9360 c3        1 16Y     -0.079400
     12 C2          1.0250   -0.0220  -11.2600 c3        1 16Y     -0.078400
     13 C3          0.0640   -0.1040  -12.4260 c3        1 16Y     -0.079400
     14 C4          0.7970   -0.0310  -13.7480 c3        1 16Y     -0.079400
     15 C5         -0.1630   -0.1140  -14.9150 c3        1 16Y     -0.078400
     16 C6          0.5730   -0.0400  -16.2360 c3        1 16Y     -0.079400
     17 C7         -0.3870   -0.1240  -17.4020 c3        1 16Y     -0.083400
     18 C8          0.3670   -0.0480  -18.7180 c3        1 16Y      0.131400
     19 O9         -0.5960   -0.1340  -19.7580 oh        1 16Y     -0.602800
     20 H2          2.5950   -0.9110   -1.2700 hc        1 16Y      0.018700
     21 H3          2.6210    0.8940   -1.3930 hc        1 16Y      0.018700
     22 H4          0.4000   -1.0040   -2.4090 hc        1 16Y      0.043700
     23 H5          0.2740    0.7970   -2.3800 hc        1 16Y      0.043700
     24 H6          2.4650   -0.8380   -3.8540 hc        1 16Y      0.025700
     25 H7          0.0240    0.7650   -4.8870 hc        1 16Y      0.036700
     26 H8          2.2340   -0.8430   -6.3480 hc        1 16Y      0.034200
     27 H9          2.0720    0.9550   -6.3400 hc        1 16Y      0.034200
     28 H10        -0.0510   -1.0440   -7.3880 hc        1 16Y      0.037700
     29 H11        -0.2130    0.7540   -7.3790 hc        1 16Y      0.037700
     30 H12         2.0000   -0.8520   -8.8370 hc        1 16Y      0.036700
     31 H13         1.8370    0.9460   -8.8290 hc        1 16Y      0.036700
     32 H14        -0.4480    0.7440   -9.8700 hc        1 16Y      0.038700
     33 H15        -0.2850   -1.0540   -9.8780 hc        1 16Y      0.038700
     34 H16         1.7680   -0.8610  -11.3250 hc        1 16Y      0.037700
     35 H17         1.6050    0.9370  -11.3170 hc        1 16Y      0.037700
     36 H18        -0.6790    0.7340  -12.3600 hc        1 16Y      0.039700
     37 H19        -0.5150   -1.0640  -12.3690 hc        1 16Y      0.039700
     38 H20         1.3750    0.9280  -13.8040 hc        1 16Y      0.038700
     39 H21         1.5400   -0.8690  -13.8120 hc        1 16Y      0.038700
     40 H22        -0.7420   -1.0740  -14.8600 hc        1 16Y      0.041700
     41 H23        -0.9070    0.7240  -14.8520 hc        1 16Y      0.041700
     42 H24         1.1500    0.9200  -16.2910 hc        1 16Y      0.038700
     43 H25         1.3170   -0.8780  -16.2990 hc        1 16Y      0.038700
     44 H26        -1.1320    0.7130  -17.3540 hc        1 16Y      0.054700
     45 H27        -0.9650   -1.0830  -17.3620 hc        1 16Y      0.054700
     46 H28         0.9280    0.9220  -18.7970 h1        1 16Y      0.018700
     47 H29         1.0980   -0.8960  -18.8050 h1        1 16Y      0.018700
     48 H30        -0.1080   -0.0830  -20.5880 ho        1 16Y      0.396000
     49 H31         2.3120    0.9600   -3.8520 hc        1 16Y      0.025700
     50 H32         0.1830   -1.0320   -4.8970 hc        1 16Y      0.036700
@<TRIPOS>BOND
     1    1    2 1   
     2    2    3 1   
     3    2    4 1   
     4    4    5 1   
     5    4   20 1   
     6    4   21 1   
     7    5    6 1   
     8    5   22 1   
     9    5   23 1   
    10    6    7 1   
    11    6   24 1   
    12    6   49 1   
    13    7    8 1   
    14    7   25 1   
    15    7   50 1   
    16    8    9 1   
    17    8   26 1   
    18    8   27 1   
    19    9   10 1   
    20    9   28 1   
    21    9   29 1   
    22   10   11 1   
    23   10   30 1   
    24   10   31 1   
    25   11   12 1   
    26   11   32 1   
    27   11   33 1   
    28   12   13 1   
    29   12   34 1   
    30   12   35 1   
    31   13   14 1   
    32   13   36 1   
    33   13   37 1   
    34   14   15 1   
    35   14   38 1   
    36   14   39 1   
    37   15   16 1   
    38   15   40 1   
    39   15   41 1   
    40   16   17 1   
    41   16   42 1   
    42   16   43 1   
    43   17   18 1   
    44   17   44 1   
    45   17   45 1   
    46   18   19 1   
    47   18   46 1   
    48   18   47 1   
    49   19   48 1   
@<TRIPOS>SUBSTRUCTURE
     1 16Y         1 TEMP              0 ****  ****    0 ROOT
