@<TRIPOS>MOLECULE
16Z
   36    33     1     0     0
SMALL
bcc


@<TRIPOS>ATOM
      1 CAQ        -3.7160    0.7560   -4.4040 c3        1 16Z      0.113700
      2 OAP        -2.2860    0.5850   -4.4410 os        1 16Z     -0.312400
      3 CAM        -1.6950    0.5630   -3.2030 c1        1 16Z      0.107600
      4 CAN        -1.4830   -0.6480   -2.5580 c1        1 16Z     -0.061000
      5 CAO        -0.8000   -0.6810   -1.2930 c1        1 16Z     -0.061000
      6 CAL        -1.2540    1.7330   -2.6340 c1        1 16Z     -0.147500
      7 CAK        -0.5680    1.7060   -1.3650 c1        1 16Z     -0.029500
      8 CAJ        -0.3540    0.4970   -0.7190 c1        1 16Z     -0.099000
      9 CAE         0.5170    0.4560    0.6400 c2        1 16Z      0.244200
     10 CAG        -0.2560    0.3050    1.6560 c3        1 16Z      0.066800
     11 OAD        -0.5750    1.5740    2.2230 oh        1 16Z     -0.580800
     12 CAA         0.5910   -0.6170    2.7680 c3        1 16Z      0.078100
     13 OAC         1.5440    0.2420    3.5260 oh        1 16Z     -0.603800
     14 CAF         1.2060   -1.4590    2.1230 c3        1 16Z     -0.032000
     15 CAB         2.5730   -1.7620    2.7870 c3        1 16Z     -0.104100
     16 NAH         1.4270   -0.7530    0.6510 nh        1 16Z     -0.258100
     17 CAI         2.8280   -0.3180    0.5260 c3        1 16Z     -0.021400
     18 H1         -3.9340    1.6300   -3.9990 h1        1 16Z      0.043367
     19 H2         -4.1360    0.0080   -3.8470 h1        1 16Z      0.043367
     20 H3         -4.0790    0.7210   -5.3340 h1        1 16Z      0.043367
     21 H4         -1.7820   -1.4370   -2.9440 ha        1 16Z      0.086500
     22 H5         -0.6430   -1.5700   -0.8200 ha        1 16Z      0.086500
     23 H6         -1.4000    2.5650   -3.0810 ha        1 16Z      0.078500
     24 H7         -0.2560    2.5340   -0.9640 ha        1 16Z      0.076500
     25 H8          1.0450    1.2750    0.7310 h4        1 16Z     -0.033200
     26 H9         -1.1110   -0.1820    1.3750 h1        1 16Z      0.093700
     27 H10        -1.3780    1.5560    2.5310 ho        1 16Z      0.418000
     28 H11        -0.0230   -1.0480    3.3800 h1        1 16Z      0.053700
     29 H12         1.2830    0.3090    4.3350 ho        1 16Z      0.412000
     30 H13         0.6610   -2.3010    2.0340 h1        1 16Z      0.061700
     31 H14         3.1080   -0.9400    2.8300 hc        1 16Z      0.044367
     32 H15         3.0630   -2.4480    2.2420 hc        1 16Z      0.044367
     33 H16         2.4290   -2.1020    3.6880 hc        1 16Z      0.044367
     34 H18         2.9440    0.1170   -0.2720 h1        1 16Z      0.035033
     35 H19         3.0500    0.2940    1.2720 h1        1 16Z      0.035033
     36 H20         3.4620   -1.1610    0.5610 h1        1 16Z      0.035033
@<TRIPOS>BOND
     1    1    2 1   
     2    1   18 1   
     3    1   19 1   
     4    1   20 1   
     5    2    3 1   
     6    3    6 3   
     7    4    5 3   
     8    4   21 1   
     9    5   22 1   
    10    6   23 1   
    11    7    8 3   
    12    7   24 1   
    13    9   10 1   
    14    9   16 2   
    15    9   25 1   
    16   10   11 1   
    17   10   12 1   
    18   10   26 1   
    19   11   27 1   
    20   12   13 1   
    21   12   14 1   
    22   12   28 1   
    23   13   29 1   
    24   14   15 1   
    25   14   16 1   
    26   14   30 1   
    27   15   31 1   
    28   15   32 1   
    29   15   33 1   
    30   16   17 1   
    31   17   34 1   
    32   17   35 1   
    33   17   36 1   
@<TRIPOS>SUBSTRUCTURE
     1 16Z         1 TEMP              0 ****  ****    0 ROOT
