@<TRIPOS>MOLECULE
16Z
   36    37     1     0     0
SMALL
bcc


@<TRIPOS>ATOM
      1 CAQ        -0.0820    0.2430   -0.1330 c3        1 16Z      0.112700
      2 OAP         1.3380    0.2620   -0.0470 os        1 16Z     -0.325900
      3 CAM         1.8740    0.1580    1.2220 ca        1 16Z      0.130100
      4 CAN         1.1200    0.0490    2.3960 ca        1 16Z     -0.180500
      5 CAO         1.7790   -0.0450    3.6210 ca        1 16Z     -0.088000
      6 CAL         3.2810    0.1690    1.2720 ca        1 16Z     -0.180500
      7 CAK         3.9160    0.0710    2.5030 ca        1 16Z     -0.088000
      8 CAJ         3.1750   -0.0320    3.6880 ca        1 16Z     -0.147300
      9 CAE         3.8930   -0.1070    5.0080 c3        1 16Z      0.198800
     10 CAG         3.4590    1.0800    5.9230 c3        1 16Z      0.096100
     11 OAD         4.4790    2.0460    6.0760 oh        1 16Z     -0.602800
     12 CAA         3.1590    0.4600    7.3060 c3        1 16Z      0.149100
     13 OAC         4.1630    0.6710    8.2740 oh        1 16Z     -0.588800
     14 CAF         3.0320   -1.0670    7.0300 c3        1 16Z      0.176500
     15 CAB         3.5490   -1.8910    8.2000 c3        1 16Z     -0.073100
     16 NAH         3.7480   -1.3500    5.7740 n3        1 16Z     -0.721600
     17 CAI         3.2370   -2.4850    5.0530 c3        1 16Z      0.162100
     18 H1         -0.2760    0.3330   -1.2320 h1        1 16Z      0.045700
     19 H2         -0.4880   -0.7200    0.2620 h1        1 16Z      0.045700
     20 H3         -0.5220    1.1090    0.4170 h1        1 16Z      0.045700
     21 H4          0.0220    0.0370    2.3660 ha        1 16Z      0.145500
     22 H5          1.1880   -0.1350    4.5460 ha        1 16Z      0.135000
     23 H6          3.8550    0.2510    0.3390 ha        1 16Z      0.145500
     24 H7          5.0170    0.0710    2.5440 ha        1 16Z      0.135000
     25 H8          5.0060   -0.0140    4.8150 h1        1 16Z      0.073700
     26 H9          2.5400    1.5810    5.5130 h1        1 16Z      0.051700
     27 H10         4.8060    2.2580    5.1930 ho        1 16Z      0.418000
     28 H11         2.1910    0.8630    7.7100 h1        1 16Z      0.043700
     29 H12         4.5600    1.5380    8.1140 ho        1 16Z      0.425000
     30 H13         1.9260   -1.2860    6.9090 h1        1 16Z      0.020700
     31 H14         4.6410   -1.7200    8.3540 hc        1 16Z      0.045033
     32 H15         3.3720   -2.9790    8.0230 hc        1 16Z      0.045033
     33 H16         3.0090   -1.5750    9.1240 hc        1 16Z      0.045033
     34 H18         3.3260   -3.3860    5.7160 h1        1 16Z      0.035033
     35 H19         3.8620   -2.6410    4.1350 h1        1 16Z      0.035033
     36 H20         2.1620   -2.3790    4.7370 h1        1 16Z      0.035033
@<TRIPOS>BOND
     1    1    2 1   
     2    1   18 1   
     3    1   19 1   
     4    1   20 1   
     5    2    3 1   
     6    3    4 ar  
     7    3    6 ar  
     8    4    5 ar  
     9    4   21 1   
    10    5    8 ar  
    11    5   22 1   
    12    6    7 ar  
    13    6   23 1   
    14    7    8 ar  
    15    7   24 1   
    16    8    9 1   
    17    9   10 1   
    18    9   16 1   
    19    9   25 1   
    20   10   11 1   
    21   10   12 1   
    22   10   26 1   
    23   11   27 1   
    24   12   13 1   
    25   12   14 1   
    26   12   28 1   
    27   13   29 1   
    28   14   15 1   
    29   14   16 1   
    30   14   30 1   
    31   15   31 1   
    32   15   32 1   
    33   15   33 1   
    34   16   17 1   
    35   17   34 1   
    36   17   35 1   
    37   17   36 1   
@<TRIPOS>SUBSTRUCTURE
     1 16Z         1 TEMP              0 ****  ****    0 ROOT
