@<TRIPOS>MOLECULE
16Z
   36    37     1     0     0
SMALL
bcc


@<TRIPOS>ATOM
      1 CAQ        -0.2070    0.2190    0.0040 c3        1 16Z      0.112700
      2 OAP         1.2160    0.2250    0.0230 os        1 16Z     -0.325900
      3 CAM         1.8100    0.1400    1.2660 ca        1 16Z      0.129100
      4 CAN         1.1120    0.0540    2.4770 ca        1 16Z     -0.180000
      5 CAO         1.8270   -0.0240    3.6700 ca        1 16Z     -0.088000
      6 CAL         3.2180    0.1440    1.2500 ca        1 16Z     -0.180000
      7 CAK         3.9110    0.0630    2.4510 ca        1 16Z     -0.088000
      8 CAJ         3.2250   -0.0190    3.6710 ca        1 16Z     -0.148300
      9 CAE         3.9980   -0.0800    4.9600 c3        1 16Z      0.193800
     10 CAG         3.6000    1.1190    5.8740 c3        1 16Z      0.100100
     11 OAD         4.7440    1.8020    6.3510 oh        1 16Z     -0.591800
     12 CAA         2.8860    0.5030    7.1010 c3        1 16Z      0.150100
     13 OAC         3.4120    0.9450    8.3250 oh        1 16Z     -0.578800
     14 CAF         2.9740   -1.0400    6.9050 c3        1 16Z      0.139500
     15 CAB         3.4460   -1.7390    8.1720 c3        1 16Z     -0.081100
     16 NAH         3.8590   -1.3030    5.7580 n3        1 16Z     -0.723600
     17 CAI         3.5270   -2.4940    5.0220 c3        1 16Z      0.162100
     18 H1         -0.6030   -0.7330    0.4330 h1        1 16Z      0.045367
     19 H2         -0.4530    0.2930   -1.0860 h1        1 16Z      0.045367
     20 H3         -0.6120    1.0980    0.5610 h1        1 16Z      0.045367
     21 H4          0.0130    0.0480    2.4990 ha        1 16Z      0.145000
     22 H5          1.2850   -0.0910    4.6260 ha        1 16Z      0.134500
     23 H6          3.7470    0.2100    0.2890 ha        1 16Z      0.145000
     24 H7          5.0120    0.0600    2.4400 ha        1 16Z      0.134500
     25 H8          5.1020   -0.0050    4.7210 h1        1 16Z      0.070700
     26 H9          2.9280    1.8330    5.3300 h1        1 16Z      0.056700
     27 H10         5.1960    2.1620    5.5790 ho        1 16Z      0.410000
     28 H11         1.8090    0.8240    7.1280 h1        1 16Z      0.075700
     29 H12         4.3720    0.8310    8.2950 ho        1 16Z      0.424000
     30 H13         1.9250   -1.4070    6.6830 h1        1 16Z      0.028700
     31 H14         4.5050   -1.4780    8.4090 hc        1 16Z      0.043367
     32 H15         2.8010   -1.4100    9.0230 hc        1 16Z      0.043367
     33 H16         3.3690   -2.8460    8.0580 hc        1 16Z      0.043367
     34 H18         2.5030   -2.4670    4.5550 h1        1 16Z      0.035033
     35 H19         3.5780   -3.3660    5.7250 h1        1 16Z      0.035033
     36 H20         4.2850   -2.6350    4.2070 h1        1 16Z      0.035033
@<TRIPOS>BOND
     1    1    2 1   
     2    1   18 1   
     3    1   19 1   
     4    1   20 1   
     5    2    3 1   
     6    3    4 ar  
     7    3    6 ar  
     8    4    5 ar  
     9    4   21 1   
    10    5    8 ar  
    11    5   22 1   
    12    6    7 ar  
    13    6   23 1   
    14    7    8 ar  
    15    7   24 1   
    16    8    9 1   
    17    9   10 1   
    18    9   16 1   
    19    9   25 1   
    20   10   11 1   
    21   10   12 1   
    22   10   26 1   
    23   11   27 1   
    24   12   13 1   
    25   12   14 1   
    26   12   28 1   
    27   13   29 1   
    28   14   15 1   
    29   14   16 1   
    30   14   30 1   
    31   15   31 1   
    32   15   32 1   
    33   15   33 1   
    34   16   17 1   
    35   17   34 1   
    36   17   35 1   
    37   17   36 1   
@<TRIPOS>SUBSTRUCTURE
     1 16Z         1 TEMP              0 ****  ****    0 ROOT
