@<TRIPOS>MOLECULE
16Z
   36    37     1     0     0
SMALL
bcc


@<TRIPOS>ATOM
      1 CAQ         5.1830    0.4500    1.3810 c3        1 16Z      0.113700
      2 OAP         4.6690   -0.1460    0.1960 os        1 16Z     -0.325900
      3 CAM         3.2950   -0.1520    0.0620 ca        1 16Z      0.128100
      4 CAN         2.4030    0.3860    0.9980 ca        1 16Z     -0.181000
      5 CAO         1.0340    0.3180    0.7490 ca        1 16Z     -0.086500
      6 CAL         2.8170   -0.7540   -1.1170 ca        1 16Z     -0.181000
      7 CAK         1.4480   -0.8090   -1.3460 ca        1 16Z     -0.086500
      8 CAJ         0.5440   -0.2750   -0.4180 ca        1 16Z     -0.141300
      9 CAE        -0.9340   -0.3710   -0.6850 c3        1 16Z      0.224800
     10 CAG        -1.6140   -1.2280    0.4250 c3        1 16Z      0.102100
     11 OAD        -2.2270   -2.3290   -0.2180 oh        1 16Z     -0.594800
     12 CAA        -2.6680   -0.3090    1.0900 c3        1 16Z      0.103100
     13 OAC        -3.9650   -0.8230    0.8900 oh        1 16Z     -0.595800
     14 CAF        -2.4460    1.0940    0.4600 c3        1 16Z      0.142500
     15 CAB        -3.7640    1.8180    0.2270 c3        1 16Z     -0.083100
     16 NAH        -1.6760    0.8930   -0.7780 n3        1 16Z     -0.728600
     17 CAI        -0.9090    2.0400   -1.1860 c3        1 16Z      0.162100
     18 H1          4.9010    1.5290    1.4350 h1        1 16Z      0.044700
     19 H2          4.8200   -0.0950    2.2860 h1        1 16Z      0.044700
     20 H3          6.2910    0.3370    1.2700 h1        1 16Z      0.044700
     21 H4          2.7660    0.8570    1.9220 ha        1 16Z      0.144500
     22 H5          0.3290    0.7380    1.4840 ha        1 16Z      0.135500
     23 H6          3.5330   -1.1730   -1.8380 ha        1 16Z      0.144500
     24 H7          1.0720   -1.2810   -2.2670 ha        1 16Z      0.135500
     25 H8         -1.0910   -0.8880   -1.6800 h1        1 16Z      0.092700
     26 H9         -0.8650   -1.5950    1.1750 h1        1 16Z      0.056700
     27 H10        -2.8060   -2.7470    0.4340 ho        1 16Z      0.415000
     28 H11        -2.5490   -0.2680    2.2040 h1        1 16Z      0.081700
     29 H12        -4.1240   -0.8400   -0.0650 ho        1 16Z      0.421000
     30 H13        -1.8470    1.7030    1.2050 h1        1 16Z      0.028700
     31 H14        -4.3640    1.7800    1.1680 hc        1 16Z      0.044033
     32 H15        -3.5790    2.8830   -0.0500 hc        1 16Z      0.044033
     33 H16        -4.3560    1.3380   -0.5890 hc        1 16Z      0.044033
     34 H18        -0.3890    1.8000   -2.1500 h1        1 16Z      0.035700
     35 H19        -1.6170    2.8940   -1.3530 h1        1 16Z      0.035700
     36 H20        -0.1350    2.3590   -0.4340 h1        1 16Z      0.035700
@<TRIPOS>BOND
     1    1    2 1   
     2    1   18 1   
     3    1   19 1   
     4    1   20 1   
     5    2    3 1   
     6    3    4 ar  
     7    3    6 ar  
     8    4    5 ar  
     9    4   21 1   
    10    5    8 ar  
    11    5   22 1   
    12    6    7 ar  
    13    6   23 1   
    14    7    8 ar  
    15    7   24 1   
    16    8    9 1   
    17    9   10 1   
    18    9   16 1   
    19    9   25 1   
    20   10   11 1   
    21   10   12 1   
    22   10   26 1   
    23   11   27 1   
    24   12   13 1   
    25   12   14 1   
    26   12   28 1   
    27   13   29 1   
    28   14   15 1   
    29   14   16 1   
    30   14   30 1   
    31   15   31 1   
    32   15   32 1   
    33   15   33 1   
    34   16   17 1   
    35   17   34 1   
    36   17   35 1   
    37   17   36 1   
@<TRIPOS>SUBSTRUCTURE
     1 16Z         1 TEMP              0 ****  ****    0 ROOT
