@<TRIPOS>MOLECULE
16Z
   36    37     1     0     0
SMALL
bcc


@<TRIPOS>ATOM
      1 CAQ        -0.2510    0.2540    0.0370 c3        1 16Z      0.112700
      2 OAP         1.1720    0.2710    0.0440 os        1 16Z     -0.325900
      3 CAM         1.7780    0.1740    1.2810 ca        1 16Z      0.129100
      4 CAN         1.0910    0.0660    2.4960 ca        1 16Z     -0.180000
      5 CAO         1.8180   -0.0220    3.6810 ca        1 16Z     -0.088000
      6 CAL         3.1860    0.1910    1.2530 ca        1 16Z     -0.180000
      7 CAK         3.8900    0.1000    2.4460 ca        1 16Z     -0.088000
      8 CAJ         3.2160   -0.0040    3.6700 ca        1 16Z     -0.148300
      9 CAE         4.0000   -0.0760    4.9520 c3        1 16Z      0.193800
     10 CAG         3.6010    1.1080    5.8850 c3        1 16Z      0.100100
     11 OAD         4.7430    1.7940    6.3600 oh        1 16Z     -0.591800
     12 CAA         2.9040    0.4690    7.1100 c3        1 16Z      0.150100
     13 OAC         3.4380    0.8990    8.3350 oh        1 16Z     -0.578800
     14 CAF         3.0020   -1.0700    6.8930 c3        1 16Z      0.139500
     15 CAB         3.4900   -1.7820    8.1470 c3        1 16Z     -0.081100
     16 NAH         3.8780   -1.3110    5.7350 n3        1 16Z     -0.723600
     17 CAI         3.5500   -2.4950    4.9860 c3        1 16Z      0.162100
     18 H1         -0.6580    1.1220    0.6100 h1        1 16Z      0.045367
     19 H2         -0.5060    0.3410   -1.0490 h1        1 16Z      0.045367
     20 H3         -0.6350   -0.7080    0.4570 h1        1 16Z      0.045367
     21 H4         -0.0070    0.0500    2.5270 ha        1 16Z      0.145000
     22 H5          1.2840   -0.1070    4.6410 ha        1 16Z      0.134500
     23 H6          3.7060    0.2750    0.2880 ha        1 16Z      0.145000
     24 H7          4.9910    0.1070    2.4250 ha        1 16Z      0.134500
     25 H8          5.1010    0.0110    4.7040 h1        1 16Z      0.070700
     26 H9          2.9170    1.8230    5.3570 h1        1 16Z      0.056700
     27 H10         5.1850    2.1680    5.5880 ho        1 16Z      0.410000
     28 H11         1.8240    0.7810    7.1520 h1        1 16Z      0.075700
     29 H12         4.3990    0.7930    8.2940 ho        1 16Z      0.424000
     30 H13         1.9540   -1.4430    6.6750 h1        1 16Z      0.028700
     31 H14         3.4210   -2.8890    8.0180 hc        1 16Z      0.043367
     32 H15         2.8500   -1.4700    9.0070 hc        1 16Z      0.043367
     33 H16         4.5490   -1.5170    8.3770 hc        1 16Z      0.043367
     34 H18         3.6140   -3.3760    5.6770 h1        1 16Z      0.035033
     35 H19         2.5220   -2.4710    4.5290 h1        1 16Z      0.035033
     36 H20         4.3010   -2.6180    4.1620 h1        1 16Z      0.035033
@<TRIPOS>BOND
     1    1    2 1   
     2    1   18 1   
     3    1   19 1   
     4    1   20 1   
     5    2    3 1   
     6    3    4 ar  
     7    3    6 ar  
     8    4    5 ar  
     9    4   21 1   
    10    5    8 ar  
    11    5   22 1   
    12    6    7 ar  
    13    6   23 1   
    14    7    8 ar  
    15    7   24 1   
    16    8    9 1   
    17    9   10 1   
    18    9   16 1   
    19    9   25 1   
    20   10   11 1   
    21   10   12 1   
    22   10   26 1   
    23   11   27 1   
    24   12   13 1   
    25   12   14 1   
    26   12   28 1   
    27   13   29 1   
    28   14   15 1   
    29   14   16 1   
    30   14   30 1   
    31   15   31 1   
    32   15   32 1   
    33   15   33 1   
    34   16   17 1   
    35   17   34 1   
    36   17   35 1   
    37   17   36 1   
@<TRIPOS>SUBSTRUCTURE
     1 16Z         1 TEMP              0 ****  ****    0 ROOT
