@<TRIPOS>MOLECULE
170
   54    48     1     0     0
SMALL
bcc


@<TRIPOS>ATOM
      1 C8         -6.3790   -1.5080    3.8800 c1        1 170     -0.119500
      2 C2         -5.1860   -1.8680    4.5320 c1        1 170     -0.229000
      3 N1         -5.1750   -2.0620    5.8970 n2        1 170      0.373000
      4 C4         -6.3340   -1.9030    6.6280 c1        1 170     -0.119500
      5 C5         -7.5300   -1.5420    5.9800 c1        1 170     -0.119500
      6 C6         -7.5400   -1.3470    4.6060 c1        1 170     -0.119500
      7 C11        -3.8760   -2.0650    3.7050 c3        1 170      0.333000
      8 C1         -3.2480   -0.6740    3.3720 c3        1 170     -0.073000
      9 N18        -2.3350   -0.8080    2.2890 n3        1 170     -0.271000
     10 C21        -1.5180    0.3240    1.8850 c2        1 170      0.071000
     11 C22        -0.9550    0.3510    0.6200 c2        1 170      0.287000
     12 N23        -0.2510    1.4510    0.2070 n2        1 170     -0.219000
     13 C24        -0.1040    2.5210    1.0400 c1        1 170     -0.044000
     14 C25        -0.6640    2.4970    2.3030 c1        1 170     -0.114000
     15 N3         -1.3700    1.3950    2.7200 n1        1 170     -0.160000
     16 O28        -1.0910   -0.6370   -0.1500 o         1 170     -0.368000
     17 CL2         0.8360    3.9190    0.5190 cl        1 170      0.049000
     18 C33         0.1690    1.5510   -1.1390 c3        1 170     -0.065000
     19 C34         1.6920    1.2300   -1.2300 c2        1 170      0.287000
     20 N37         2.3040    1.0170   -2.5030 n         1 170     -0.379000
     21 O38         2.3530    1.0950   -0.2010 o         1 170     -0.348000
     22 C39         3.6860    0.5680   -2.5750 c3        1 170      0.006000
     23 C40         3.9920    0.0430   -4.0160 c2        1 170     -0.051000
     24 C43         2.9970   -0.6060   -4.7480 c2        1 170     -0.110000
     25 C44         3.2530   -1.0230   -6.0500 c1        1 170     -0.050000
     26 C45         4.4880   -0.7950   -6.6160 c1        1 170     -0.119500
     27 C50         5.2200    0.2700   -4.5800 c1        1 170      0.042000
     28 C47         5.4760   -0.1500   -5.8880 c1        1 170     -0.119500
     29 F1         -2.9640   -2.8130    4.4520 f         1 170     -0.151500
     30 F2         -4.1730   -2.7300    2.5330 f         1 170     -0.151500
     31 CL1         2.0370   -1.8050   -6.9520 cl        1 170      0.007000
     32 O1         -4.0050   -2.3270    6.5310 o         1 170     -0.422000
     33 N14         7.8890    2.1530   -3.2740 n2        1 170     -0.128000
     34 N13         7.8260    1.1550   -2.3840 n2        1 170     -0.025500
     35 N12         6.7980    0.3560   -2.7270 n2        1 170     -0.025500
     36 N11         6.2240    0.8670   -3.8370 n2        1 170     -0.128000
     37 C46         6.8940    1.9740   -4.1750 c1        1 170     -0.099000
     38 H8         -6.3850   -1.3700    2.9080 ha        1 170      0.164667
     39 H4         -6.3230   -2.0430    7.6070 ha        1 170      0.164667
     40 H5         -8.3240   -1.4330    6.4790 ha        1 170      0.164667
     41 H6         -8.3830   -1.0920    4.1450 ha        1 170      0.164667
     42 H11        -3.9660   -0.0360    3.1220 h1        1 170      0.131000
     43 H12        -2.7540   -0.3260    4.1840 h1        1 170      0.131000
     44 HN1        -2.2610   -1.6040    1.8500 hn        1 170      0.246000
     45 H25        -0.5540    3.2860    2.9150 ha        1 170      0.190000
     46 H331       -0.3230    0.9270   -1.6760 h1        1 170      0.145500
     47 H332       -0.0030    2.5060   -1.4810 h1        1 170      0.145500
     48 H37         1.8530    1.2360   -3.2720 hn        1 170      0.252000
     49 H391        4.2900    1.3250   -2.3640 h1        1 170      0.128000
     50 H392        3.8320   -0.1720   -1.9110 h1        1 170      0.128000
     51 H43         2.1300   -0.7660   -4.3500 ha        1 170      0.161000
     52 H45         4.6720   -1.0940   -7.5480 ha        1 170      0.164667
     53 H47         6.3670    0.0140   -6.2970 ha        1 170      0.164667
     54 H46         6.6940    2.5690   -4.9640 DU        1 170      0.226000
@<TRIPOS>BOND
     1    1    6 1   
     2    1   38 1   
     3    2    3 1   
     4    2    7 1   
     5    3   32 1   
     6    4    5 1   
     7    4   39 1   
     8    5   40 1   
     9    6   41 1   
    10    7    8 1   
    11    7   29 1   
    12    7   30 1   
    13    8    9 1   
    14    8   42 1   
    15    8   43 1   
    16    9   10 1   
    17    9   44 1   
    18   10   11 1   
    19   10   15 1   
    20   11   12 1   
    21   11   16 1   
    22   12   18 1   
    23   13   14 1   
    24   13   17 1   
    25   14   45 1   
    26   18   19 1   
    27   18   46 1   
    28   18   47 1   
    29   19   20 1   
    30   19   21 1   
    31   20   22 1   
    32   20   48 1   
    33   22   23 1   
    34   22   49 1   
    35   22   50 1   
    36   23   24 1   
    37   23   27 1   
    38   24   25 1   
    39   24   51 1   
    40   25   31 1   
    41   26   28 1   
    42   26   52 1   
    43   28   53 1   
    44   33   34 1   
    45   33   37 1   
    46   34   35 1   
    47   35   36 1   
    48   36   37 1   
@<TRIPOS>SUBSTRUCTURE
     1 170         1 TEMP              0 ****  ****    0 ROOT
