@<TRIPOS>MOLECULE
170
   54    57     1     0     0
SMALL
bcc


@<TRIPOS>ATOM
      1 C8          6.6810   -1.2900    1.5650 ca        1 170     -0.051000
      2 C2          5.5110   -1.5300    0.8310 ca        1 170     -0.260600
      3 N1          5.5420   -2.2540   -0.3640 na        1 170      0.271600
      4 C4          6.7820   -2.7320   -0.7880 ca        1 170     -0.214300
      5 C5          7.9490   -2.5010   -0.0680 ca        1 170     -0.069000
      6 C6          7.9080   -1.7690    1.1210 ca        1 170     -0.170000
      7 C11         4.1570   -1.0070    1.3380 c3        1 170      0.482900
      8 C1          3.6930    0.1420    0.3740 c3        1 170      0.162800
      9 N18         2.4370    0.7170    0.7820 nh        1 170     -0.784200
     10 C21         1.8580    1.7150   -0.0010 cc        1 170      0.575200
     11 C22         0.3940    1.9880    0.2960 c         1 170      0.564200
     12 N23        -0.1760    3.1100   -0.3200 n         1 170     -0.320000
     13 C24         0.5890    3.8360   -1.2410 cc        1 170      0.051000
     14 C25         1.9000    3.4780   -1.4970 cd        1 170      0.021600
     15 N3          2.5460    2.4300   -0.8870 nd        1 170     -0.585300
     16 O28        -0.2970    1.2550    1.0340 o         1 170     -0.650500
     17 CL2        -0.0880    5.1620   -2.0610 cl        1 170     -0.035400
     18 C33        -1.5340    3.4820    0.0110 c3        1 170      0.001000
     19 C34        -2.6140    2.7920   -0.8420 c         1 170      0.647100
     20 N37        -2.6640    1.4190   -0.8070 n         1 170     -0.566900
     21 O38        -3.4040    3.4750   -1.5180 o         1 170     -0.588100
     22 C39        -3.7060    0.7010   -1.4930 c3        1 170      0.135300
     23 C40        -3.9090   -0.7030   -0.9950 ca        1 170     -0.066300
     24 C43        -3.8600   -1.7400   -1.9330 ca        1 170     -0.108000
     25 C44        -4.0610   -3.0650   -1.5410 ca        1 170      0.024400
     26 C45        -4.3090   -3.3760   -0.2010 ca        1 170     -0.111000
     27 C50        -4.1690   -1.0140    0.3570 ca        1 170      0.011800
     28 C47        -4.3670   -2.3580    0.7430 ca        1 170     -0.123000
     29 F1          3.2150   -2.0090    1.4410 f         1 170     -0.223800
     30 F2          4.2470   -0.5830    2.6490 f         1 170     -0.223800
     31 CL1        -3.9990   -4.3040   -2.6970 cl        1 170     -0.069400
     32 O1          4.5330   -2.4500   -1.0250 o         1 170     -0.272000
     33 N14        -4.0430    1.0600    3.2820 nc        1 170     -0.373000
     34 N13        -4.7920    1.7520    2.4130 nc        1 170     -0.049000
     35 N12        -4.9280    1.1610    1.2900 nd        1 170     -0.168800
     36 N11        -4.2380   -0.0070    1.3590 na        1 170     -0.024500
     37 C46        -3.6670   -0.0790    2.6510 cd        1 170      0.399400
     38 H8          6.6020   -0.7180    2.5050 ha        1 170      0.172000
     39 H4          6.7590   -3.3030   -1.7330 h4        1 170      0.193000
     40 H5          8.8980   -2.9050   -0.4540 ha        1 170      0.160000
     41 H6          8.8250   -1.5790    1.6960 ha        1 170      0.156000
     42 H11         4.4840    0.9430    0.3960 h1        1 170      0.091200
     43 H12         3.6340   -0.2970   -0.6640 h1        1 170      0.091200
     44 HN1         1.7810    0.0790    1.1900 hn        1 170      0.446800
     45 H25         2.5140    4.0350   -2.2260 h4        1 170      0.190000
     46 H331       -1.7200    3.2200    1.0950 h1        1 170      0.108200
     47 H332       -1.6710    4.5940   -0.1180 h1        1 170      0.108200
     48 H37        -2.0550    0.9160   -0.2030 hn        1 170      0.334500
     49 H391       -4.6790    1.2730   -1.4090 h1        1 170      0.075200
     50 H392       -3.4440    0.6690   -2.5940 h1        1 170      0.075200
     51 H43        -3.6580   -1.5040   -2.9910 ha        1 170      0.162000
     52 H45        -4.4640   -4.4210    0.1110 ha        1 170      0.159000
     53 H47        -4.5740   -2.6110    1.7950 ha        1 170      0.151000
     54 H46        -3.0350   -0.8940    3.0150 h5        1 170      0.091100
@<TRIPOS>BOND
     1    1    2 ar  
     2    1    6 ar  
     3    1   38 1   
     4    2    3 2   
     5    2    7 1   
     6    3    4 1   
     7    3   32 1   
     8    4    5 ar  
     9    4   39 1   
    10    5    6 ar  
    11    5   40 1   
    12    6   41 1   
    13    7    8 1   
    14    7   29 1   
    15    7   30 1   
    16    8    9 1   
    17    8   42 1   
    18    8   43 1   
    19    9   10 1   
    20    9   44 1   
    21   10   11 1   
    22   10   15 2   
    23   11   12 1   
    24   11   16 2   
    25   12   13 1   
    26   12   18 1   
    27   13   14 2   
    28   13   17 1   
    29   14   15 1   
    30   14   45 1   
    31   18   19 1   
    32   18   46 1   
    33   18   47 1   
    34   19   20 1   
    35   19   21 2   
    36   20   22 1   
    37   20   48 1   
    38   22   23 1   
    39   22   49 1   
    40   22   50 1   
    41   23   24 ar  
    42   23   27 ar  
    43   24   25 ar  
    44   24   51 1   
    45   25   26 ar  
    46   25   31 1   
    47   26   28 ar  
    48   26   52 1   
    49   27   28 ar  
    50   27   36 1   
    51   28   53 1   
    52   33   34 1   
    53   33   37 2   
    54   34   35 2   
    55   35   36 1   
    56   36   37 1   
    57   37   54 1   
@<TRIPOS>SUBSTRUCTURE
     1 170         1 TEMP              0 ****  ****    0 ROOT
