@<TRIPOS>MOLECULE
170
   56    59     1     0     0
SMALL
bcc


@<TRIPOS>ATOM
      1 C8          0.7130    0.0870    0.6330 ca        1 170     -0.043000
      2 C2          1.7820    0.2000   -0.2720 ca        1 170     -0.277600
      3 N1          3.0830   -0.1570    0.0920 na        1 170      0.260600
      4 C4          3.2810   -0.6340    1.3830 ca        1 170     -0.179300
      5 C5          2.2300   -0.7540    2.2910 ca        1 170     -0.048000
      6 C6          0.9340   -0.3830    1.9230 ca        1 170     -0.137000
      7 C11         1.5310    0.6280   -1.7130 c3        1 170      0.495900
      8 C1          2.3940    1.9130   -2.0250 c3        1 170      0.037800
      9 N18         2.2650    2.3130   -3.4590 n4        1 170     -0.683000
     10 C21         3.2450    3.3430   -3.8410 cc        1 170      0.332200
     11 C22         4.1910    2.9600   -4.9240 c         1 170      0.595200
     12 N23         5.1310    3.9570   -5.2980 n         1 170     -0.320000
     13 C24         5.1390    5.1770   -4.6280 cc        1 170      0.159000
     14 C25         4.1930    5.4260   -3.6200 cd        1 170     -0.017400
     15 N3          3.2590    4.5210   -3.2270 nd        1 170     -0.397300
     16 O28         4.1880    1.8580   -5.4980 o         1 170     -0.598500
     17 CL2         6.2660    6.3640   -5.0110 cl        1 170      0.093600
     18 C33         6.0370    3.6520   -6.3830 c3        1 170      0.007000
     19 C34         7.3210    2.9600   -5.9220 c         1 170      0.534100
     20 N37         8.0850    2.2510   -7.0110 n4        1 170     -0.663800
     21 O38         7.7760    2.9330   -4.7910 o         1 170     -0.386100
     22 C39         9.5570    2.0880   -6.7130 c3        1 170      0.180100
     23 C40        10.4090    2.3820   -7.9010 ca        1 170     -0.161300
     24 C43        10.9300    1.2950   -8.6110 ca        1 170     -0.089000
     25 C44        11.8120    1.4920   -9.6790 ca        1 170      0.027400
     26 C45        12.1780    2.7930  -10.0490 ca        1 170     -0.059000
     27 C50        10.7740    3.6970   -8.2820 ca        1 170      0.020800
     28 C47        11.6610    3.8860   -9.3620 ca        1 170     -0.114000
     29 F1          1.8040   -0.3690   -2.6270 f         1 170     -0.214300
     30 F2          0.2010    0.8910   -1.9750 f         1 170     -0.214300
     31 CL1        12.4300    0.1660  -10.5130 cl        1 170      0.006600
     32 O1          4.0180   -0.0210   -0.6940 o         1 170     -0.320000
     33 N14        10.0250    6.8710   -6.7570 nc        1 170     -0.329000
     34 N13         8.9050    6.1620   -6.6380 nc        1 170     -0.034000
     35 N12         9.0100    4.9820   -7.1200 nd        1 170     -0.321800
     36 N11        10.2730    4.8400   -7.6000 na        1 170     -0.014500
     37 C46        10.9360    6.0690   -7.3730 cd        1 170      0.449400
     38 H8         -0.3010    0.3660    0.2990 ha        1 170      0.180000
     39 H4          4.3240   -0.9160    1.6220 h4        1 170      0.210000
     40 H5          2.4450   -1.1460    3.3010 ha        1 170      0.187000
     41 H6          0.1000   -0.4720    2.6370 ha        1 170      0.182000
     42 H11         2.0400    2.7560   -1.3680 hx        1 170      0.155700
     43 H12         3.4810    1.6820   -1.8130 hx        1 170      0.155700
     44 HN1         2.4270    1.4790   -4.0550 hn        1 170      0.485300
     45 H25         4.1710    6.3980   -3.0830 h4        1 170      0.244000
     46 H331        6.3350    4.6070   -6.9190 h1        1 170      0.146200
     47 H332        5.4870    2.9810   -7.1140 h1        1 170      0.146200
     48 H37         7.9740    2.7720   -7.8910 hn        1 170      0.469300
     49 H391        9.7100    1.0220   -6.3700 hx        1 170      0.127200
     50 H392        9.8300    2.7580   -5.8430 hx        1 170      0.127200
     51 H43        10.6620    0.2660   -8.3150 ha        1 170      0.167000
     52 H45        12.8790    2.9570  -10.8890 ha        1 170      0.193000
     53 H47        11.9540    4.9030   -9.6780 ha        1 170      0.174000
     54 H46        11.9790    6.2910   -7.6380 h5        1 170      0.120100
     55 H182        1.3100    2.6640   -3.6330 hn        1 170      0.485300
     56 H372        7.6660    1.3210   -7.1380 hn        1 170      0.469300
@<TRIPOS>BOND
     1    1    2 ar  
     2    1    6 ar  
     3    1   38 1   
     4    2    3 2   
     5    2    7 1   
     6    3    4 1   
     7    3   32 1   
     8    4    5 ar  
     9    4   39 1   
    10    5    6 ar  
    11    5   40 1   
    12    6   41 1   
    13    7    8 1   
    14    7   29 1   
    15    7   30 1   
    16    8    9 1   
    17    8   42 1   
    18    8   43 1   
    19    9   10 1   
    20    9   44 1   
    21    9   55 1   
    22   10   11 1   
    23   10   15 2   
    24   11   12 1   
    25   11   16 2   
    26   12   13 1   
    27   12   18 1   
    28   13   14 2   
    29   13   17 1   
    30   14   15 1   
    31   14   45 1   
    32   18   19 1   
    33   18   46 1   
    34   18   47 1   
    35   19   20 1   
    36   19   21 2   
    37   20   22 1   
    38   20   48 1   
    39   20   56 1   
    40   22   23 1   
    41   22   49 1   
    42   22   50 1   
    43   23   24 ar  
    44   23   27 ar  
    45   24   25 ar  
    46   24   51 1   
    47   25   26 ar  
    48   25   31 1   
    49   26   28 ar  
    50   26   52 1   
    51   27   28 ar  
    52   27   36 1   
    53   28   53 1   
    54   33   34 1   
    55   33   37 2   
    56   34   35 2   
    57   35   36 1   
    58   36   37 1   
    59   37   54 1   
@<TRIPOS>SUBSTRUCTURE
     1 170         1 TEMP              0 ****  ****    0 ROOT
