@<TRIPOS>MOLECULE
170
   55    58     1     0     0
SMALL
bcc


@<TRIPOS>ATOM
      1 C8          0.5620   -0.4480   -1.7980 ca        1 170     -0.050000
      2 C2          1.9520   -0.2670   -1.7560 ca        1 170     -0.265600
      3 N1          2.7170   -0.7650   -0.6980 na        1 170      0.268600
      4 C4          2.0420   -1.4530    0.3090 ca        1 170     -0.203300
      5 C5          0.6640   -1.6400    0.2790 ca        1 170     -0.063000
      6 C6         -0.0930   -1.1310   -0.7790 ca        1 170     -0.160000
      7 C11         2.6770    0.4580   -2.8960 c3        1 170      0.482900
      8 C1          3.2490    1.8110   -2.3360 c3        1 170      0.163800
      9 N18         4.0220    2.5230   -3.3230 nu        1 170     -0.787200
     10 C21         4.8320    3.5770   -2.9620 cc        1 170      0.624200
     11 C22         5.8030    4.0400   -4.0350 c         1 170      0.556200
     12 N23         6.5270    5.2130   -3.7850 n         1 170     -0.344000
     13 C24         6.3850    5.8420   -2.5290 cc        1 170     -0.022000
     14 C25         5.5230    5.3130   -1.5890 cd        1 170      0.093600
     15 N3          4.7410    4.2030   -1.7870 nd        1 170     -0.590300
     16 O28         6.0240    3.4040   -5.0900 o         1 170     -0.684500
     17 Cl2         7.2960    7.2280   -2.1730 cl        1 170     -0.020400
     18 C33         7.2350    5.8410   -4.8660 c3        1 170      0.018000
     19 C34         8.6480    5.3010   -5.0980 c         1 170      0.540100
     20 N37         8.7330    3.8290   -5.4180 ny        1 170     -0.667800
     21 O38         9.6750    5.9560   -5.0930 o         1 170     -0.398100
     22 C39        10.0130    3.4060   -6.0730 c3        1 170      0.171100
     23 C40         9.7850    2.4670   -7.2130 ca        1 170     -0.142300
     24 C43        10.0090    1.1040   -6.9870 ca        1 170     -0.090000
     25 C44         9.8800    0.1760   -8.0230 ca        1 170      0.023400
     26 C45         9.5150    0.6080   -9.3050 ca        1 170     -0.070000
     27 C50         9.4140    2.9030   -8.5070 ca        1 170      0.031800
     28 C47         9.2790    1.9560   -9.5450 ca        1 170     -0.121000
     29 F1          3.6630   -0.3190   -3.4700 f         1 170     -0.224800
     30 F2          1.8450    0.6760   -3.9770 f         1 170     -0.224800
     31 Cl1        10.1610   -1.4610   -7.7270 cl        1 170     -0.018400
     32 O1          3.9260   -0.5860   -0.6440 o         1 170     -0.287000
     33 N14         8.9500    6.1980   -9.8660 nc        1 170     -0.338000
     34 N13         8.4510    6.2700   -8.6290 nc        1 170     -0.006000
     35 N12         8.5600    5.1730   -7.9860 nd        1 170     -0.284800
     36 N11         9.1750    4.2730   -8.8000 na        1 170     -0.026500
     37 C46         9.4230    4.9360  -10.0270 cd        1 170      0.431400
     38 H8          0.0040   -0.0430   -2.6590 ha        1 170      0.173000
     39 H4          2.6870   -1.8360    1.1210 h4        1 170      0.198000
     40 H5          0.1870   -2.1950    1.1020 ha        1 170      0.169000
     41 H6         -1.1830   -1.2710   -0.8100 ha        1 170      0.164000
     42 H11         2.3770    2.4510   -2.0230 h1        1 170      0.104200
     43 H12         3.8800    1.5700   -1.4310 h1        1 170      0.104200
     44 HN1         4.2690    2.0300   -4.1570 hn        1 170      0.463800
     45 H25         5.4130    5.7770   -0.5890 h4        1 170      0.210000
     46 H331        7.3470    6.9540   -4.6810 h1        1 170      0.143200
     47 H332        6.6620    5.6970   -5.8350 h1        1 170      0.143200
     48 H37         8.6030    3.3070   -4.5450 hn        1 170      0.476300
     49 H391       10.5720    4.3260   -6.4180 hx        1 170      0.119200
     50 H392       10.6520    2.9120   -5.2830 hx        1 170      0.119200
     51 H43        10.3040    0.7570   -5.9820 ha        1 170      0.164000
     52 H45         9.4090   -0.1200  -10.1290 ha        1 170      0.181000
     53 H47         8.9800    2.2740  -10.5580 ha        1 170      0.167000
     54 H46         9.9170    4.4930  -10.9000 h5        1 170      0.108100
     55 H372        7.9230    3.5930   -6.0240 hn        1 170      0.476300
@<TRIPOS>BOND
     1    1    2 ar  
     2    1    6 ar  
     3    1   38 1   
     4    2    3 2   
     5    2    7 1   
     6    3    4 1   
     7    3   32 1   
     8    4    5 ar  
     9    4   39 1   
    10    5    6 ar  
    11    5   40 1   
    12    6   41 1   
    13    7    8 1   
    14    7   29 1   
    15    7   30 1   
    16    8    9 1   
    17    8   42 1   
    18    8   43 1   
    19    9   10 1   
    20    9   44 1   
    21   10   11 1   
    22   10   15 2   
    23   11   12 1   
    24   11   16 2   
    25   12   13 1   
    26   12   18 1   
    27   13   14 2   
    28   13   17 1   
    29   14   15 1   
    30   14   45 1   
    31   18   19 1   
    32   18   46 1   
    33   18   47 1   
    34   19   20 1   
    35   19   21 2   
    36   20   22 1   
    37   20   48 1   
    38   20   55 1   
    39   22   23 1   
    40   22   49 1   
    41   22   50 1   
    42   23   24 ar  
    43   23   27 ar  
    44   24   25 ar  
    45   24   51 1   
    46   25   26 ar  
    47   25   31 1   
    48   26   28 ar  
    49   26   52 1   
    50   27   28 ar  
    51   27   36 1   
    52   28   53 1   
    53   33   34 1   
    54   33   37 2   
    55   34   35 2   
    56   35   36 1   
    57   36   37 1   
    58   37   54 1   
@<TRIPOS>SUBSTRUCTURE
     1 170         1 TEMP              0 ****  ****    0 ROOT
