@<TRIPOS>MOLECULE
171
   23    23     1     0     0
SMALL
bcc


@<TRIPOS>ATOM
      1 C3'        -0.0190    0.0070   -0.0050 ca        1 171     -0.093500
      2 C2'         1.3590    0.1690   -0.0450 ca        1 171     -0.208500
      3 C1'         2.1180    0.1780    1.1550 ca        1 171      0.183600
      4 C6'         1.4210    0.0010    2.3810 ca        1 171     -0.208500
      5 N           3.4820    0.4360    1.1590 nh        1 171     -0.736600
      6 C1          4.2700    0.2070   -0.0380 c3        1 171      0.224800
      7 C2          5.7420    0.0110    0.2300 c3        1 171     -0.300600
      8 S           6.6620   -0.2720   -1.2860 s6        1 171      1.430800
      9 O1          6.1110   -1.4600   -1.8170 o         1 171     -0.747867
     10 O2          6.4230    0.8750   -2.0750 o         1 171     -0.747867
     11 O3          7.9950   -0.4020   -0.8380 o         1 171     -0.747867
     12 C5'         0.0410   -0.1560    2.3940 ca        1 171     -0.093500
     13 C4'        -0.6900   -0.1540    1.2070 ca        1 171     -0.207000
     14 H3'        -0.5870    0.0050   -0.9470 ha        1 171      0.114000
     15 H2'         1.8650    0.2950   -1.0140 ha        1 171      0.133000
     16 H6'         1.9750   -0.0080    3.3300 ha        1 171      0.133000
     17 HN          3.9490    0.1940    2.0070 hn        1 171      0.398800
     18 H11         4.1360    1.1080   -0.7070 h1        1 171      0.055200
     19 H12         3.8870   -0.6980   -0.5990 h1        1 171      0.055200
     20 H21         5.9110   -0.8640    0.9000 h1        1 171      0.067700
     21 H22         6.1740    0.9070    0.7350 h1        1 171      0.067700
     22 H5'        -0.4770   -0.2870    3.3550 ha        1 171      0.114000
     23 H4'        -1.7790   -0.2820    1.2260 ha        1 171      0.114000
@<TRIPOS>BOND
     1    1    2 ar  
     2    1   13 ar  
     3    1   14 1   
     4    2    3 ar  
     5    2   15 1   
     6    3    4 ar  
     7    3    5 1   
     8    4   12 ar  
     9    4   16 1   
    10    5    6 1   
    11    5   17 1   
    12    6    7 1   
    13    6   18 1   
    14    6   19 1   
    15    7    8 1   
    16    7   20 1   
    17    7   21 1   
    18    8    9 1   
    19    8   10 1   
    20    8   11 1   
    21   12   13 ar  
    22   12   22 1   
    23   13   23 1   
@<TRIPOS>SUBSTRUCTURE
     1 171         1 TEMP              0 ****  ****    0 ROOT
