@<TRIPOS>MOLECULE
171
   23    19     1     0     0
SMALL
bcc


@<TRIPOS>ATOM
      1 C3'        -3.0020   -1.4400   -0.6880 c1        1 171     -0.090000
      2 C2'        -1.6300   -1.4210   -0.6800 c1        1 171     -0.090000
      3 C1'        -0.9480   -0.6700    0.2800 c1        1 171      0.157800
      4 C6'        -1.6480    0.0480    1.2150 c1        1 171     -0.163500
      5 N           0.4470   -0.7050    0.3270 n3        1 171     -0.710800
      6 C1          1.2290    0.2350   -0.4650 c3        1 171      0.224800
      7 C2          2.6500    0.3820    0.1700 c3        1 171     -0.335100
      8 S           3.5300    1.7000   -0.6490 s4        1 171      1.650500
      9 O1          2.7730    3.0240   -0.5300 o         1 171     -0.679400
     10 O2          4.8470    2.0380    0.0780 o         1 171     -0.679400
     11 O3          3.7880    1.3320   -2.1180 os        1 171     -1.070000
     12 C5'        -3.0270    0.0310    1.2100 c1        1 171     -0.090000
     13 C4'        -3.7100   -0.7140    0.2570 c1        1 171     -0.090000
     14 H3'        -3.4960   -1.9830   -1.3820 ha        1 171      0.064500
     15 H2'        -1.1430   -1.9210   -1.3330 ha        1 171      0.064500
     16 H6'        -1.1690    0.5730    1.8860 ha        1 171      0.062500
     17 HN          0.8990   -1.3560    0.8920 hn        1 171      0.398800
     18 H11         1.3150   -0.0960   -1.3690 h1        1 171      0.055200
     19 H12         0.7900    1.0890   -0.4770 h1        1 171      0.055200
     20 H21         3.1300   -0.4390    0.0640 h1        1 171      0.067700
     21 H22         2.5660    0.5820    1.0970 h1        1 171      0.067700
     22 H5'        -3.5250    0.5440    1.8780 ha        1 171      0.064500
     23 H4'        -4.6650   -0.8340    0.3370 ha        1 171      0.064500
@<TRIPOS>BOND
     1    1    2 3   
     2    1   14 1   
     3    2   15 1   
     4    3    4 3   
     5    3    5 1   
     6    4   16 1   
     7    5    6 1   
     8    5   17 1   
     9    6    7 1   
    10    6   18 1   
    11    6   19 1   
    12    7    8 1   
    13    7   20 1   
    14    7   21 1   
    15    8    9 1   
    16    8   10 1   
    17   12   13 3   
    18   12   22 1   
    19   13   23 1   
@<TRIPOS>SUBSTRUCTURE
     1 171         1 TEMP              0 ****  ****    0 ROOT
