@<TRIPOS>MOLECULE
171
   24    24     1     0     0
SMALL
bcc


@<TRIPOS>ATOM
      1 C3'        -0.0250   -0.6300    0.0880 ca        1 171     -0.110000
      2 C2'         1.3430   -0.8840    0.1580 ca        1 171     -0.104500
      3 C1'         2.0960   -0.3110    1.1990 ca        1 171     -0.034400
      4 C6'         1.4780    0.5150    2.1540 ca        1 171     -0.104500
      5 N           3.5310   -0.5660    1.2740 n4        1 171     -0.645400
      6 C1          4.3140    0.1110    0.1640 c3        1 171      0.171800
      7 C2          5.7530   -0.2320    0.2240 c3        1 171     -0.307600
      8 S           6.5710    0.5300   -1.3020 s6        1 171      1.444800
      9 O1          7.8740    0.0570   -1.2040 o         1 171     -0.722867
     10 O2          5.7680   -0.0210   -2.3090 o         1 171     -0.722867
     11 O3          6.3610    1.8900   -1.0580 o         1 171     -0.722867
     12 C5'         0.1090    0.7560    2.0640 ca        1 171     -0.110000
     13 C4'        -0.6430    0.1860    1.0360 ca        1 171     -0.091000
     14 H3'        -0.6160   -1.0740   -0.7290 ha        1 171      0.158500
     15 H2'         1.8200   -1.5190   -0.6060 ha        1 171      0.157000
     16 H6'         2.0590    0.9820    2.9660 ha        1 171      0.157000
     17 HN          3.8970   -0.2390    2.1740 hn        1 171      0.439800
     18 H11         4.1580    1.2230    0.2730 hx        1 171      0.113700
     19 H12         3.8620   -0.2310   -0.8160 hx        1 171      0.113700
     20 H21         5.9590   -1.3210    0.1550 h1        1 171      0.082700
     21 H22         6.2760    0.1940    1.1040 h1        1 171      0.082700
     22 H5'        -0.3760    1.4050    2.8100 ha        1 171      0.158500
     23 H4'        -1.7240    0.3850    0.9710 ha        1 171      0.156000
     24 HN3         3.6980   -1.5760    1.2110 hn        1 171      0.439800
@<TRIPOS>BOND
     1    1    2 ar  
     2    1   13 ar  
     3    1   14 1   
     4    2    3 ar  
     5    2   15 1   
     6    3    4 ar  
     7    3    5 1   
     8    4   12 ar  
     9    4   16 1   
    10    5    6 1   
    11    5   17 1   
    12    5   24 1   
    13    6    7 1   
    14    6   18 1   
    15    6   19 1   
    16    7    8 1   
    17    7   20 1   
    18    7   21 1   
    19    8    9 1   
    20    8   10 1   
    21    8   11 1   
    22   12   13 ar  
    23   12   22 1   
    24   13   23 1   
@<TRIPOS>SUBSTRUCTURE
     1 171         1 TEMP              0 ****  ****    0 ROOT
