@<TRIPOS>MOLECULE
171
   23    23     1     0     0
SMALL
bcc


@<TRIPOS>ATOM
      1 C3'        -0.0170   -0.0050   -0.0160 ca        1 171     -0.093500
      2 C2'         1.3600   -0.1800   -0.0480 ca        1 171     -0.208500
      3 C1'         2.1140   -0.1750    1.1550 ca        1 171      0.183600
      4 C6'         1.4140    0.0290    2.3740 ca        1 171     -0.208500
      5 N           3.4760   -0.4450    1.1680 nu        1 171     -0.736600
      6 C1          4.2700   -0.2440   -0.0300 c3        1 171      0.224800
      7 C2          5.7430   -0.0540    0.2410 c3        1 171     -0.300600
      8 S           6.6700    0.1950   -1.2760 s6        1 171      1.430800
      9 O1          6.4300   -0.9670   -2.0430 o         1 171     -0.747867
     10 O2          6.1270    1.3740   -1.8340 o         1 171     -0.747867
     11 O3          8.0020    0.3280   -0.8250 o         1 171     -0.747867
     12 C5'         0.0360    0.1980    2.3800 ca        1 171     -0.093500
     13 C4'        -0.6910    0.1830    1.1900 ca        1 171     -0.207000
     14 H3'        -0.5820   -0.0140   -0.9610 ha        1 171      0.114000
     15 H2'         1.8680   -0.3270   -1.0130 ha        1 171      0.133000
     16 H6'         1.9650    0.0490    3.3250 ha        1 171      0.133000
     17 HN          3.9410   -0.1930    2.0130 hn        1 171      0.398800
     18 H11         3.8960    0.6540   -0.6080 h1        1 171      0.055200
     19 H12         4.1310   -1.1550   -0.6830 h1        1 171      0.055200
     20 H21         5.9160    0.8310    0.8960 h1        1 171      0.067700
     21 H22         6.1650   -0.9440    0.7630 h1        1 171      0.067700
     22 H5'        -0.4850    0.3500    3.3360 ha        1 171      0.114000
     23 H4'        -1.7790    0.3200    1.2030 ha        1 171      0.114000
@<TRIPOS>BOND
     1    1    2 ar  
     2    1   13 ar  
     3    1   14 1   
     4    2    3 ar  
     5    2   15 1   
     6    3    4 ar  
     7    3    5 1   
     8    4   12 ar  
     9    4   16 1   
    10    5    6 1   
    11    5   17 1   
    12    6    7 1   
    13    6   18 1   
    14    6   19 1   
    15    7    8 1   
    16    7   20 1   
    17    7   21 1   
    18    8    9 1   
    19    8   10 1   
    20    8   11 1   
    21   12   13 ar  
    22   12   22 1   
    23   13   23 1   
@<TRIPOS>SUBSTRUCTURE
     1 171         1 TEMP              0 ****  ****    0 ROOT
