@<TRIPOS>MOLECULE
171
   23    23     1     0     0
SMALL
bcc


@<TRIPOS>ATOM
      1 C3'        -3.6930    1.5230   -0.0010 ca        1 171     -0.093500
      2 C2'        -2.4120    1.0180    0.1720 ca        1 171     -0.208500
      3 C1'        -2.1840   -0.3830    0.1700 ca        1 171      0.183600
      4 C6'        -3.3030   -1.2360   -0.0280 ca        1 171     -0.208500
      5 N          -0.9340   -0.9230    0.4400 nh        1 171     -0.736600
      6 C1          0.2630   -0.1290    0.2330 c3        1 171      0.224800
      7 C2          1.5150   -0.9500    0.0420 c3        1 171     -0.300600
      8 S           2.9580    0.0870   -0.2140 s6        1 171      1.430800
      9 O1          2.6690    0.8120   -1.3920 o         1 171     -0.747867
     10 O2          3.0390    0.8880    0.9470 o         1 171     -0.747867
     11 O3          4.0090   -0.8460   -0.3500 o         1 171     -0.747867
     12 C5'        -4.5750   -0.7060   -0.1960 ca        1 171     -0.093500
     13 C4'        -4.7830    0.6720   -0.1850 ca        1 171     -0.207000
     14 H3'        -3.8480    2.6120    0.0050 ha        1 171      0.114000
     15 H2'        -1.5690    1.7110    0.3160 ha        1 171      0.133000
     16 H6'        -3.1650   -2.3260   -0.0460 ha        1 171      0.133000
     17 HN         -0.8330   -1.8840    0.1900 hn        1 171      0.398800
     18 H11         0.3910    0.5290    1.1430 h1        1 171      0.055200
     19 H12         0.1410    0.5470   -0.6660 h1        1 171      0.055200
     20 H21         1.4170   -1.6240   -0.8420 h1        1 171      0.067700
     21 H22         1.7040   -1.5930    0.9330 h1        1 171      0.067700
     22 H5'        -5.4270   -1.3860   -0.3450 ha        1 171      0.114000
     23 H4'        -5.7920    1.0820   -0.3210 ha        1 171      0.114000
@<TRIPOS>BOND
     1    1    2 ar  
     2    1   13 ar  
     3    1   14 1   
     4    2    3 ar  
     5    2   15 1   
     6    3    4 ar  
     7    3    5 1   
     8    4   12 ar  
     9    4   16 1   
    10    5    6 1   
    11    5   17 1   
    12    6    7 1   
    13    6   18 1   
    14    6   19 1   
    15    7    8 1   
    16    7   20 1   
    17    7   21 1   
    18    8    9 1   
    19    8   10 1   
    20    8   11 1   
    21   12   13 ar  
    22   12   22 1   
    23   13   23 1   
@<TRIPOS>SUBSTRUCTURE
     1 171         1 TEMP              0 ****  ****    0 ROOT
