@<TRIPOS>MOLECULE
172
   18    19     1     0     0
SMALL
bcc


@<TRIPOS>ATOM
      1 C1         -0.0490   -0.0830    0.0630 ca        1 172      0.116100
      2 C2          1.3470   -0.0640   -0.0020 ca        1 172     -0.176000
      3 C3          2.0480   -0.0400    1.2070 ca        1 172      0.130400
      4 C4          1.3180   -0.0450    2.4610 ca        1 172     -0.125200
      5 C5         -0.0760   -0.0690    2.4940 ca        1 172     -0.091000
      6 C6         -0.7570   -0.0840    1.2850 ca        1 172     -0.150000
      7 N10         3.4340   -0.0210    1.4570 nc        1 172     -0.614100
      8 C11         3.5500    0.0080    2.8170 cd        1 172      0.584700
      9 N12         2.2810   -0.0890    3.4890 na        1 172     -0.281300
     10 N14         4.7490    0.1480    3.5410 nv        1 172     -0.855800
     11 O17        -0.8320   -0.1030   -1.0720 oh        1 172     -0.501100
     12 HC2         1.8780   -0.0680   -0.9630 ha        1 172      0.150000
     13 HC5        -0.6250   -0.0770    3.4460 ha        1 172      0.139000
     14 HC6        -1.8560   -0.0980    1.2600 ha        1 172      0.152000
     15 H12         2.1200    0.2940    4.3860 hn        1 172      0.293700
     16 H141        5.5580    0.0340    2.9630 hn        1 172      0.404300
     17 H142        4.7840   -0.4250    4.3590 hn        1 172      0.404300
     18 H17        -0.2420   -0.0980   -1.8400 ho        1 172      0.419000
@<TRIPOS>BOND
     1    1    2 ar  
     2    1    6 ar  
     3    1   11 1   
     4    2    3 ar  
     5    2   12 1   
     6    3    4 ar  
     7    3    7 1   
     8    4    5 ar  
     9    4    9 1   
    10    5    6 ar  
    11    5   13 1   
    12    6   14 1   
    13    7    8 2   
    14    8    9 1   
    15    8   10 1   
    16    9   15 1   
    17   10   16 1   
    18   10   17 1   
    19   11   18 1   
@<TRIPOS>SUBSTRUCTURE
     1 172         1 TEMP              0 ****  ****    0 ROOT
