@<TRIPOS>MOLECULE
172
   19    20     1     0     0
SMALL
bcc


@<TRIPOS>ATOM
      1 C1         -0.0640    0.1610    0.0580 ca        1 172      0.142100
      2 C2          1.3200    0.2460   -0.0160 ca        1 172     -0.160000
      3 C3          2.0370    0.1440    1.1920 ca        1 172      0.099400
      4 C4          1.3220   -0.0420    2.4460 ca        1 172     -0.058200
      5 C5         -0.0840   -0.1240    2.4860 ca        1 172     -0.107000
      6 C6         -0.7620   -0.0220    1.2920 ca        1 172     -0.076000
      7 N10         3.4100    0.1920    1.4330 nc        1 172     -0.471100
      8 C11         3.5270    0.0390    2.7880 cd        1 172      0.351700
      9 N12         2.2850   -0.1070    3.4540 na        1 172     -0.237300
     10 N14         4.8130    0.0290    3.4810 n4        1 172     -0.745600
     11 O17        -0.8760    0.2460   -1.0420 oh        1 172     -0.472100
     12 HC2         1.8470    0.3870   -0.9710 ha        1 172      0.175000
     13 HC5        -0.6200   -0.2650    3.4360 ha        1 172      0.165000
     14 HC6        -1.8640   -0.0790    1.2590 ha        1 172      0.184000
     15 H12         2.1220   -0.2300    4.4200 hn        1 172      0.329700
     16 H141        4.9430   -0.8690    3.9620 hn        1 172      0.480133
     17 H142        4.8510    0.8010    4.1580 hn        1 172      0.480133
     18 H17        -0.3240    0.3680   -1.8310 ho        1 172      0.440000
     19 H143        5.5640    0.1520    2.7820 hn        1 172      0.480133
@<TRIPOS>BOND
     1    1    2 ar  
     2    1    6 ar  
     3    1   11 1   
     4    2    3 ar  
     5    2   12 1   
     6    3    4 ar  
     7    3    7 1   
     8    4    5 ar  
     9    4    9 1   
    10    5    6 ar  
    11    5   13 1   
    12    6   14 1   
    13    7    8 2   
    14    8    9 1   
    15    8   10 1   
    16    9   15 1   
    17   10   16 1   
    18   10   17 1   
    19   10   19 1   
    20   11   18 1   
@<TRIPOS>SUBSTRUCTURE
     1 172         1 TEMP              0 ****  ****    0 ROOT
