@<TRIPOS>MOLECULE
172
   18    19     1     0     0
SMALL
bcc


@<TRIPOS>ATOM
      1 C1         -0.0300   -0.0760    0.0450 ca        1 172      0.116100
      2 C2          1.3660   -0.0630   -0.0050 ca        1 172     -0.176000
      3 C3          2.0540   -0.0420    1.2110 ca        1 172      0.130400
      4 C4          1.3120   -0.0430    2.4580 ca        1 172     -0.125200
      5 C5         -0.0840   -0.0610    2.4760 ca        1 172     -0.091000
      6 C6         -0.7520   -0.0740    1.2600 ca        1 172     -0.150000
      7 N10         3.4380   -0.0290    1.4760 nc        1 172     -0.614100
      8 C11         3.5390   -0.0010    2.8370 cd        1 172      0.584700
      9 N12         2.2630   -0.0910    3.4960 na        1 172     -0.281300
     10 N14         4.7320    0.1340    3.5740 nh        1 172     -0.855800
     11 O17        -0.8010   -0.0930   -1.0980 oh        1 172     -0.501100
     12 HC2         1.9070   -0.0700   -0.9610 ha        1 172      0.150000
     13 HC5        -0.6420   -0.0660    3.4220 ha        1 172      0.139000
     14 HC6        -1.8500   -0.0830    1.2230 ha        1 172      0.152000
     15 H12         2.0950    0.2930    4.3910 hn        1 172      0.293700
     16 H141        5.5460    0.0170    3.0040 hn        1 172      0.404300
     17 H142        4.7550   -0.4380    4.3920 hn        1 172      0.404300
     18 H17        -0.2040   -0.0910   -1.8600 ho        1 172      0.419000
@<TRIPOS>BOND
     1    1    2 ar  
     2    1    6 ar  
     3    1   11 1   
     4    2    3 ar  
     5    2   12 1   
     6    3    4 ar  
     7    3    7 1   
     8    4    5 ar  
     9    4    9 1   
    10    5    6 ar  
    11    5   13 1   
    12    6   14 1   
    13    7    8 2   
    14    8    9 1   
    15    8   10 1   
    16    9   15 1   
    17   10   16 1   
    18   10   17 1   
    19   11   18 1   
@<TRIPOS>SUBSTRUCTURE
     1 172         1 TEMP              0 ****  ****    0 ROOT
