@<TRIPOS>MOLECULE
172
   18    12     1     0     0
SMALL
bcc


@<TRIPOS>ATOM
      1 C1         -1.6250   -0.0090   -1.6920 c1        1 172      0.071000
      2 C2         -0.2390   -0.0090   -1.6920 c1        1 172     -0.133500
      3 C3          0.4650   -0.0090   -0.4720 c1        1 172     -0.044500
      4 C4         -0.2170   -0.0090    0.7090 c1        1 172     -0.044500
      5 C5         -1.6250   -0.0090    0.7090 c1        1 172     -0.133500
      6 C6         -2.3180   -0.0090   -0.4920 c1        1 172     -0.150000
      7 N10         1.7910   -0.0090   -0.1890 n1        1 172     -0.212500
      8 C11         1.9320   -0.0090    1.1630 c1        1 172      0.106000
      9 N12         0.6910   -0.0090    1.7160 n1        1 172     -0.212500
     10 N14         3.2630   -0.0120    1.6550 n2        1 172     -0.294000
     11 O17        -2.3270   -0.3000   -2.8760 oh        1 172     -0.255000
     12 HC2         0.2490   -0.0090   -2.5370 ha        1 172      0.144500
     13 HC5        -2.1140   -0.0090    1.5540 ha        1 172      0.144500
     14 HC6        -3.2940   -0.0090   -0.4920 ha        1 172      0.152000
     15 H12         0.5020   -0.0090    2.6080 DU        1 172      0.244000
     16 H141        3.6910    0.7770    1.8160 hn        1 172      0.199500
     17 H142        3.6880   -0.8030    1.8150 hn        1 172      0.199500
     18 H17        -2.5120    0.4560   -3.3030 ho        1 172      0.218000
@<TRIPOS>BOND
     1    1    6 1   
     2    1   11 1   
     3    2    3 1   
     4    2   12 1   
     5    4    5 1   
     6    5   13 1   
     7    6   14 1   
     8    7    8 1   
     9    8    9 1   
    10   10   16 1   
    11   10   17 1   
    12   11   18 1   
@<TRIPOS>SUBSTRUCTURE
     1 172         1 TEMP              0 ****  ****    0 ROOT
