@<TRIPOS>MOLECULE
172
   18    19     1     0     0
SMALL
bcc


@<TRIPOS>ATOM
      1 C1          0.1710    0.1130   -2.2280 ca        1 172      0.116100
      2 C2          1.0810    0.1450   -1.1690 ca        1 172     -0.176000
      3 C3          0.5630    0.0940    0.1280 ca        1 172      0.130400
      4 C4         -0.8720    0.0020    0.3250 ca        1 172     -0.125200
      5 C5         -1.7570   -0.0340   -0.7530 ca        1 172     -0.091000
      6 C6         -1.2260    0.0260   -2.0340 ca        1 172     -0.150000
      7 N10         1.2200    0.1050    1.3730 nc        1 172     -0.614100
      8 C11         0.2220    0.0450    2.3030 cd        1 172      0.584700
      9 N12        -1.0830   -0.1040    1.7150 na        1 172     -0.281300
     10 N14         0.3850    0.1450    3.6980 nh        1 172     -0.855800
     11 O17         0.5810    0.1630   -3.5440 oh        1 172     -0.501100
     12 HC2         2.1640    0.2080   -1.3430 ha        1 172      0.150000
     13 HC5        -2.8420   -0.1090   -0.6000 ha        1 172      0.139000
     14 HC6        -1.8830    0.0060   -2.9150 ha        1 172      0.152000
     15 H12        -1.9080    0.2180    2.1540 hn        1 172      0.293700
     16 H141        1.3440    0.0750    3.9750 hn        1 172      0.404300
     17 H142       -0.2040   -0.4800    4.2080 hn        1 172      0.404300
     18 H17         1.5470    0.2220   -3.5530 ho        1 172      0.419000
@<TRIPOS>BOND
     1    1    2 ar  
     2    1    6 ar  
     3    1   11 1   
     4    2    3 ar  
     5    2   12 1   
     6    3    4 ar  
     7    3    7 1   
     8    4    5 ar  
     9    4    9 1   
    10    5    6 ar  
    11    5   13 1   
    12    6   14 1   
    13    7    8 2   
    14    8    9 1   
    15    8   10 1   
    16    9   15 1   
    17   10   16 1   
    18   10   17 1   
    19   11   18 1   
@<TRIPOS>SUBSTRUCTURE
     1 172         1 TEMP              0 ****  ****    0 ROOT
