@<TRIPOS>MOLECULE
173
   16    16     1     0     0
SMALL
bcc


@<TRIPOS>ATOM
      1 O1B         0.1250    1.2390    2.6100 o         1 173     -0.809800
      2 C1          0.3750    0.1540    2.0280 c         1 173      0.862600
      3 O1A         1.4040   -0.5560    2.1960 o         1 173     -0.809800
      4 C2         -0.6510   -0.3440    0.9920 c         1 173      0.466700
      5 O2         -1.7330   -0.8660    1.2930 o         1 173     -0.579100
      6 C1G        -0.2780   -0.1670   -0.4400 ca        1 173     -0.142600
      7 C2D        -1.2660    0.0220   -1.4130 ca        1 173     -0.090500
      8 C2E        -0.9130    0.2050   -2.7490 ca        1 173     -0.161000
      9 C3          0.4310    0.1900   -3.1230 ca        1 173     -0.137000
     10 C1E         1.4190   -0.0050   -2.1580 ca        1 173     -0.161000
     11 C1D         1.0700   -0.1780   -0.8190 ca        1 173     -0.090500
     12 H2D        -2.3240    0.0200   -1.1070 ha        1 173      0.160000
     13 H2E        -1.6920    0.3590   -3.5080 ha        1 173      0.113000
     14 H3          0.7100    0.3330   -4.1760 ha        1 173      0.107000
     15 H1E         2.4780   -0.0170   -2.4520 ha        1 173      0.113000
     16 H1D         1.8400   -0.3270   -0.0390 ha        1 173      0.160000
@<TRIPOS>BOND
     1    1    2 1   
     2    2    3 1   
     3    2    4 1   
     4    4    5 2   
     5    4    6 1   
     6    6    7 ar  
     7    6   11 ar  
     8    7    8 ar  
     9    7   12 1   
    10    8    9 ar  
    11    8   13 1   
    12    9   10 ar  
    13    9   14 1   
    14   10   11 ar  
    15   10   15 1   
    16   11   16 1   
@<TRIPOS>SUBSTRUCTURE
     1 173         1 TEMP              0 ****  ****    0 ROOT
