@<TRIPOS>MOLECULE
173
   16    14     1     0     0
SMALL
bcc


@<TRIPOS>ATOM
      1 O1B        -3.2400   -0.7370    1.7480 o         1 173     -0.544500
      2 C1         -2.1430   -1.2010    1.4710 c2        1 173      0.332000
      3 O1A        -1.6500   -1.9630    2.1790 o         1 173     -0.544500
      4 C2         -1.5430   -0.9920   -0.0600 c2        1 173      0.207000
      5 O2         -2.0920   -1.6840   -1.1000 o         1 173     -0.340000
      6 C1G        -0.3360   -0.2330   -0.2560 c2        1 173     -0.122000
      7 C2D        -0.3970    1.1330   -0.3480 c2        1 173     -0.082000
      8 C2E         0.7330    1.8510   -0.4420 c1        1 173     -0.159000
      9 C3          1.9650    1.2080   -0.4450 c1        1 173     -0.150000
     10 C1E         2.0160   -0.1320   -0.3540 c1        1 173     -0.150000
     11 C1D         0.8560   -0.8610   -0.2580 c1        1 173     -0.099000
     12 H2D        -1.3980    1.6580   -0.2920 ha        1 173      0.183000
     13 H2E         0.6880    2.7310   -0.6730 ha        1 173      0.116000
     14 H3          2.7640    1.7050   -0.7780 ha        1 173      0.108500
     15 H1E         2.8790   -0.5950   -0.3960 ha        1 173      0.108500
     16 H1D         0.8990   -1.8880    0.0040 ha        1 173      0.137000
@<TRIPOS>BOND
     1    1    2 1   
     2    2    3 1   
     3    2    4 1   
     4    4    5 1   
     5    4    6 1   
     6    6    7 1   
     7    6   11 1   
     8    7    8 1   
     9    7   12 1   
    10    8   13 1   
    11    9   10 1   
    12    9   14 1   
    13   10   15 1   
    14   11   16 1   
@<TRIPOS>SUBSTRUCTURE
     1 173         1 TEMP              0 ****  ****    0 ROOT
