@<TRIPOS>MOLECULE
173
   16    16     1     0     0
SMALL
bcc


@<TRIPOS>ATOM
      1 O1B         0.6470    1.1900   -0.0600 o         1 173     -0.809800
      2 C1          1.3360    0.1410    0.0030 c         1 173      0.862600
      3 O1A         1.4890   -0.5850    1.0240 o         1 173     -0.809800
      4 C2          2.0860   -0.2870   -1.2730 c         1 173      0.466700
      5 O2          1.5390   -0.8200   -2.2460 o         1 173     -0.579100
      6 C1G         3.5540   -0.0250   -1.2900 ca        1 173     -0.142600
      7 C2D         4.2150    0.2290   -2.4970 ca        1 173     -0.090500
      8 C2E         5.5850    0.4910   -2.5070 ca        1 173     -0.161000
      9 C3          6.3030    0.4900   -1.3120 ca        1 173     -0.137000
     10 C1E         5.6500    0.2310   -0.1070 ca        1 173     -0.161000
     11 C1D         4.2790   -0.0220   -0.0920 ca        1 173     -0.090500
     12 H2D         3.6390    0.2150   -3.4340 ha        1 173      0.160000
     13 H2E         6.0980    0.6950   -3.4570 ha        1 173      0.113000
     14 H3          7.3830    0.6950   -1.3200 ha        1 173      0.107000
     15 H1E         6.2160    0.2300    0.8350 ha        1 173      0.113000
     16 H1D         3.7420   -0.2220    0.8550 ha        1 173      0.160000
@<TRIPOS>BOND
     1    1    2 1   
     2    2    3 1   
     3    2    4 1   
     4    4    5 2   
     5    4    6 1   
     6    6    7 ar  
     7    6   11 ar  
     8    7    8 ar  
     9    7   12 1   
    10    8    9 ar  
    11    8   13 1   
    12    9   10 ar  
    13    9   14 1   
    14   10   11 ar  
    15   10   15 1   
    16   11   16 1   
@<TRIPOS>SUBSTRUCTURE
     1 173         1 TEMP              0 ****  ****    0 ROOT
