@<TRIPOS>MOLECULE
174
   14    12     1     0     0
SMALL
bcc


@<TRIPOS>ATOM
      1 CL4        -3.6170   -0.0000   -0.0000 cl        1 174     -0.088000
      2 C4         -1.8740   -0.0000   -0.0000 c2        1 174     -0.079000
      3 C5         -1.1810   -0.0000    1.2000 c2        1 174     -0.156000
      4 C6          0.2050   -0.0000    1.2000 c1        1 174     -0.103000
      5 C3         -1.1810   -0.0000   -1.2000 c1        1 174     -0.156000
      6 C2          0.2050   -0.0000   -1.2000 c1        1 174     -0.103000
      7 C1          0.8980   -0.0000   -0.0000 c1        1 174     -0.101000
      8 C           2.4110    0.0000   -0.0000 c2        1 174      0.357000
      9 O1          3.0410    1.0910    0.0070 o         1 174     -0.563000
     10 O2          3.0410   -1.0900   -0.0070 o         1 174     -0.563000
     11 H5         -1.6690   -0.0000    2.0460 ha        1 174      0.121000
     12 H6          0.6940   -0.0000    2.0460 ha        1 174      0.156000
     13 H3         -1.6690   -0.0000   -2.0460 ha        1 174      0.121000
     14 H2          0.6940   -0.0000   -2.0460 ha        1 174      0.156000
@<TRIPOS>BOND
     1    1    2 1   
     2    2    3 1   
     3    2    5 1   
     4    3    4 1   
     5    3   11 1   
     6    4   12 1   
     7    5   13 1   
     8    6    7 1   
     9    6   14 1   
    10    7    8 1   
    11    8    9 1   
    12    8   10 1   
@<TRIPOS>SUBSTRUCTURE
     1 174         1 TEMP              0 ****  ****    0 ROOT
