@<TRIPOS>MOLECULE
174
   14    14     1     0     0
SMALL
bcc


@<TRIPOS>ATOM
      1 CL4         0.0280    0.0000   -3.3730 cl        1 174     -0.166400
      2 C4          0.0080    0.0000   -1.6580 ca        1 174     -0.000600
      3 C5         -1.2160    0.0000   -0.9840 ca        1 174     -0.156000
      4 C6         -1.2230    0.0000    0.4100 ca        1 174     -0.103000
      5 C3          1.2150    0.0010   -0.9560 ca        1 174     -0.156000
      6 C2          1.1900    0.0010    0.4380 ca        1 174     -0.103000
      7 C1         -0.0250    0.0000    1.1310 ca        1 174     -0.121600
      8 C          -0.0430    0.0000    2.6540 c         1 174      0.908200
      9 O1          1.0670    0.0010    3.2560 o         1 174     -0.828300
     10 O2         -1.1670    0.0000    3.2300 o         1 174     -0.828300
     11 H5         -2.1600   -0.0000   -1.5460 ha        1 174      0.121000
     12 H6         -2.1710   -0.0000    0.9720 ha        1 174      0.156000
     13 H3          2.1730    0.0010   -1.4940 ha        1 174      0.121000
     14 H2          2.1240    0.0010    1.0240 ha        1 174      0.156000
@<TRIPOS>BOND
     1    1    2 1   
     2    2    3 ar  
     3    2    5 ar  
     4    3    4 ar  
     5    3   11 1   
     6    4    7 ar  
     7    4   12 1   
     8    5    6 ar  
     9    5   13 1   
    10    6    7 ar  
    11    6   14 1   
    12    7    8 1   
    13    8    9 1   
    14    8   10 1   
@<TRIPOS>SUBSTRUCTURE
     1 174         1 TEMP              0 ****  ****    0 ROOT
