@<TRIPOS>MOLECULE
174
   14    14     1     0     0
SMALL
bcc


@<TRIPOS>ATOM
      1 CL4         0.0030   -0.0000    0.0040 cl        1 174     -0.166400
      2 C4          1.7180   -0.0020   -0.0030 ca        1 174     -0.000600
      3 C5          2.4110   -0.0110    1.2100 ca        1 174     -0.156000
      4 C6          3.8050   -0.0130    1.1960 ca        1 174     -0.103000
      5 C3          2.4020    0.0050   -1.2210 ca        1 174     -0.156000
      6 C2          3.7960    0.0030   -1.2170 ca        1 174     -0.103000
      7 C1          4.5070   -0.0060   -0.0130 ca        1 174     -0.121600
      8 C           6.0300   -0.0080   -0.0190 c         1 174      0.908200
      9 O1          6.6150   -0.0010   -1.1380 o         1 174     -0.828300
     10 O2          6.6230   -0.0160    1.0960 o         1 174     -0.828300
     11 H5          1.8640   -0.0170    2.1630 ha        1 174      0.121000
     12 H6          4.3820   -0.0200    2.1350 ha        1 174      0.156000
     13 H3          1.8480    0.0120   -2.1700 ha        1 174      0.121000
     14 H2          4.3660    0.0090   -2.1600 ha        1 174      0.156000
@<TRIPOS>BOND
     1    1    2 1   
     2    2    3 ar  
     3    2    5 ar  
     4    3    4 ar  
     5    3   11 1   
     6    4    7 ar  
     7    4   12 1   
     8    5    6 ar  
     9    5   13 1   
    10    6    7 ar  
    11    6   14 1   
    12    7    8 1   
    13    8    9 1   
    14    8   10 1   
@<TRIPOS>SUBSTRUCTURE
     1 174         1 TEMP              0 ****  ****    0 ROOT
