@<TRIPOS>MOLECULE
175
   30    30     1     0     0
SMALL
bcc


@<TRIPOS>ATOM
      1 N          -1.7130    0.7600   -2.0000 n3        1 175     -0.904800
      2 C0         -0.3030    0.7600   -2.0000 c3        1 175      0.179500
      3 C2          0.2120    0.7600   -0.5440 c3        1 175      0.226900
      4 CB          0.1970    1.9840   -2.7080 c3        1 175     -0.087100
      5 N2         -0.7090    0.9040    0.2230 n3        1 175     -0.792200
      6 C3         -0.3380    0.0320    1.5920 c3        1 175      0.019500
      7 C5          0.2200   -1.0400    1.1090 c         1 175      0.673500
      8 O6         -0.0110   -2.1820    1.4520 o         1 175     -0.633500
      9 C4         -1.5480   -0.2490    2.5010 c3        1 175      0.168800
     10 N0          0.8370   -0.6160   -0.1990 n         1 175     -0.398800
     11 CA          1.9950   -1.1830   -0.8000 c3        1 175     -0.078000
     12 N5         -1.1130   -0.3420    3.8560 n3        1 175     -0.909800
     13 C           2.3970   -2.4290   -0.0430 c         1 175      0.895600
     14 O           1.9030   -3.5440   -0.3580 o         1 175     -0.838800
     15 OXT         3.2250   -2.3530    0.9020 o         1 175     -0.838800
     16 H          -2.0180    1.4750   -2.4770 hn        1 175      0.346800
     17 H2         -2.0180   -0.0110   -2.3810 hn        1 175      0.346800
     18 HC0         0.0220   -0.0380   -2.4600 h1        1 175      0.057700
     19 HC2         0.8700    1.4700   -0.4180 h2        1 175      0.095700
     20 HB1         0.0670    1.8800   -3.6700 hc        1 175      0.034033
     21 HB2        -0.2970    2.7650   -2.3950 hc        1 175      0.034033
     22 HB3         1.1480    2.1030   -2.5200 hc        1 175      0.034033
     23 HN2A       -0.7910    1.7860    0.4370 hn        1 175      0.379800
     24 H3          0.2560    0.5200    2.1920 h1        1 175      0.078700
     25 H41        -1.9670   -1.0890    2.2350 h1        1 175      0.048700
     26 H42        -2.1940    0.4780    2.4170 h1        1 175      0.048700
     27 HA1         2.7250   -0.5360   -0.7720 h1        1 175      0.054700
     28 HA2         1.8000   -1.4140   -1.7280 h1        1 175      0.054700
     29 HN51       -1.5030   -1.0660    4.2510 hn        1 175      0.351300
     30 HN52       -1.3510    0.4150    4.3050 hn        1 175      0.351300
@<TRIPOS>BOND
     1    1    2 1   
     2    1   16 1   
     3    1   17 1   
     4    2    3 1   
     5    2    4 1   
     6    2   18 1   
     7    3    5 1   
     8    3   10 1   
     9    3   19 1   
    10    4   20 1   
    11    4   21 1   
    12    4   22 1   
    13    5    6 1   
    14    5   23 1   
    15    6    7 1   
    16    6    9 1   
    17    6   24 1   
    18    7    8 2   
    19    7   10 1   
    20    9   12 1   
    21    9   25 1   
    22    9   26 1   
    23   10   11 1   
    24   11   13 1   
    25   11   27 1   
    26   11   28 1   
    27   12   29 1   
    28   12   30 1   
    29   13   14 1   
    30   13   15 1   
@<TRIPOS>SUBSTRUCTURE
     1 175         1 TEMP              0 ****  ****    0 ROOT
