@<TRIPOS>MOLECULE
175
   30    30     1     0     0
SMALL
bcc


@<TRIPOS>ATOM
      1 N          -0.9300    3.1910    0.5570 n3        1 175     -0.902800
      2 C0         -1.0290    1.8020    0.1620 c3        1 175      0.132500
      3 C2          0.2610    0.9390    0.4080 c3        1 175      0.245900
      4 CB         -1.4440    1.6410   -1.2980 c3        1 175     -0.078100
      5 N2          1.4010    1.2610   -0.4960 n3        1 175     -0.784200
      6 C3          2.5980    1.3530    0.3540 c3        1 175      0.018500
      7 C5          2.1120    1.1860    1.8190 c         1 175      0.663500
      8 O6          2.8610    1.2180    2.8130 o         1 175     -0.670500
      9 C4          3.4270    2.6430    0.1910 c3        1 175      0.153800
     10 N0          0.7320    1.0660    1.8100 n         1 175     -0.433800
     11 CA         -0.0340    0.4960    2.8870 c3        1 175     -0.044000
     12 N5          4.5960    2.7470    1.0230 n3        1 175     -0.903800
     13 C          -1.1570   -0.4900    2.4400 c         1 175      0.899600
     14 O          -0.8150   -1.5660    1.8800 o         1 175     -0.825800
     15 OXT        -2.3440   -0.1340    2.6740 o         1 175     -0.825800
     16 H          -0.9450    3.2610    1.5560 hn        1 175      0.341300
     17 H2         -0.0790    3.5990    0.2220 hn        1 175      0.341300
     18 HC0        -1.8340    1.3200    0.8090 h1        1 175      0.127700
     19 HC2        -0.0170   -0.1470    0.2120 h2        1 175      0.129700
     20 HB1        -0.7660    2.1920   -1.9930 hc        1 175      0.032700
     21 HB2        -1.4290    0.5570   -1.5650 hc        1 175      0.032700
     22 HB3        -2.4800    2.0310   -1.4400 hc        1 175      0.032700
     23 HN2A        1.2370    2.1390   -0.9560 hn        1 175      0.341800
     24 H3          3.2400    0.4590    0.1090 h1        1 175      0.084700
     25 H41         2.7680    3.5320    0.4060 h1        1 175      0.046200
     26 H42         3.7580    2.7120   -0.8850 h1        1 175      0.046200
     27 HA1        -0.5080    1.3500    3.4480 h1        1 175      0.042700
     28 HA2         0.6590   -0.0510    3.5840 h1        1 175      0.042700
     29 HN51        5.1970    1.9580    0.8780 hn        1 175      0.355300
     30 HN52        4.3320    2.7580    1.9940 hn        1 175      0.355300
@<TRIPOS>BOND
     1    1    2 1   
     2    1   16 1   
     3    1   17 1   
     4    2    3 1   
     5    2    4 1   
     6    2   18 1   
     7    3    5 1   
     8    3   10 1   
     9    3   19 1   
    10    4   20 1   
    11    4   21 1   
    12    4   22 1   
    13    5    6 1   
    14    5   23 1   
    15    6    7 1   
    16    6    9 1   
    17    6   24 1   
    18    7    8 2   
    19    7   10 1   
    20    9   12 1   
    21    9   25 1   
    22    9   26 1   
    23   10   11 1   
    24   11   13 1   
    25   11   27 1   
    26   11   28 1   
    27   12   29 1   
    28   12   30 1   
    29   13   14 1   
    30   13   15 1   
@<TRIPOS>SUBSTRUCTURE
     1 175         1 TEMP              0 ****  ****    0 ROOT
