@<TRIPOS>MOLECULE
176
   61    64     1     0     0
SMALL
bcc


@<TRIPOS>ATOM
      1 CD1         4.8170    2.5670   -0.8560 ca        1 176     -0.117500
      2 CE1         5.8930    3.3900   -0.5310 ca        1 176     -0.131000
      3 CZ1         6.5980    3.1850    0.6550 ca        1 176     -0.127000
      4 CE2         6.2210    2.1530    1.5130 ca        1 176     -0.131000
      5 CD2         5.1460    1.3260    1.1880 ca        1 176     -0.117500
      6 CG1         4.4350    1.5250    0.0000 ca        1 176     -0.078800
      7 CB0         3.2830    0.6530   -0.4000 c3        1 176      0.026900
      8 CA0         2.3930    0.2350    0.8000 c3        1 176      0.131500
      9 C0          1.0770   -0.3350    0.2050 c         1 176      0.615100
     10 O0          0.3140    0.4300   -0.4280 o         1 176     -0.639100
     11 N0          2.1280    1.3220    1.7150 n3        1 176     -0.893800
     12 CG2         3.7680   -0.5610   -1.1370 ca        1 176     -0.078800
     13 CD3         3.3260   -0.7980   -2.4450 ca        1 176     -0.117500
     14 CE3         3.7840   -1.9100   -3.1510 ca        1 176     -0.131000
     15 CZ2         4.6860   -2.7940   -2.5610 ca        1 176     -0.127000
     16 CE4         5.1320   -2.5620   -1.2590 ca        1 176     -0.131000
     17 CD4         4.6760   -1.4510   -0.5510 ca        1 176     -0.117500
     18 N           0.6970   -1.6340    0.4720 n         1 176     -0.446800
     19 CA         -0.4840   -2.2250   -0.1520 c3        1 176      0.029700
     20 C          -1.7720   -1.9640    0.6650 c         1 176      0.655100
     21 O          -2.4290   -2.8990    1.1640 o         1 176     -0.614100
     22 CB         -0.2190   -3.7400   -0.2880 c3        1 176     -0.086400
     23 CG          1.0540   -4.0270    0.4990 c3        1 176     -0.088400
     24 CD          1.6220   -2.6630    0.9210 c3        1 176      0.080000
     25 N'         -2.1520   -0.6500    0.8120 n         1 176     -0.560900
     26 CA'        -3.3850   -0.2790    1.4530 c3        1 176      0.132300
     27 CB'        -4.1980    0.7210    0.6760 ca        1 176     -0.095300
     28 CG'        -4.8830    0.3710   -0.4960 ca        1 176      0.029400
     29 CD'        -5.6560    1.3200   -1.1770 ca        1 176     -0.120000
     30 CE'        -5.7500    2.6220   -0.6950 ca        1 176     -0.112000
     31 CDB        -5.0660    2.9740    0.4730 ca        1 176      0.013400
     32 CGB        -4.2920    2.0310    1.1540 ca        1 176     -0.106000
     33 CL1        -4.8040   -1.2070   -1.1190 cl        1 176     -0.075400
     34 CL2        -5.1750    4.5620    1.0680 cl        1 176     -0.086400
     35 HD1         4.2650    2.7360   -1.7930 ha        1 176      0.134750
     36 HE1         6.1840    4.2040   -1.2110 ha        1 176      0.132250
     37 HZ1         7.4460    3.8350    0.9120 ha        1 176      0.132000
     38 HE2         6.7690    1.9910    2.4530 ha        1 176      0.132250
     39 HD2         4.8490    0.5270    1.8840 ha        1 176      0.134750
     40 HB0         2.6210    1.2540   -1.0960 hc        1 176      0.081700
     41 HA0         2.9340   -0.5610    1.3930 h1        1 176      0.074700
     42 HN01        1.8570    2.1500    1.2210 hn        1 176      0.365300
     43 HN02        1.4090    1.0690    2.3630 hn        1 176      0.365300
     44 HD3         2.6150   -0.1040   -2.9190 ha        1 176      0.134750
     45 HE3         3.4330   -2.0870   -4.1790 ha        1 176      0.132250
     46 HZ2         5.0490   -3.6680   -3.1200 ha        1 176      0.132000
     47 HE4         5.8500   -3.2510   -0.7920 ha        1 176      0.132250
     48 HD4         5.0450   -1.2590    0.4680 ha        1 176      0.134750
     49 HA         -0.6440   -1.7620   -1.1720 h1        1 176      0.084700
     50 HB1        -1.0810   -4.3330    0.1090 hc        1 176      0.074200
     51 HB2        -0.0860   -3.9950   -1.3680 hc        1 176      0.074200
     52 HG1         1.7970   -4.5810   -0.1240 hc        1 176      0.058200
     53 HG2         0.8300   -4.6450    1.4030 hc        1 176      0.058200
     54 HD1A        2.6410   -2.5050    0.4670 h1        1 176      0.054200
     55 HD2A        1.7170   -2.6010    2.0410 h1        1 176      0.054200
     56 HN'        -1.6550    0.0600    0.3220 hn        1 176      0.339500
     57 HA11       -4.0080   -1.2070    1.6300 h1        1 176      0.070700
     58 HA12       -3.1370    0.1620    2.4650 h1        1 176      0.070700
     59 HD'        -6.1930    1.0380   -2.0970 ha        1 176      0.153000
     60 HE'        -6.3580    3.3660   -1.2320 ha        1 176      0.153000
     61 HG'        -3.7540    2.3180    2.0720 ha        1 176      0.153000
@<TRIPOS>BOND
     1    1    2 ar  
     2    1    6 ar  
     3    1   35 1   
     4    2    3 ar  
     5    2   36 1   
     6    3    4 ar  
     7    3   37 1   
     8    4    5 ar  
     9    4   38 1   
    10    5    6 ar  
    11    5   39 1   
    12    6    7 1   
    13    7    8 1   
    14    7   12 1   
    15    7   40 1   
    16    8    9 1   
    17    8   11 1   
    18    8   41 1   
    19    9   10 2   
    20    9   18 1   
    21   11   42 1   
    22   11   43 1   
    23   12   13 ar  
    24   12   17 ar  
    25   13   14 ar  
    26   13   44 1   
    27   14   15 ar  
    28   14   45 1   
    29   15   16 ar  
    30   15   46 1   
    31   16   17 ar  
    32   16   47 1   
    33   17   48 1   
    34   18   19 1   
    35   18   24 1   
    36   19   20 1   
    37   19   22 1   
    38   19   49 1   
    39   20   21 2   
    40   20   25 1   
    41   22   23 1   
    42   22   50 1   
    43   22   51 1   
    44   23   24 1   
    45   23   52 1   
    46   23   53 1   
    47   24   54 1   
    48   24   55 1   
    49   25   26 1   
    50   25   56 1   
    51   26   27 1   
    52   26   57 1   
    53   26   58 1   
    54   27   28 ar  
    55   27   32 ar  
    56   28   29 ar  
    57   28   33 1   
    58   29   30 ar  
    59   29   59 1   
    60   30   31 ar  
    61   30   60 1   
    62   31   32 ar  
    63   31   34 1   
    64   32   61 1   
@<TRIPOS>SUBSTRUCTURE
     1 176         1 TEMP              0 ****  ****    0 ROOT
