@<TRIPOS>MOLECULE
176
   61    56     1     0     0
SMALL
bcc


@<TRIPOS>ATOM
      1 CD1         1.5590   -2.4280    3.8290 c1        1 176     -0.115000
      2 CE1         0.6450   -2.7800    4.8030 c1        1 176     -0.130167
      3 CZ1        -0.6780   -2.3870    4.6860 c1        1 176     -0.130167
      4 CE2        -1.0880   -1.6340    3.5810 c1        1 176     -0.130167
      5 CD2        -0.1650   -1.2790    2.5990 c1        1 176     -0.130167
      6 CG1         1.1460   -1.6690    2.7150 c1        1 176     -0.063000
      7 CB0         2.1400   -1.3750    1.5720 c2        1 176     -0.063000
      8 CA0         1.3930   -0.7770    0.3930 c3        1 176     -0.044000
      9 C0          1.9620   -1.3180   -0.8920 c2        1 176      0.328000
     10 O0          2.8700   -2.1570   -0.8600 o         1 176     -0.380000
     11 N0          1.5280    0.6510    0.4130 n3        1 176     -0.333000
     12 CG2         3.2080   -0.3800    2.0660 c2        1 176     -0.084000
     13 CD3         3.0620    0.2280    3.3230 c2        1 176     -0.132000
     14 CE3         4.1150    0.9560    3.8700 c1        1 176     -0.135000
     15 CZ2         5.3090    1.0800    3.1710 c1        1 176     -0.130167
     16 CE4         5.4550    0.4740    1.9190 c1        1 176     -0.130167
     17 CD4         4.4050   -0.2530    1.3710 c1        1 176     -0.118000
     18 N           1.5440   -0.7080   -2.2130 n         1 176     -0.312000
     19 CA          0.3860    0.3950   -2.4430 c3        1 176      0.020000
     20 C          -1.0720   -0.1420   -2.1950 c2        1 176      0.275000
     21 O          -1.2760   -1.3480   -2.1220 o         1 176     -0.352000
     22 CB          0.6120    0.7700   -3.6610 c3        1 176     -0.166000
     23 CG          1.3130   -0.4690   -4.4110 c3        1 176     -0.169000
     24 CD          2.1210   -1.0050   -3.5670 c3        1 176     -0.021000
     25 N'         -2.1770    0.7710   -2.1940 n         1 176     -0.371000
     26 CA'        -3.5030    0.3040   -2.5440 c3        1 176      0.006000
     27 CB'        -4.5400    1.2510   -1.9730 c2        1 176     -0.096000
     28 CG'        -5.4280    0.8030   -1.0120 c2        1 176     -0.061000
     29 CD'        -6.4430    1.6280   -0.5740 c1        1 176     -0.118000
     30 CE'        -6.5740    2.9070   -1.0990 c1        1 176     -0.114000
     31 CDB        -5.6890    3.3530   -2.0580 c1        1 176     -0.063000
     32 CGB        -4.6710    2.5250   -2.4970 c1        1 176     -0.098000
     33 CL1        -5.2750   -0.8340   -0.3630 cl        1 176     -0.018000
     34 CL2        -5.7900    4.9870   -2.6340 cl        1 176     -0.002000
     35 HD1         2.4990   -2.7070    3.9120 ha        1 176      0.137000
     36 HE1         0.9330   -3.3100    5.5800 ha        1 176      0.130167
     37 HZ1        -1.3150   -2.6320    5.3640 ha        1 176      0.130167
     38 HE2        -2.0410   -1.3500    3.4970 ha        1 176      0.130167
     39 HD2        -0.4490   -0.7560    1.8330 ha        1 176      0.130167
     40 HB0         2.5690   -2.1990    1.2980 ha        1 176      0.138000
     41 HA0         0.4720   -1.0070    0.4520 h1        1 176      0.133000
     42 HN01        0.7380    1.0370    0.1320 hn        1 176      0.154000
     43 HN02        1.7190    0.9310    1.2740 hn        1 176      0.154000
     44 HD3         2.2050    0.1380    3.8230 ha        1 176      0.136000
     45 HE3         4.0100    1.4000    4.7870 ha        1 176      0.130000
     46 HZ2         6.0670    1.6040    3.5650 ha        1 176      0.130167
     47 HE4         6.3430    0.5670    1.4020 ha        1 176      0.130167
     48 HD4         4.5090   -0.6860    0.4770 ha        1 176      0.162000
     49 HA          0.4440    1.1480   -1.7960 h1        1 176      0.136000
     50 HB1        -0.2600    1.0000   -4.1170 hc        1 176      0.096500
     51 HB2         1.2200    1.5600   -3.6660 hc        1 176      0.096500
     52 HG1         1.8110   -0.1480   -5.1970 hc        1 176      0.095500
     53 HG2         0.6270   -1.1280   -4.6900 hc        1 176      0.095500
     54 HD1A        2.1650   -1.9760   -3.7100 h1        1 176      0.100000
     55 HD2A        3.0270   -0.6030   -3.6520 h1        1 176      0.100000
     56 HN'        -2.0420    1.6440   -1.9980 hn        1 176      0.224000
     57 HA11       -3.5930    0.2740   -3.5370 h1        1 176      0.118000
     58 HA12       -3.6410   -0.5910   -2.1770 h1        1 176      0.118000
     59 HD'        -7.0660    1.3140    0.1000 ha        1 176      0.153000
     60 HE'        -7.3050    3.5010   -0.7840 ha        1 176      0.154000
     61 HG'        -4.0500    2.8370   -3.1700 ha        1 176      0.166000
@<TRIPOS>BOND
     1    1    6 1   
     2    1   35 1   
     3    2    3 1   
     4    2   36 1   
     5    3   37 1   
     6    4    5 1   
     7    4   38 1   
     8    5   39 1   
     9    7    8 1   
    10    7   12 1   
    11    7   40 1   
    12    8    9 1   
    13    8   11 1   
    14    8   41 1   
    15    9   10 1   
    16    9   18 1   
    17   11   42 1   
    18   11   43 1   
    19   12   13 1   
    20   12   17 1   
    21   13   14 1   
    22   13   44 1   
    23   14   45 1   
    24   15   16 1   
    25   15   46 1   
    26   16   47 1   
    27   17   48 1   
    28   18   19 1   
    29   18   24 1   
    30   19   20 1   
    31   19   22 1   
    32   19   49 1   
    33   20   21 1   
    34   20   25 1   
    35   22   23 1   
    36   22   50 1   
    37   22   51 1   
    38   23   24 1   
    39   23   52 1   
    40   23   53 1   
    41   24   54 1   
    42   24   55 1   
    43   25   26 1   
    44   25   56 1   
    45   26   27 1   
    46   26   57 1   
    47   26   58 1   
    48   27   28 1   
    49   27   32 1   
    50   28   29 1   
    51   28   33 1   
    52   29   59 1   
    53   30   31 1   
    54   30   60 1   
    55   31   34 1   
    56   32   61 1   
@<TRIPOS>SUBSTRUCTURE
     1 176         1 TEMP              0 ****  ****    0 ROOT
