@<TRIPOS>MOLECULE
177
   68    70     1     0     0
SMALL
bcc


@<TRIPOS>ATOM
      1 N0         -3.8780    1.1350   -2.0870 n3        1 177     -0.895800
      2 CA0        -3.9950    0.0070   -1.1860 c3        1 177      0.115500
      3 CB0        -5.1800    0.0260   -0.1930 c3        1 177     -0.100700
      4 CG1        -6.4860   -0.2730   -0.9130 c3        1 177     -0.077900
      5 CD1        -7.6410   -0.3150    0.0680 c3        1 177     -0.075900
      6 CE0        -7.7390    0.9680    0.8680 c3        1 177     -0.079400
      7 CD2        -6.4290    1.2930    1.5560 c3        1 177     -0.075900
      8 CG2        -5.2860    1.3420    0.5610 c3        1 177     -0.077900
      9 C0         -2.7040   -0.1450   -0.3510 c         1 177      0.669100
     10 O0         -2.1550    0.8540    0.1640 o         1 177     -0.635100
     11 N          -2.1430   -1.3970   -0.2020 n         1 177     -0.457800
     12 CA         -1.0240   -1.6350    0.7040 c3        1 177      0.033700
     13 C           0.3550   -1.3790    0.0470 c         1 177      0.661100
     14 O           1.2370   -2.2650    0.0440 o         1 177     -0.643100
     15 CB         -1.1410   -3.0990    1.1830 c3        1 177     -0.087400
     16 CG         -2.1990   -3.7580    0.3060 c3        1 177     -0.091400
     17 CD         -2.8240   -2.6350   -0.5380 c3        1 177      0.087000
     18 N'          0.5600   -0.1460   -0.5180 n         1 177     -0.549900
     19 CA'         1.8260    0.2490   -1.0740 c3        1 177      0.133300
     20 CB'         2.5600    1.2820   -0.2650 ca        1 177     -0.126300
     21 CG'         3.8300    1.0090    0.2820 ca        1 177      0.136100
     22 CD'         4.5270    1.9860    1.0050 ca        1 177     -0.188000
     23 CE'         3.9550    3.2410    1.1960 ca        1 177     -0.088000
     24 CDB         2.6940    3.5170    0.6600 ca        1 177     -0.011600
     25 CGB         2.0020    2.5460   -0.0690 ca        1 177     -0.089000
     26 CL          1.9960    5.0500    0.8940 cl        1 177     -0.091400
     27 OL          4.3500   -0.2430    0.0100 os        1 177     -0.331900
     28 CF          5.3400   -0.7160    0.9280 c3        1 177      0.051400
     29 CH          5.3790   -2.2450    0.8580 c         1 177      0.649100
     30 OH          6.4840   -2.8130    0.9840 o         1 177     -0.618100
     31 N2          4.1900   -2.9240    0.7650 n         1 177     -0.542900
     32 CM          4.1370   -4.3550    0.6110 c3        1 177      0.088000
     33 CN          3.3680   -4.8180   -0.6170 c3        1 177     -0.122100
     34 H01        -4.7850    1.3960   -2.4220 hn        1 177      0.362300
     35 H02        -3.4610    1.9210   -1.6230 hn        1 177      0.362300
     36 HA0        -4.1270   -0.8980   -1.8550 h1        1 177      0.075700
     37 HG11       -6.6840    0.5130   -1.6880 hc        1 177      0.046450
     38 HD11       -8.5980   -0.4820   -0.4920 hc        1 177      0.042450
     39 HE01       -8.0200    1.8130    0.1850 hc        1 177      0.041700
     40 HD21       -6.2130    0.5190    2.3380 hc        1 177      0.042450
     41 HG21       -4.3180    1.5490    1.0900 hc        1 177      0.046450
     42 HB0        -5.0020   -0.7950    0.5580 hc        1 177      0.054700
     43 HG12       -6.4090   -1.2580   -1.4430 hc        1 177      0.046450
     44 HG22       -5.4660    2.1850   -0.1570 hc        1 177      0.046450
     45 HD12       -7.5050   -1.1810    0.7680 hc        1 177      0.042450
     46 HD22       -6.5120    2.2830    2.0760 hc        1 177      0.042450
     47 HE02       -8.5520    0.8710    1.6340 hc        1 177      0.041700
     48 HA         -1.0930   -0.9250    1.5810 h1        1 177      0.086700
     49 HB1        -0.1580   -3.6270    1.0980 hc        1 177      0.075200
     50 HB2        -1.4500   -3.1110    2.2580 hc        1 177      0.075200
     51 HG1        -2.9810   -4.2600    0.9260 hc        1 177      0.058200
     52 HG2        -1.7400   -4.5280   -0.3600 hc        1 177      0.058200
     53 HD1        -3.9260   -2.5500   -0.3260 h1        1 177      0.050700
     54 HD2        -2.6910   -2.8420   -1.6360 h1        1 177      0.050700
     55 H'         -0.1170    0.5730   -0.3790 hn        1 177      0.338500
     56 HA'1        2.4740   -0.6690   -1.1980 h1        1 177      0.078700
     57 HA'2        1.6320    0.6840   -2.0990 h1        1 177      0.078700
     58 HD'         5.5250    1.7740    1.4160 ha        1 177      0.147000
     59 HE'         4.5000    4.0110    1.7640 ha        1 177      0.150000
     60 HG'         1.0100    2.7740   -0.4920 ha        1 177      0.154000
     61 HF1         6.3400   -0.3140    0.6180 h1        1 177      0.073200
     62 HF2         5.1020   -0.4070    1.9800 h1        1 177      0.073200
     63 HN2         3.3700   -2.4140    0.5090 hn        1 177      0.341500
     64 HM1         5.1880   -4.7640    0.5760 h1        1 177      0.054700
     65 HM2         3.6340   -4.7750    1.5310 h1        1 177      0.054700
     66 HN1         3.2800   -5.9300   -0.5890 hc        1 177      0.045033
     67 HN2A        2.3410   -4.3740   -0.6370 hc        1 177      0.045033
     68 HN3         3.8970   -4.5260   -1.5550 hc        1 177      0.045033
@<TRIPOS>BOND
     1    1    2 1   
     2    1   34 1   
     3    1   35 1   
     4    2    3 1   
     5    2    9 1   
     6    2   36 1   
     7    3    4 1   
     8    3    8 1   
     9    3   42 1   
    10    4    5 1   
    11    4   37 1   
    12    4   43 1   
    13    5    6 1   
    14    5   38 1   
    15    5   45 1   
    16    6    7 1   
    17    6   39 1   
    18    6   47 1   
    19    7    8 1   
    20    7   40 1   
    21    7   46 1   
    22    8   41 1   
    23    8   44 1   
    24    9   10 2   
    25    9   11 1   
    26   11   12 1   
    27   11   17 1   
    28   12   13 1   
    29   12   15 1   
    30   12   48 1   
    31   13   14 2   
    32   13   18 1   
    33   15   16 1   
    34   15   49 1   
    35   15   50 1   
    36   16   17 1   
    37   16   51 1   
    38   16   52 1   
    39   17   53 1   
    40   17   54 1   
    41   18   19 1   
    42   18   55 1   
    43   19   20 1   
    44   19   56 1   
    45   19   57 1   
    46   20   21 ar  
    47   20   25 ar  
    48   21   22 ar  
    49   21   27 1   
    50   22   23 ar  
    51   22   58 1   
    52   23   24 ar  
    53   23   59 1   
    54   24   25 ar  
    55   24   26 1   
    56   25   60 1   
    57   27   28 1   
    58   28   29 1   
    59   28   61 1   
    60   28   62 1   
    61   29   30 2   
    62   29   31 1   
    63   31   32 1   
    64   31   63 1   
    65   32   33 1   
    66   32   64 1   
    67   32   65 1   
    68   33   66 1   
    69   33   67 1   
    70   33   68 1   
@<TRIPOS>SUBSTRUCTURE
     1 177         1 TEMP              0 ****  ****    0 ROOT
