@<TRIPOS>MOLECULE
177
   68    68     1     0     0
SMALL
bcc


@<TRIPOS>ATOM
      1 N0         -2.9000    1.1450   -1.1010 n3        1 177     -0.339000
      2 CA0        -1.8200    1.8400   -0.5530 c3        1 177     -0.049000
      3 CB0        -2.1480    2.2330    0.9000 c3        1 177     -0.129000
      4 CG1        -2.0430    1.0160    1.7650 c3        1 177     -0.156000
      5 CD1        -2.5270    1.2660    3.1780 c3        1 177     -0.155000
      6 CE0        -3.9150    1.8860    3.2150 c3        1 177     -0.156000
      7 CD2        -4.0210    3.1060    2.3470 c3        1 177     -0.155000
      8 CG2        -3.5370    2.8560    0.9370 c3        1 177     -0.156000
      9 C0         -1.5620    3.0790   -1.3630 c2        1 177      0.325000
     10 O0         -2.2320    4.0590   -1.1890 o         1 177     -0.373000
     11 N          -0.4380    3.1030   -2.3510 n         1 177     -0.315000
     12 CA          0.5660    1.8630   -2.7060 c3        1 177      0.021000
     13 C           1.8850    1.8610   -1.8680 c2        1 177      0.284000
     14 O           1.9770    2.5760   -0.8760 o         1 177     -0.356000
     15 CB          0.7520    1.9890   -4.0130 c3        1 177     -0.164000
     16 CG          0.5510    3.4680   -4.3190 c3        1 177     -0.170000
     17 CD         -0.0860    4.0800   -3.0650 c3        1 177     -0.022000
     18 N'          2.8640    0.8720   -2.1080 n         1 177     -0.376000
     19 CA'         3.4380    0.1650   -1.0200 c3        1 177      0.010000
     20 CB'         3.2520   -1.3110   -1.2350 c2        1 177     -0.116000
     21 CG'         3.0950   -2.1590   -0.1390 c2        1 177      0.081000
     22 CD'         2.7830   -3.4920   -0.3340 c1        1 177     -0.185000
     23 CE'         2.6250   -3.9930   -1.6270 c1        1 177     -0.086000
     24 CDB         2.7830   -3.1430   -2.7300 c1        1 177     -0.089000
     25 CGB         3.0950   -1.8080   -2.5340 c1        1 177     -0.100000
     26 CL          2.5040   -3.7570   -4.3860 cl        1 177     -0.012000
     27 OL          3.3160   -1.6860    1.1430 os        1 177     -0.206000
     28 CF          3.1040   -2.6630    2.1570 c3        1 177     -0.050000
     29 CH          1.6030   -2.8720    2.3510 c2        1 177      0.270000
     30 OH          0.8500   -2.0630    1.9770 o         1 177     -0.375000
     31 N2          1.1200   -4.0580    2.9730 n         1 177     -0.366000
     32 CM         -0.1860   -4.5600    2.6360 c3        1 177     -0.031000
     33 CN         -0.4180   -5.9020    3.3670 c3        1 177     -0.238000
     34 H01        -3.2070    0.5920   -0.5230 hn        1 177      0.151500
     35 H02        -3.5410    1.7240   -1.3280 hn        1 177      0.151500
     36 HA0        -1.0320    1.2770   -0.5650 h1        1 177      0.128000
     37 HG11       -1.1440    0.7430    1.7960 hc        1 177      0.081000
     38 HD11       -1.8980    1.8670    3.6290 hc        1 177      0.081500
     39 HE01       -4.1260    2.1360    4.1380 hc        1 177      0.077500
     40 HD21       -3.4930    3.8110    2.7370 hc        1 177      0.081500
     41 HG21       -4.1510    2.2690    0.5010 hc        1 177      0.081000
     42 HB0        -1.5280    2.8620    1.1920 hc        1 177      0.119000
     43 HG12       -2.5830    0.2910    1.3620 hc        1 177      0.081000
     44 HG22       -3.5150    3.6980    0.4570 hc        1 177      0.081000
     45 HD12       -2.5500    0.4000    3.6660 hc        1 177      0.081500
     46 HD22       -4.9870    3.4010    2.3150 hc        1 177      0.081500
     47 HE02       -4.5740    1.2140    2.9040 hc        1 177      0.077500
     48 HA          0.1870    1.0210   -2.4780 h1        1 177      0.129000
     49 HB1         0.0930    1.4510   -4.5030 hc        1 177      0.097500
     50 HB2         1.7030    1.7010   -4.2660 hc        1 177      0.097500
     51 HG1         1.3930    3.8830   -4.4990 hc        1 177      0.094500
     52 HG2        -0.0580    3.5770   -5.0980 hc        1 177      0.094500
     53 HD1         0.5770    4.6420   -2.5790 h1        1 177      0.099500
     54 HD2        -0.8520    4.6050   -3.3060 h1        1 177      0.099500
     55 H'          3.1500    0.7140   -2.9500 hn        1 177      0.217000
     56 HA'1        4.4280    0.3760   -0.9620 h1        1 177      0.119500
     57 HA'2        2.9850    0.4410   -0.1620 h1        1 177      0.119500
     58 HD'         2.6720   -4.0940    0.4500 ha        1 177      0.164000
     59 HE'         2.3990   -4.9630   -1.7670 ha        1 177      0.154000
     60 HG'         3.2080   -1.1970   -3.3230 ha        1 177      0.144000
     61 HF1         3.5260   -3.5220    1.8820 h1        1 177      0.129500
     62 HF2         3.5060   -2.3520    3.0020 h1        1 177      0.129500
     63 HN2         1.5760   -4.4170    3.7020 hn        1 177      0.239000
     64 HM1        -0.2470   -4.7040    1.6350 h1        1 177      0.100000
     65 HM2        -0.8740   -3.9060    2.9160 h1        1 177      0.100000
     66 HN1        -1.1720   -6.3290    3.0040 hc        1 177      0.083000
     67 HN2A       -0.5670   -5.7340    4.3400 hc        1 177      0.083000
     68 HN3         0.3640   -6.4720    3.2520 hc        1 177      0.083000
@<TRIPOS>BOND
     1    1    2 1   
     2    1   34 1   
     3    1   35 1   
     4    2    3 1   
     5    2    9 1   
     6    2   36 1   
     7    3    4 1   
     8    3    8 1   
     9    3   42 1   
    10    4    5 1   
    11    4   37 1   
    12    4   43 1   
    13    5    6 1   
    14    5   38 1   
    15    5   45 1   
    16    6    7 1   
    17    6   39 1   
    18    6   47 1   
    19    7    8 1   
    20    7   40 1   
    21    7   46 1   
    22    8   41 1   
    23    8   44 1   
    24    9   10 1   
    25    9   11 1   
    26   11   12 1   
    27   11   17 1   
    28   12   13 1   
    29   12   15 1   
    30   12   48 1   
    31   13   14 1   
    32   13   18 1   
    33   15   16 1   
    34   15   49 1   
    35   15   50 1   
    36   16   17 1   
    37   16   51 1   
    38   16   52 1   
    39   17   53 1   
    40   17   54 1   
    41   18   19 1   
    42   18   55 1   
    43   19   20 1   
    44   19   56 1   
    45   19   57 1   
    46   20   21 1   
    47   20   25 1   
    48   21   22 1   
    49   21   27 1   
    50   22   58 1   
    51   23   24 1   
    52   23   59 1   
    53   24   26 1   
    54   25   60 1   
    55   27   28 1   
    56   28   29 1   
    57   28   61 1   
    58   28   62 1   
    59   29   30 1   
    60   29   31 1   
    61   31   32 1   
    62   31   63 1   
    63   32   33 1   
    64   32   64 1   
    65   32   65 1   
    66   33   66 1   
    67   33   67 1   
    68   33   68 1   
@<TRIPOS>SUBSTRUCTURE
     1 177         1 TEMP              0 ****  ****    0 ROOT
