@<TRIPOS>MOLECULE
178
   43    44     1     0     0
SMALL
bcc


@<TRIPOS>ATOM
      1 O          -2.6480    0.9200    3.8490 oh        1 178     -0.500100
      2 C1         -1.5510    0.7800    3.0300 ca        1 178      0.131100
      3 C2         -0.3600    0.1250    3.4080 ca        1 178     -0.145300
      4 C2A        -0.2100   -0.4610    4.7760 c3        1 178     -0.021400
      5 C2B        -0.9310   -1.7940    4.8710 c3        1 178     -0.091850
      6 C2G         1.2360   -0.6240    5.2020 c3        1 178     -0.091850
      7 C3          0.6650    0.0380    2.4630 ca        1 178     -0.075000
      8 C4          0.5430    0.6100    1.1910 ca        1 178     -0.065100
      9 C5         -0.6410    1.2700    0.8480 ca        1 178     -0.084500
     10 C6         -1.6890    1.3520    1.7540 ca        1 178     -0.152500
     11 S           1.9290    0.5180    0.2140 ss        1 178     -0.105800
     12 C1'         0.8650    0.4830   -4.1420 ca        1 178      0.131100
     13 C2'        -0.0660   -0.0740   -3.2430 ca        1 178     -0.145300
     14 C2X        -1.3420   -0.6790   -3.7400 c3        1 178     -0.021400
     15 C2Y        -1.0960   -2.0770   -4.2820 c3        1 178     -0.091850
     16 C2Z        -2.4340   -0.7160   -2.6890 c3        1 178     -0.091850
     17 C3'         0.2440   -0.0500   -1.8800 ca        1 178     -0.075000
     18 C4'         1.4210    0.5330   -1.4070 ca        1 178     -0.065100
     19 C5'         2.3190    1.1070   -2.3190 ca        1 178     -0.084500
     20 C6'         2.0550    1.0750   -3.6790 ca        1 178     -0.152500
     21 HO         -2.4890    0.4350    4.6710 ho        1 178      0.423000
     22 H2A        -0.6850    0.2560    5.5120 hc        1 178      0.043700
     23 H2B1       -0.8740   -2.1870    5.9140 hc        1 178      0.039950
     24 H2B2       -2.0060   -1.6830    4.5870 hc        1 178      0.039950
     25 H2B3       -0.4630   -2.5400    4.1840 hc        1 178      0.039950
     26 H2G1        1.7280   -1.4560    4.6430 hc        1 178      0.039950
     27 H2G2        1.8070    0.3180    5.0210 hc        1 178      0.039950
     28 H2G3        1.2800   -0.8650    6.2920 hc        1 178      0.039950
     29 H3          1.6000   -0.4900    2.7180 ha        1 178      0.145500
     30 H5         -0.7450    1.7280   -0.1490 ha        1 178      0.145500
     31 H6         -2.6270    1.8640    1.4940 ha        1 178      0.152500
     32 HO'        -0.0890   -0.0020   -5.7370 ho        1 178      0.423000
     33 H2X        -1.7260   -0.0300   -4.5830 hc        1 178      0.043700
     34 H2Y1       -2.0400   -2.4910   -4.7120 hc        1 178      0.039950
     35 H2Y2       -0.3150   -2.0590   -5.0800 hc        1 178      0.039950
     36 H2Y3       -0.7490   -2.7560   -3.4660 hc        1 178      0.039950
     37 H2Z1       -2.2180   -1.4880   -1.9120 hc        1 178      0.039950
     38 H2Z2       -2.5340    0.2770   -2.1910 hc        1 178      0.039950
     39 H2Z3       -3.4090   -0.9740   -3.1710 hc        1 178      0.039950
     40 H3'        -0.4540   -0.5010   -1.1550 ha        1 178      0.145500
     41 H5'         3.2420    1.5820   -1.9510 ha        1 178      0.145500
     42 H6'         2.7550    1.5090   -4.4070 ha        1 178      0.152500
     43 O'          0.6970    0.5140   -5.5070 oh        1 178     -0.500100
@<TRIPOS>BOND
     1    1    2 1   
     2    1   21 1   
     3    2    3 ar  
     4    2   10 ar  
     5    3    4 1   
     6    3    7 ar  
     7    4    5 1   
     8    4    6 1   
     9    4   22 1   
    10    5   23 1   
    11    5   24 1   
    12    5   25 1   
    13    6   26 1   
    14    6   27 1   
    15    6   28 1   
    16    7    8 ar  
    17    7   29 1   
    18    8    9 ar  
    19    8   11 1   
    20    9   10 ar  
    21    9   30 1   
    22   10   31 1   
    23   11   18 1   
    24   12   13 ar  
    25   12   20 ar  
    26   12   43 1   
    27   13   14 1   
    28   13   17 ar  
    29   14   15 1   
    30   14   16 1   
    31   14   33 1   
    32   15   34 1   
    33   15   35 1   
    34   15   36 1   
    35   16   37 1   
    36   16   38 1   
    37   16   39 1   
    38   17   18 ar  
    39   17   40 1   
    40   18   19 ar  
    41   19   20 ar  
    42   19   41 1   
    43   20   42 1   
    44   32   43 1   
@<TRIPOS>SUBSTRUCTURE
     1 178         1 TEMP              0 ****  ****    0 ROOT
