@<TRIPOS>MOLECULE
178
   43    40     1     0     0
SMALL
bcc


@<TRIPOS>ATOM
      1 O          -5.0070    0.2080    1.6730 oh        1 178     -0.251000
      2 C1         -3.6030    0.1940    1.5830 c2        1 178      0.084000
      3 C2         -2.8570    1.1390    2.2690 c1        1 178     -0.081000
      4 C2A        -3.5520    2.1970    3.0970 c2        1 178     -0.067000
      5 C2B        -3.1540    2.0430    4.5470 c3        1 178     -0.205000
      6 C2G        -3.1460    3.5690    2.6060 c3        1 178     -0.205000
      7 C3         -1.4730    1.1160    2.1940 c2        1 178     -0.074000
      8 C4         -0.8350    0.1480    1.4340 c1        1 178     -0.291000
      9 C5         -1.5830   -0.7970    0.7480 c1        1 178     -0.084000
     10 C6         -2.9670   -0.7740    0.8220 c2        1 178     -0.208000
     11 S           0.9370    0.0490    1.4290 ss        1 178      0.352000
     12 O'          3.1230   -0.3600   -4.0920 oh        1 178     -0.249000
     13 C1'         2.5940   -0.2670   -2.7910 c2        1 178      0.089000
     14 C2'         2.6170   -1.3710   -1.9530 c2        1 178     -0.081000
     15 C2X         3.2740   -2.6540   -2.4110 c3        1 178     -0.055000
     16 C2Y         2.6940   -3.0700   -3.7430 c3        1 178     -0.209000
     17 C2Z         4.7650   -2.4340   -2.5560 c3        1 178     -0.209000
     18 C3'         2.0790   -1.2850   -0.6780 c1        1 178     -0.078000
     19 C4'         1.5170   -0.0950   -0.2420 c1        1 178     -0.290000
     20 C5'         1.4940    1.0090   -1.0810 c1        1 178     -0.085000
     21 C6'         2.0330    0.9220   -2.3550 c1        1 178     -0.209000
     22 HO         -5.3570    0.0660    0.8670 ho        1 178      0.219000
     23 H2A        -4.5180    2.0930    3.0130 ha        1 178      0.112000
     24 H2B1       -2.2980    2.4960    4.7010 hc        1 178      0.075500
     25 H2B2       -3.0630    1.0910    4.7610 hc        1 178      0.075500
     26 H2B3       -3.8420    2.4420    5.1190 hc        1 178      0.075500
     27 H2G1       -2.2560    3.7900    2.9530 hc        1 178      0.075500
     28 H2G2       -3.1250    3.5720    1.6270 hc        1 178      0.075500
     29 H2G3       -3.7940    4.2330    2.9220 hc        1 178      0.075500
     30 H3         -0.9470    1.7810    2.6770 ha        1 178      0.148000
     31 H5         -1.1340   -1.4790    0.2120 ha        1 178      0.143000
     32 H6         -3.4930   -1.4390    0.3390 ha        1 178      0.135000
     33 HO'         3.5940    0.3730   -4.2740 ho        1 178      0.216000
     34 H2X         3.1120   -3.3550   -1.7520 hc        1 178      0.086000
     35 H2Y1        3.3240   -2.8430   -4.4590 hc        1 178      0.078833
     36 H2Y2        1.8470   -2.5980   -3.8920 hc        1 178      0.078833
     37 H2Y3        2.5340   -4.0360   -3.7430 hc        1 178      0.078833
     38 H2Z1        4.9740   -2.2270   -3.4910 hc        1 178      0.078833
     39 H2Z2        5.2430   -3.2450   -2.2860 hc        1 178      0.078833
     40 H2Z3        5.0420   -1.6860   -1.9860 hc        1 178      0.078833
     41 H3'         2.0950   -2.0620   -0.0880 ha        1 178      0.146000
     42 H5'         1.0990    1.8460   -0.7740 ha        1 178      0.143000
     43 H6'         2.0160    1.7000   -2.9460 ha        1 178      0.135000
@<TRIPOS>BOND
     1    1    2 1   
     2    1   22 1   
     3    2    3 1   
     4    2   10 1   
     5    3    7 1   
     6    4    5 1   
     7    4    6 1   
     8    4   23 1   
     9    5   24 1   
    10    5   25 1   
    11    5   26 1   
    12    6   27 1   
    13    6   28 1   
    14    6   29 1   
    15    7    8 1   
    16    7   30 1   
    17    8   11 1   
    18    9   10 1   
    19    9   31 1   
    20   10   32 1   
    21   11   19 1   
    22   12   13 1   
    23   12   33 1   
    24   13   14 1   
    25   13   21 1   
    26   14   15 1   
    27   14   18 1   
    28   15   16 1   
    29   15   17 1   
    30   15   34 1   
    31   16   35 1   
    32   16   36 1   
    33   16   37 1   
    34   17   38 1   
    35   17   39 1   
    36   17   40 1   
    37   18   41 1   
    38   19   20 1   
    39   20   42 1   
    40   21   43 1   
@<TRIPOS>SUBSTRUCTURE
     1 178         1 TEMP              0 ****  ****    0 ROOT
