@<TRIPOS>MOLECULE
178
   43    42     1     0     0
SMALL
bcc


@<TRIPOS>ATOM
      1 O          -0.2720   -0.6150    0.5050 oh        1 178     -0.502100
      2 C1          1.0120   -0.1850    0.1910 ce        1 178      0.199900
      3 C2          1.9350   -0.1750    1.1920 cf        1 178     -0.080700
      4 C2A         1.5510   -0.5790    2.5880 c3        1 178     -0.022500
      5 C2B         2.5180   -1.6050    3.1460 c3        1 178     -0.086600
      6 C2G         1.4730    0.6320    3.4980 c3        1 178     -0.086600
      7 C3          3.3120    0.2360    1.0020 cf        1 178     -0.108000
      8 C4          4.0370    0.0550   -0.1130 c2        1 178     -0.131400
      9 C5          1.4010    0.5820   -2.2730 c1        1 178     -0.107500
     10 C6          1.2320    0.2240   -1.1420 cg        1 178     -0.203800
     11 S           5.6120    0.6330   -0.2320 ss        1 178     -0.081200
     12 C1'         7.3410   -0.6590   -4.4030 ce        1 178      0.199900
     13 C2'         6.5510   -1.4500   -3.6250 cf        1 178     -0.080700
     14 C2X         6.3490   -2.8980   -3.9700 c3        1 178     -0.022500
     15 C2Y         6.5770   -3.7860   -2.7630 c3        1 178     -0.086600
     16 C2Z         4.9650   -3.1280   -4.5480 c3        1 178     -0.086600
     17 C3'         5.8420   -0.9650   -2.4570 cf        1 178     -0.108000
     18 C4'         6.2850   -0.0210   -1.6130 c2        1 178     -0.131400
     19 C5'         7.7640    1.8950   -4.0740 c1        1 178     -0.107500
     20 C6'         7.5700    0.7210   -4.2140 cg        1 178     -0.203800
     21 HO         -0.8220   -0.5240   -0.2850 ho        1 178      0.422500
     22 H2A         0.5260   -1.0540    2.5560 hc        1 178      0.072700
     23 H2B1        2.1860   -1.9240    4.1630 hc        1 178      0.035283
     24 H2B2        3.5480   -1.1810    3.2270 hc        1 178      0.035283
     25 H2B3        2.5570   -2.5030    2.4840 hc        1 178      0.035283
     26 H2G1        1.1190    0.3210    4.5110 hc        1 178      0.035283
     27 H2G2        2.4730    1.1160    3.6080 hc        1 178      0.035283
     28 H2G3        0.7580    1.3830    3.0840 hc        1 178      0.035283
     29 H3          3.7680    0.7180    1.8880 ha        1 178      0.133500
     30 H5          3.5990   -0.4570   -0.9830 h4        1 178      0.155500
     31 H6          1.5550    0.8990   -3.2730 ha        1 178      0.172500
     32 HO'         8.5030   -0.5770   -5.9340 ho        1 178      0.422500
     33 H2X         7.1040   -3.1890   -4.7590 hc        1 178      0.072700
     34 H2Y1        7.6010   -3.6260   -2.3500 hc        1 178      0.035283
     35 H2Y2        5.8330   -3.5670   -1.9590 hc        1 178      0.035283
     36 H2Y3        6.4740   -4.8590   -3.0570 hc        1 178      0.035283
     37 H2Z1        4.1730   -2.9010   -3.7940 hc        1 178      0.035283
     38 H2Z2        4.8040   -2.4770   -5.4410 hc        1 178      0.035283
     39 H2Z3        4.8580   -4.1950   -4.8600 hc        1 178      0.035283
     40 H3'         4.8750   -1.4710   -2.2800 ha        1 178      0.133500
     41 H5'         7.2770    0.4420   -1.7840 h4        1 178      0.155500
     42 H6'         7.9320    2.9350   -3.9460 ha        1 178      0.172500
     43 O'          7.9610   -1.2490   -5.4980 oh        1 178     -0.502100
@<TRIPOS>BOND
     1    1    2 1   
     2    1   21 1   
     3    2    3 2   
     4    2   10 1   
     5    3    4 1   
     6    3    7 1   
     7    4    5 1   
     8    4    6 1   
     9    4   22 1   
    10    5   23 1   
    11    5   24 1   
    12    5   25 1   
    13    6   26 1   
    14    6   27 1   
    15    6   28 1   
    16    7    8 2   
    17    7   29 1   
    18    8   11 1   
    19    8   30 1   
    20    9   10 3   
    21    9   31 1   
    22   11   18 1   
    23   12   13 2   
    24   12   20 1   
    25   12   43 1   
    26   13   14 1   
    27   13   17 1   
    28   14   15 1   
    29   14   16 1   
    30   14   33 1   
    31   15   34 1   
    32   15   35 1   
    33   15   36 1   
    34   16   37 1   
    35   16   38 1   
    36   16   39 1   
    37   17   18 2   
    38   17   40 1   
    39   18   41 1   
    40   19   20 3   
    41   19   42 1   
    42   32   43 1   
@<TRIPOS>SUBSTRUCTURE
     1 178         1 TEMP              0 ****  ****    0 ROOT
