@<TRIPOS>MOLECULE
178
   43    42     1     0     0
SMALL
bcc


@<TRIPOS>ATOM
      1 O          -0.2700   -0.7190    0.5240 oh        1 178     -0.502100
      2 C1          1.0000   -0.2580    0.1980 ce        1 178      0.199900
      3 C2          1.9270   -0.2100    1.1960 cf        1 178     -0.080700
      4 C2A         1.5600   -0.6060    2.5980 c3        1 178     -0.023000
      5 C2B         2.5570   -1.5990    3.1640 c3        1 178     -0.086600
      6 C2G         1.4540    0.6140    3.4930 c3        1 178     -0.086600
      7 C3          3.2910    0.2360    0.9940 cf        1 178     -0.108000
      8 C4          4.0170    0.0600   -0.1220 c2        1 178     -0.131400
      9 C5          1.3570    0.4860   -2.2770 c1        1 178     -0.107500
     10 C6          1.2040    0.1390   -1.1400 cg        1 178     -0.203800
     11 S           5.5740    0.6790   -0.2560 ss        1 178     -0.081200
     12 C1'         7.3200   -0.6140   -4.4200 ce        1 178      0.199900
     13 C2'         6.5530   -1.4170   -3.6310 cf        1 178     -0.080700
     14 C2X         6.3860   -2.8730   -3.9600 c3        1 178     -0.023000
     15 C2Y         6.6430   -3.7420   -2.7440 c3        1 178     -0.086600
     16 C2Z         5.0060   -3.1440   -4.5280 c3        1 178     -0.086600
     17 C3'         5.8370   -0.9370   -2.4650 cf        1 178     -0.108000
     18 C4'         6.2580    0.0270   -1.6330 c2        1 178     -0.131400
     19 C5'         7.6790    1.9530   -4.1200 c1        1 178     -0.107500
     20 C6'         7.5150    0.7730   -4.2470 cg        1 178     -0.203800
     21 HO         -0.8260   -0.6530   -0.2650 ho        1 178      0.422500
     22 H2A         0.5490   -1.1090    2.5770 hc        1 178      0.072700
     23 H2B1        2.2380   -1.9130    4.1870 hc        1 178      0.035283
     24 H2B2        3.5750   -1.1460    3.2350 hc        1 178      0.035283
     25 H2B3        2.6170   -2.5040    2.5140 hc        1 178      0.035283
     26 H2G1        1.1120    0.3070    4.5110 hc        1 178      0.035283
     27 H2G2        2.4410    1.1250    3.5920 hc        1 178      0.035283
     28 H2G3        0.7170    1.3400    3.0730 hc        1 178      0.035283
     29 H3          3.7380    0.7410    1.8710 ha        1 178      0.133500
     30 H5          3.5880   -0.4750   -0.9840 h4        1 178      0.155500
     31 H6          1.4990    0.7950   -3.2820 ha        1 178      0.172500
     32 HO'         8.4740   -0.5190   -5.9570 ho        1 178      0.422500
     33 H2X         7.1450   -3.1530   -4.7480 hc        1 178      0.072700
     34 H2Y1        7.6650   -3.5510   -2.3380 hc        1 178      0.035283
     35 H2Y2        5.8980   -3.5330   -1.9390 hc        1 178      0.035283
     36 H2Y3        6.5660   -4.8200   -3.0260 hc        1 178      0.035283
     37 H2Z1        4.2130   -2.9300   -3.7720 hc        1 178      0.035283
     38 H2Z2        4.8240   -2.5060   -5.4260 hc        1 178      0.035283
     39 H2Z3        4.9250   -4.2160   -4.8290 hc        1 178      0.035283
     40 H3'         4.8840   -1.4660   -2.2780 ha        1 178      0.133500
     41 H5'         7.2370    0.5140   -1.8130 h4        1 178      0.155500
     42 H6'         7.8210    2.9980   -4.0040 ha        1 178      0.172500
     43 O'          7.9500   -1.2000   -5.5110 oh        1 178     -0.502100
@<TRIPOS>BOND
     1    1    2 1   
     2    1   21 1   
     3    2    3 2   
     4    2   10 1   
     5    3    4 1   
     6    3    7 1   
     7    4    5 1   
     8    4    6 1   
     9    4   22 1   
    10    5   23 1   
    11    5   24 1   
    12    5   25 1   
    13    6   26 1   
    14    6   27 1   
    15    6   28 1   
    16    7    8 2   
    17    7   29 1   
    18    8   11 1   
    19    8   30 1   
    20    9   10 3   
    21    9   31 1   
    22   11   18 1   
    23   12   13 2   
    24   12   20 1   
    25   12   43 1   
    26   13   14 1   
    27   13   17 1   
    28   14   15 1   
    29   14   16 1   
    30   14   33 1   
    31   15   34 1   
    32   15   35 1   
    33   15   36 1   
    34   16   37 1   
    35   16   38 1   
    36   16   39 1   
    37   17   18 2   
    38   17   40 1   
    39   18   41 1   
    40   19   20 3   
    41   19   42 1   
    42   32   43 1   
@<TRIPOS>SUBSTRUCTURE
     1 178         1 TEMP              0 ****  ****    0 ROOT
