@<TRIPOS>MOLECULE
179
   49    51     1     0     0
SMALL
bcc


@<TRIPOS>ATOM
      1 C18        -1.2010   -0.1520   -0.9570 ca        1 179     -0.039000
      2 C17         0.1220   -0.4020   -0.5200 ca        1 179     -0.047000
      3 C16         0.4340   -0.4940    0.8650 ca        1 179     -0.112000
      4 C15         1.7260   -0.7420    1.2680 ca        1 179     -0.086000
      5 C14         2.7570   -0.9090    0.3120 ca        1 179     -0.062000
      6 C13         2.4820   -0.8260   -1.0350 ca        1 179     -0.119000
      7 C12         1.1600   -0.5720   -1.4810 ca        1 179     -0.002000
      8 C11         0.8450   -0.4850   -2.8660 ca        1 179     -0.049000
      9 C10        -0.4370   -0.2450   -3.2910 ca        1 179     -0.150000
     10 C9         -1.4680   -0.0810   -2.3170 ca        1 179     -0.105400
     11 N2         -2.8450    0.1150   -2.7920 n4        1 179     -0.488200
     12 C8         -3.0310    1.4610   -3.3890 c         1 179      0.495100
     13 O8         -2.8810    1.6570   -4.5840 o         1 179     -0.349100
     14 C7         -3.4270    2.5770   -2.4260 c         1 179      0.474100
     15 O7         -2.9160    2.8070   -1.3460 o         1 179     -0.317100
     16 N1         -4.5550    3.4230   -2.9140 n4        1 179     -0.668800
     17 C1         -5.8860    2.7110   -2.7060 c3        1 179      0.346300
     18 O5         -5.6360    1.3560   -3.0510 os        1 179     -0.495600
     19 C5         -6.7930    0.5000   -2.8920 c3        1 179      0.129100
     20 C6         -6.3270   -0.8700   -3.3980 c3        1 179      0.132400
     21 O6         -5.2290   -1.3040   -2.6160 oh        1 179     -0.673800
     22 C4         -7.9850    1.0190   -3.7130 c3        1 179      0.090100
     23 O4         -9.0870    0.2270   -3.3180 oh        1 179     -0.579800
     24 C3         -8.2670    2.4980   -3.3770 c3        1 179      0.083100
     25 O3         -9.2170    3.0300   -4.2770 oh        1 179     -0.582800
     26 C2         -6.9860    3.3180   -3.6120 c3        1 179      0.114100
     27 O2         -7.1030    4.6640   -3.2120 oh        1 179     -0.617800
     28 H18        -1.9880   -0.0300   -0.1930 ha        1 179      0.150000
     29 H16        -0.3700   -0.3660    1.6060 ha        1 179      0.151000
     30 H15         1.9730   -0.8160    2.3410 ha        1 179      0.172000
     31 H14         3.7850   -1.1100    0.6610 ha        1 179      0.174000
     32 H13         3.2830   -0.9570   -1.7820 ha        1 179      0.167000
     33 H11         1.6560   -0.6210   -3.6050 ha        1 179      0.180000
     34 H10        -0.6650   -0.1880   -4.3670 ha        1 179      0.159000
     35 HN2        -3.0460   -0.5980   -3.5220 hn        1 179      0.497300
     36 HN1        -4.4300    3.6250   -3.9190 hn        1 179      0.502800
     37 H1         -6.1530    2.8100   -1.6090 hx        1 179      0.133700
     38 H5         -7.0540    0.4600   -1.7990 h1        1 179      0.095700
     39 H6         -7.2010   -1.5740   -3.3480 h1        1 179      0.097200
     40 H6A        -5.9520   -0.7950   -4.4550 h1        1 179      0.097200
     41 HO6        -5.5290   -2.0240   -2.0450 ho        1 179      0.455000
     42 H4         -7.7830    0.9170   -4.8150 h1        1 179      0.085700
     43 HO4        -9.7560    0.2920   -4.0160 ho        1 179      0.447000
     44 H3         -8.6160    2.5980   -2.3120 h1        1 179      0.087700
     45 HO3       -10.0980    2.8310   -3.9280 ho        1 179      0.450000
     46 H2         -6.7000    3.2620   -4.7020 h1        1 179      0.095700
     47 HO2        -7.9470    5.0040   -3.5570 ho        1 179      0.483000
     48 H22        -3.5270   -0.0320   -2.0280 hn        1 179      0.497300
     49 H12        -4.6020    4.3210   -2.4000 hn        1 179      0.502800
@<TRIPOS>BOND
     1    1    2 ar  
     2    1   10 ar  
     3    1   28 1   
     4    2    3 ar  
     5    2    7 ar  
     6    3    4 ar  
     7    3   29 1   
     8    4    5 ar  
     9    4   30 1   
    10    5    6 ar  
    11    5   31 1   
    12    6    7 ar  
    13    6   32 1   
    14    7    8 ar  
    15    8    9 ar  
    16    8   33 1   
    17    9   10 ar  
    18    9   34 1   
    19   10   11 1   
    20   11   12 1   
    21   11   35 1   
    22   11   48 1   
    23   12   13 2   
    24   12   14 1   
    25   14   15 2   
    26   14   16 1   
    27   16   17 1   
    28   16   36 1   
    29   16   49 1   
    30   17   18 1   
    31   17   26 1   
    32   17   37 1   
    33   18   19 1   
    34   19   20 1   
    35   19   22 1   
    36   19   38 1   
    37   20   21 1   
    38   20   39 1   
    39   20   40 1   
    40   21   41 1   
    41   22   23 1   
    42   22   24 1   
    43   22   42 1   
    44   23   43 1   
    45   24   25 1   
    46   24   26 1   
    47   24   44 1   
    48   25   45 1   
    49   26   27 1   
    50   26   46 1   
    51   27   47 1   
@<TRIPOS>SUBSTRUCTURE
     1 179         1 TEMP              0 ****  ****    0 ROOT
