@<TRIPOS>MOLECULE
179
   48    50     1     0     0
SMALL
bcc


@<TRIPOS>ATOM
      1 C18        -0.1700    0.1510   -0.1240 ca        1 179     -0.123000
      2 C17         1.1480   -0.3650   -0.1800 ca        1 179     -0.025000
      3 C16         1.8390   -0.7500    1.0030 ca        1 179     -0.121000
      4 C15         3.1180   -1.2450    0.9290 ca        1 179     -0.106000
      5 C14         3.7650   -1.3790   -0.3250 ca        1 179     -0.108000
      6 C13         3.1200   -1.0160   -1.4820 ca        1 179     -0.115000
      7 C12         1.7960   -0.5000   -1.4350 ca        1 179     -0.034000
      8 C11         1.1010   -0.1140   -2.6110 ca        1 179     -0.082000
      9 C10        -0.1770    0.3820   -2.5550 ca        1 179     -0.141000
     10 C9         -0.8300    0.5200   -1.2930 ca        1 179      0.009600
     11 N2         -2.1610    1.0080   -1.1870 ns        1 179     -0.391100
     12 C8         -2.8140    1.7230   -2.1370 c         1 179      0.623100
     13 O8         -2.4390    2.0360   -3.2800 o         1 179     -0.562100
     14 C7         -4.2350    2.1880   -1.7140 c         1 179      0.454100
     15 O7         -4.7470    2.0830   -0.6120 o         1 179     -0.399100
     16 N1         -5.0140    2.8560   -2.8080 ny        1 179     -0.667800
     17 C1         -6.4370    2.3660   -2.9000 c3        1 179      0.333300
     18 O5         -6.3660    1.0770   -3.4940 os        1 179     -0.422600
     19 C5         -7.6520    0.4220   -3.5170 c3        1 179      0.115100
     20 C6         -7.3770   -0.9480   -4.1430 c3        1 179      0.137400
     21 O6         -6.8150   -1.7450   -3.1190 oh        1 179     -0.595800
     22 C4         -8.6510    1.2470   -4.3470 c3        1 179      0.077100
     23 O4         -9.9650    0.7520   -4.1720 oh        1 179     -0.582800
     24 C3         -8.7090    2.7010   -3.8350 c3        1 179      0.118100
     25 O3         -9.4430    3.5220   -4.7190 oh        1 179     -0.594800
     26 C2         -7.2920    3.2950   -3.8010 c3        1 179      0.109100
     27 O2         -7.2490    4.5740   -3.2070 oh        1 179     -0.622800
     28 H18        -0.6460    0.2440    0.8660 ha        1 179      0.141000
     29 H16         1.3310   -0.6430    1.9730 ha        1 179      0.140000
     30 H15         3.6570   -1.5440    1.8420 ha        1 179      0.147000
     31 H14         4.7900   -1.7790   -0.3560 ha        1 179      0.148000
     32 H13         3.6150   -1.1160   -2.4600 ha        1 179      0.145000
     33 H11         1.6080   -0.2210   -3.5840 ha        1 179      0.151000
     34 H10        -0.6930    0.6760   -3.4830 ha        1 179      0.162000
     35 HN2        -2.6090    0.8650   -0.3020 hn        1 179      0.351500
     36 HN1        -4.5290    2.6820   -3.7050 hn        1 179      0.492300
     37 H1         -6.8560    2.3160   -1.8480 hx        1 179      0.127700
     38 H5         -8.0230    0.2970   -2.4610 h1        1 179      0.098700
     39 H6         -8.3480   -1.3870   -4.4970 h1        1 179      0.050700
     40 H6A        -6.6630   -0.8520   -5.0040 h1        1 179      0.050700
     41 HO6        -6.6630   -2.6220   -3.4950 ho        1 179      0.426000
     42 H4         -8.3560    1.2370   -5.4320 h1        1 179      0.076700
     43 HO4       -10.0560   -0.0430   -4.7140 ho        1 179      0.428000
     44 H3         -9.1750    2.7260   -2.8090 h1        1 179      0.080700
     45 HO3       -10.3380    3.1530   -4.7690 ho        1 179      0.449000
     46 H2         -6.8750    3.3440   -4.8470 h1        1 179      0.088700
     47 HO2        -7.9860    5.0900   -3.5730 ho        1 179      0.470000
     48 H12        -5.0560    3.8730   -2.6380 hn        1 179      0.492300
@<TRIPOS>BOND
     1    1    2 ar  
     2    1   10 ar  
     3    1   28 1   
     4    2    3 ar  
     5    2    7 ar  
     6    3    4 ar  
     7    3   29 1   
     8    4    5 ar  
     9    4   30 1   
    10    5    6 ar  
    11    5   31 1   
    12    6    7 ar  
    13    6   32 1   
    14    7    8 ar  
    15    8    9 ar  
    16    8   33 1   
    17    9   10 ar  
    18    9   34 1   
    19   10   11 1   
    20   11   12 1   
    21   11   35 1   
    22   12   13 2   
    23   12   14 1   
    24   14   15 2   
    25   14   16 1   
    26   16   17 1   
    27   16   36 1   
    28   16   48 1   
    29   17   18 1   
    30   17   26 1   
    31   17   37 1   
    32   18   19 1   
    33   19   20 1   
    34   19   22 1   
    35   19   38 1   
    36   20   21 1   
    37   20   39 1   
    38   20   40 1   
    39   21   41 1   
    40   22   23 1   
    41   22   24 1   
    42   22   42 1   
    43   23   43 1   
    44   24   25 1   
    45   24   26 1   
    46   24   44 1   
    47   25   45 1   
    48   26   27 1   
    49   26   46 1   
    50   27   47 1   
@<TRIPOS>SUBSTRUCTURE
     1 179         1 TEMP              0 ****  ****    0 ROOT
