@<TRIPOS>MOLECULE
179
   47    49     1     0     0
SMALL
bcc


@<TRIPOS>ATOM
      1 C18        -4.3070   -0.0390   -0.9670 ca        1 179     -0.169000
      2 C17        -5.6720   -0.1400   -0.6000 ca        1 179     -0.013000
      3 C16        -6.6940   -0.2520   -1.5840 ca        1 179     -0.124000
      4 C15        -8.0110   -0.3510   -1.2100 ca        1 179     -0.119000
      5 C14        -8.3710   -0.3420    0.1600 ca        1 179     -0.131000
      6 C13        -7.4050   -0.2350    1.1290 ca        1 179     -0.110000
      7 C12        -6.0330   -0.1310    0.7700 ca        1 179     -0.052000
      8 C11        -5.0070   -0.0190    1.7450 ca        1 179     -0.096000
      9 C10        -3.6880    0.0810    1.3870 ca        1 179     -0.142000
     10 C9         -3.3140    0.0730    0.0050 ca        1 179      0.062600
     11 N2         -1.9740    0.2000   -0.4100 n         1 179     -0.439100
     12 C8         -0.8490    0.0750    0.3700 c         1 179      0.599100
     13 O8         -0.8350   -0.1080    1.6000 o         1 179     -0.580100
     14 C7          0.4880    0.1960   -0.4040 c         1 179      0.586100
     15 O7          0.5320    0.0370   -1.6360 o         1 179     -0.572100
     16 N1          1.5830    0.5640    0.3590 n         1 179     -0.523900
     17 C1          2.9190    0.4460   -0.1770 c3        1 179      0.253500
     18 O5          3.4560   -0.8030    0.3070 os        1 179     -0.452600
     19 C5          4.7400   -1.1030   -0.2430 c3        1 179      0.108100
     20 C6          5.1180   -2.4790    0.3140 c3        1 179      0.140400
     21 O6          4.2910   -3.4900   -0.2170 oh        1 179     -0.591800
     22 C4          5.7580   -0.0380    0.1930 c3        1 179      0.122100
     23 O4          6.9840   -0.3480   -0.4430 oh        1 179     -0.592800
     24 C3          5.2640    1.3510   -0.2430 c3        1 179      0.109100
     25 O3          6.1770    2.2900    0.2990 oh        1 179     -0.604800
     26 C2          3.8460    1.6000    0.2960 c3        1 179      0.086100
     27 O2          3.4430    2.8400   -0.2530 oh        1 179     -0.598800
     28 H18        -4.0600   -0.0500   -2.0400 ha        1 179      0.137000
     29 H16        -6.4070   -0.2590   -2.6460 ha        1 179      0.133000
     30 H15        -8.8040   -0.4390   -1.9690 ha        1 179      0.134000
     31 H14        -9.4340   -0.4230    0.4330 ha        1 179      0.134000
     32 H13        -7.6730   -0.2280    2.1960 ha        1 179      0.134000
     33 H11        -5.2900   -0.0140    2.8090 ha        1 179      0.139000
     34 H10        -2.9120    0.1640    2.1660 ha        1 179      0.170000
     35 HN2        -1.8280    0.2620   -1.3990 hn        1 179      0.343500
     36 HN1         1.4990    0.4300    1.3480 hn        1 179      0.333500
     37 H1          2.8760    0.4310   -1.3080 h2        1 179      0.101700
     38 H5          4.6740   -1.1430   -1.3650 h1        1 179      0.075700
     39 H6          6.1590   -2.7330   -0.0220 h1        1 179      0.065700
     40 H6A         5.0580   -2.4690    1.4340 h1        1 179      0.065700
     41 HO6         3.3830   -3.2760    0.0350 ho        1 179      0.410000
     42 H4          5.8900   -0.0550    1.3100 h1        1 179      0.062700
     43 HO4         7.5900    0.3780   -0.2360 ho        1 179      0.426000
     44 H3          5.2630    1.4310   -1.3660 h1        1 179      0.068700
     45 HO3         5.8470    3.1660    0.0590 ho        1 179      0.428000
     46 H2          3.8680    1.6560    1.4190 h1        1 179      0.064700
     47 HO2         2.5740    3.0500    0.1100 ho        1 179      0.421000
@<TRIPOS>BOND
     1    1    2 ar  
     2    1   10 ar  
     3    1   28 1   
     4    2    3 ar  
     5    2    7 ar  
     6    3    4 ar  
     7    3   29 1   
     8    4    5 ar  
     9    4   30 1   
    10    5    6 ar  
    11    5   31 1   
    12    6    7 ar  
    13    6   32 1   
    14    7    8 ar  
    15    8    9 ar  
    16    8   33 1   
    17    9   10 ar  
    18    9   34 1   
    19   10   11 1   
    20   11   12 1   
    21   11   35 1   
    22   12   13 2   
    23   12   14 1   
    24   14   15 2   
    25   14   16 1   
    26   16   17 1   
    27   16   36 1   
    28   17   18 1   
    29   17   26 1   
    30   17   37 1   
    31   18   19 1   
    32   19   20 1   
    33   19   22 1   
    34   19   38 1   
    35   20   21 1   
    36   20   39 1   
    37   20   40 1   
    38   21   41 1   
    39   22   23 1   
    40   22   24 1   
    41   22   42 1   
    42   23   43 1   
    43   24   25 1   
    44   24   26 1   
    45   24   44 1   
    46   25   45 1   
    47   26   27 1   
    48   26   46 1   
    49   27   47 1   
@<TRIPOS>SUBSTRUCTURE
     1 179         1 TEMP              0 ****  ****    0 ROOT
