@<TRIPOS>MOLECULE
179
   47    44     1     0     0
SMALL
bcc


@<TRIPOS>ATOM
      1 C18         3.9170   -1.0250    1.9390 c1        1 179     -0.077000
      2 C17         5.3500   -1.0010    2.0320 cg        1 179     -0.033000
      3 C16         5.9840   -0.9120    3.3150 c1        1 179     -0.064250
      4 C15         7.3830   -0.8890    3.4060 c1        1 179     -0.064250
      5 C14         8.1600   -0.9520    2.2450 c1        1 179     -0.064250
      6 C13         7.5350   -1.0390    0.9800 c1        1 179     -0.064250
      7 C12         6.1170   -1.0630    0.8870 cg        1 179     -0.033000
      8 C11         5.4820   -1.1520   -0.3930 c1        1 179     -0.077000
      9 C10         4.0780   -1.1750   -0.4820 c1        1 179     -0.083500
     10 C9          3.2980   -1.1110    0.6880 c1        1 179      0.079200
     11 N2          1.8600   -1.0180    0.9770 n         1 179     -0.453700
     12 C8          1.0240   -0.1310    0.2030 c         1 179      0.603100
     13 O8          1.5130    0.5320   -0.6830 o         1 179     -0.582100
     14 C7         -0.5040   -0.1750    0.3710 c         1 179      0.600100
     15 O7         -0.9920   -0.7640    1.3030 o         1 179     -0.589100
     16 N1         -1.3680    0.5110   -0.5970 n         1 179     -0.517900
     17 C1         -2.7700    0.4820   -0.4350 c3        1 179      0.302500
     18 O5         -3.3640   -0.2480   -1.5720 os        1 179     -0.450600
     19 C5         -4.8310   -0.1820   -1.5940 c3        1 179      0.074100
     20 C6         -5.3370   -0.8120   -2.8860 c3        1 179      0.137400
     21 O6         -4.7990   -2.1000   -3.0220 oh        1 179     -0.589800
     22 C4         -5.3490    1.2340   -1.4990 c3        1 179      0.079100
     23 O4         -6.7740    1.1950   -1.3490 oh        1 179     -0.598800
     24 C3         -4.7550    1.9790   -0.3400 c3        1 179      0.109100
     25 O3         -5.1490    3.3550   -0.4220 oh        1 179     -0.605800
     26 C2         -3.2760    1.9050   -0.3280 c3        1 179      0.122100
     27 O2         -2.7890    2.4840    0.8990 oh        1 179     -0.585800
     28 H18         3.3640   -0.9810    2.7630 ha        1 179      0.080000
     29 H16         5.4400   -0.8680    4.1300 ha        1 179      0.075500
     30 H15         7.8180   -0.8270    4.2870 ha        1 179      0.075500
     31 H14         9.1600   -0.9350    2.3100 ha        1 179      0.075500
     32 H13         8.0740   -1.0820    0.1750 ha        1 179      0.075500
     33 H11         6.0290   -1.1960   -1.2130 ha        1 179      0.080000
     34 H10         3.6340   -1.2370   -1.3770 ha        1 179      0.112500
     35 HN2         1.4950   -1.5430    1.6000 hn        1 179      0.343500
     36 HN1        -1.0120    0.8890   -1.3230 hn        1 179      0.341500
     37 H1         -2.9960   -0.0200    0.4380 h2        1 179      0.101700
     38 H5         -5.1760   -0.6890   -0.8440 h1        1 179      0.075700
     39 H6         -5.0540   -0.2510   -3.6630 h1        1 179      0.052700
     40 H6A        -6.3130   -0.8680   -2.8620 h1        1 179      0.052700
     41 HO6        -5.2810   -2.5580   -3.5700 ho        1 179      0.419000
     42 H4         -5.1180    1.7330   -2.3700 h1        1 179      0.063700
     43 HO4        -7.1580    1.6950   -2.0000 ho        1 179      0.413000
     44 H3         -5.0940    1.6050    0.4750 h1        1 179      0.069700
     45 HO3        -5.9880    3.4210   -0.2610 ho        1 179      0.429000
     46 H2         -2.9250    2.4250   -1.0890 h1        1 179      0.063700
     47 HO2        -2.5420    3.3570    0.7510 ho        1 179      0.427000
@<TRIPOS>BOND
     1    1    2 3   
     2    1   28 1   
     3    2    7 1   
     4    3    4 3   
     5    3   29 1   
     6    4   30 1   
     7    5    6 3   
     8    5   31 1   
     9    6   32 1   
    10    7    8 3   
    11    8   33 1   
    12    9   10 3   
    13    9   34 1   
    14   10   11 1   
    15   11   12 1   
    16   11   35 1   
    17   12   13 2   
    18   12   14 1   
    19   14   15 2   
    20   14   16 1   
    21   16   17 1   
    22   16   36 1   
    23   17   18 1   
    24   17   26 1   
    25   17   37 1   
    26   18   19 1   
    27   19   20 1   
    28   19   22 1   
    29   19   38 1   
    30   20   21 1   
    31   20   39 1   
    32   20   40 1   
    33   21   41 1   
    34   22   23 1   
    35   22   24 1   
    36   22   42 1   
    37   23   43 1   
    38   24   25 1   
    39   24   26 1   
    40   24   44 1   
    41   25   45 1   
    42   26   27 1   
    43   26   46 1   
    44   27   47 1   
@<TRIPOS>SUBSTRUCTURE
     1 179         1 TEMP              0 ****  ****    0 ROOT
