@<TRIPOS>MOLECULE
179
   48    50     1     0     0
SMALL
bcc


@<TRIPOS>ATOM
      1 C18        -0.1730    0.1380   -0.1210 ca        1 179     -0.123000
      2 C17         1.1470   -0.3740   -0.1780 ca        1 179     -0.025000
      3 C16         1.8360   -0.7680    1.0030 ca        1 179     -0.121000
      4 C15         3.1160   -1.2580    0.9280 ca        1 179     -0.106000
      5 C14         3.7670   -1.3780   -0.3250 ca        1 179     -0.108000
      6 C13         3.1240   -1.0060   -1.4800 ca        1 179     -0.115000
      7 C12         1.7980   -0.4950   -1.4330 ca        1 179     -0.034000
      8 C11         1.1050   -0.1010   -2.6070 ca        1 179     -0.082000
      9 C10        -0.1750    0.3910   -2.5500 ca        1 179     -0.141000
     10 C9         -0.8320    0.5150   -1.2880 ca        1 179      0.009600
     11 N2         -2.1640    0.9980   -1.1810 n         1 179     -0.391100
     12 C8         -2.8170    1.7200   -2.1260 c         1 179      0.623100
     13 O8         -2.4390    2.0460   -3.2640 o         1 179     -0.562100
     14 C7         -4.2400    2.1760   -1.7020 c         1 179      0.454100
     15 O7         -4.7560    2.0580   -0.6030 o         1 179     -0.399100
     16 N1         -5.0180    2.8550   -2.7910 n4        1 179     -0.667800
     17 C1         -6.4400    2.3640   -2.8920 c3        1 179      0.333300
     18 O5         -6.3660    1.0820   -3.5000 os        1 179     -0.422600
     19 C5         -7.6510    0.4260   -3.5340 c3        1 179      0.115100
     20 C6         -7.3720   -0.9360   -4.1750 c3        1 179      0.137400
     21 O6         -6.8120   -1.7450   -3.1580 oh        1 179     -0.595800
     22 C4         -8.6480    1.2590   -4.3570 c3        1 179      0.077100
     23 O4         -9.9630    0.7610   -4.1910 oh        1 179     -0.582800
     24 C3         -8.7100    2.7070   -3.8290 c3        1 179      0.118100
     25 O3         -9.4430    3.5380   -4.7050 oh        1 179     -0.594800
     26 C2         -7.2930    3.3020   -3.7850 c3        1 179      0.109100
     27 O2         -7.2540    4.5750   -3.1770 oh        1 179     -0.622800
     28 H18        -0.6520    0.2190    0.8690 ha        1 179      0.141000
     29 H16         1.3250   -0.6710    1.9730 ha        1 179      0.140000
     30 H15         3.6540   -1.5640    1.8390 ha        1 179      0.147000
     31 H14         4.7940   -1.7740   -0.3580 ha        1 179      0.148000
     32 H13         3.6210   -1.0950   -2.4590 ha        1 179      0.145000
     33 H11         1.6150   -0.1960   -3.5790 ha        1 179      0.151000
     34 H10        -0.6890    0.6920   -3.4760 ha        1 179      0.162000
     35 HN2        -2.6140    0.8440   -0.2990 hn        1 179      0.351500
     36 HN1        -4.5300    2.6910   -3.6880 hn        1 179      0.492300
     37 H1         -6.8610    2.3020   -1.8420 hx        1 179      0.127700
     38 H5         -8.0240    0.2890   -2.4800 h1        1 179      0.098700
     39 H6         -8.3430   -1.3720   -4.5360 h1        1 179      0.050700
     40 H6A        -6.6570   -0.8300   -5.0330 h1        1 179      0.050700
     41 HO6        -6.6590   -2.6170   -3.5440 ho        1 179      0.426000
     42 H4         -8.3510    1.2620   -5.4420 h1        1 179      0.076700
     43 HO4       -10.0510   -0.0280   -4.7420 ho        1 179      0.428000
     44 H3         -9.1780    2.7200   -2.8040 h1        1 179      0.080700
     45 HO3       -10.3370    3.1680   -4.7620 ho        1 179      0.449000
     46 H2         -6.8740    3.3640   -4.8290 h1        1 179      0.088700
     47 HO2        -7.9900    5.0940   -3.5380 ho        1 179      0.470000
     48 H12        -5.0610    3.8700   -2.6100 hn        1 179      0.492300
@<TRIPOS>BOND
     1    1    2 ar  
     2    1   10 ar  
     3    1   28 1   
     4    2    3 ar  
     5    2    7 ar  
     6    3    4 ar  
     7    3   29 1   
     8    4    5 ar  
     9    4   30 1   
    10    5    6 ar  
    11    5   31 1   
    12    6    7 ar  
    13    6   32 1   
    14    7    8 ar  
    15    8    9 ar  
    16    8   33 1   
    17    9   10 ar  
    18    9   34 1   
    19   10   11 1   
    20   11   12 1   
    21   11   35 1   
    22   12   13 2   
    23   12   14 1   
    24   14   15 2   
    25   14   16 1   
    26   16   17 1   
    27   16   36 1   
    28   16   48 1   
    29   17   18 1   
    30   17   26 1   
    31   17   37 1   
    32   18   19 1   
    33   19   20 1   
    34   19   22 1   
    35   19   38 1   
    36   20   21 1   
    37   20   39 1   
    38   20   40 1   
    39   21   41 1   
    40   22   23 1   
    41   22   24 1   
    42   22   42 1   
    43   23   43 1   
    44   24   25 1   
    45   24   26 1   
    46   24   44 1   
    47   25   45 1   
    48   26   27 1   
    49   26   46 1   
    50   27   47 1   
@<TRIPOS>SUBSTRUCTURE
     1 179         1 TEMP              0 ****  ****    0 ROOT
