@<TRIPOS>MOLECULE
17A
   66    58     1     0     0
SMALL
bcc


@<TRIPOS>ATOM
      1 C41         3.8250   -0.2140   -7.0030 c1        1 17A     -0.125500
      2 C42         4.4530   -0.3500   -8.2270 c1        1 17A     -0.123500
      3 C43         3.8220    0.0530   -9.3690 c1        1 17A     -0.123500
      4 C44         2.5490    0.6000   -9.3030 c1        1 17A     -0.123500
      5 C45         1.9180    0.7390   -8.0810 c1        1 17A     -0.123500
      6 C40         2.5500    0.3350   -6.9340 c1        1 17A     -0.014500
      7 C37         1.8760    0.4340   -5.6620 c1        1 17A     -0.014500
      8 C38         1.6360   -0.7080   -4.9220 c1        1 17A     -0.123500
      9 C39         1.0110   -0.6160   -3.6760 c1        1 17A     -0.123500
     10 C36         1.4920    1.6880   -5.1630 c1        1 17A     -0.125500
     11 C35         0.8670    1.7800   -3.9180 c1        1 17A     -0.004000
     12 C34         0.6270    0.6290   -3.1760 c1        1 17A     -0.831000
     13 S32        -0.2300    0.7350   -1.6190 s4        1 17A      2.080800
     14 O33         0.0240    1.9890   -0.9690 o         1 17A     -0.566400
     15 O32        -1.6820    0.8070   -1.8130 o         1 17A     -0.566400
     16 N31         0.1860   -0.5510   -0.6420 n2        1 17A     -0.866000
     17 C27        -0.7130   -1.0100    0.3330 c3        1 17A     -0.649000
     18 C28        -1.5170   -2.1940   -0.2320 c3        1 17A     -0.133000
     19 C30        -1.7360   -1.9810   -1.7200 c3        1 17A     -0.208500
     20 C29        -2.9350   -2.2800    0.5200 c3        1 17A     -0.208500
     21 P24         0.2180   -1.5420    1.8220 p5        1 17A      2.799000
     22 O25         0.5080   -2.9790    1.7280 o         1 17A     -1.133000
     23 O26         1.5440   -0.7480    1.9100 oh        1 17A     -0.847000
     24 C15        -0.7770   -1.2150    3.3260 c3        1 17A     -0.919000
     25 C1          0.1270   -0.5240    4.4190 c3        1 17A     -0.135000
     26 C2          0.9760   -1.5480    5.0870 c2        1 17A      0.337000
     27 O14         0.4810   -2.2810    6.0180 o         1 17A     -0.559000
     28 O13         2.1710   -1.6580    4.7830 o         1 17A     -0.559000
     29 C3         -0.7720    0.1530    5.4670 c2        1 17A     -0.040000
     30 C8         -0.6550    1.5040    5.7110 c2        1 17A     -0.148000
     31 C4         -1.7080   -0.5920    6.1490 c1        1 17A     -0.103000
     32 C5         -2.5300    0.0150    7.0790 c1        1 17A     -0.123500
     33 C6         -2.4130    1.3840    7.3280 c1        1 17A     -0.123500
     34 C7         -1.4910    2.1200    6.6560 c1        1 17A     -0.129000
     35 C9         -1.3720    3.6270    6.9200 c3        1 17A     -0.041000
     36 N10        -2.6090    4.2810    6.5250 n3        1 17A     -0.343000
     37 H41         4.3030   -0.4550   -6.1770 ha        1 17A      0.149000
     38 H42         5.3570   -0.7380   -8.2760 ha        1 17A      0.130125
     39 H43         4.2720   -0.0460  -10.2420 ha        1 17A      0.130125
     40 H44         2.1310    0.9430  -10.1020 ha        1 17A      0.130125
     41 H45         1.0340    1.1190   -8.0370 ha        1 17A      0.130125
     42 H38         1.9050   -1.5770   -5.2700 ha        1 17A      0.130125
     43 H39         0.7880   -1.4400   -3.1730 ha        1 17A      0.130125
     44 H36         1.6580    2.4760   -5.6750 ha        1 17A      0.149000
     45 H35         0.5930    2.6700   -3.5610 ha        1 17A      0.206000
     46 HN31        0.9690   -0.9590   -0.7530 hn        1 17A      0.260000
     47 H27        -1.3000   -0.3160    0.5640 h1        1 17A      0.146000
     48 H28        -1.0180   -3.0270   -0.0910 hc        1 17A      0.142000
     49 H301       -2.2450   -2.7210   -2.0840 hc        1 17A      0.075500
     50 H302       -0.8710   -1.9290   -2.1680 hc        1 17A      0.075500
     51 H303       -2.2450   -1.1160   -1.8660 hc        1 17A      0.075500
     52 H291       -2.8700   -2.8960    1.2570 hc        1 17A      0.075500
     53 H292       -3.1750   -1.4060    0.8510 hc        1 17A      0.075500
     54 H293       -3.6220   -2.5900   -0.1060 hc        1 17A      0.075500
     55 HO26        2.1660   -1.1320    1.3670 ho        1 17A      0.314000
     56 H151       -1.5320   -0.6150    3.0960 hc        1 17A      0.156000
     57 H152       -1.1270   -2.0580    3.6770 hc        1 17A      0.156000
     58 H1          0.7250    0.1780    3.9720 hc        1 17A      0.065000
     59 H8          0.0400    2.0320    5.2500 ha        1 17A      0.154000
     60 H4         -1.7230   -1.5630    6.0470 ha        1 17A      0.179000
     61 H5         -3.2010   -0.5200    7.5680 ha        1 17A      0.130125
     62 H6         -3.0040    1.8200    7.9960 ha        1 17A      0.130125
     63 H91        -0.6340    3.9900    6.4040 h1        1 17A      0.081000
     64 H92        -1.2120    3.7790    7.8620 h1        1 17A      0.081000
     65 H101       -2.5690    4.4990    5.6480 hn        1 17A      0.152500
     66 H102       -3.3100    3.7170    6.6660 hn        1 17A      0.152500
@<TRIPOS>BOND
     1    1    6 1   
     2    1   37 1   
     3    2    3 1   
     4    2   38 1   
     5    3   39 1   
     6    4    5 1   
     7    4   40 1   
     8    5   41 1   
     9    7   10 1   
    10    8    9 1   
    11    8   42 1   
    12    9   43 1   
    13   10   44 1   
    14   11   12 1   
    15   11   45 1   
    16   12   13 1   
    17   13   14 1   
    18   13   15 1   
    19   16   17 1   
    20   16   46 1   
    21   17   18 1   
    22   17   21 1   
    23   17   47 1   
    24   18   19 1   
    25   18   20 1   
    26   18   48 1   
    27   19   49 1   
    28   19   50 1   
    29   19   51 1   
    30   20   52 1   
    31   20   53 1   
    32   20   54 1   
    33   21   22 1   
    34   21   23 1   
    35   21   24 1   
    36   23   55 1   
    37   24   25 1   
    38   24   56 1   
    39   24   57 1   
    40   25   26 1   
    41   25   29 1   
    42   25   58 1   
    43   26   27 1   
    44   26   28 1   
    45   29   30 1   
    46   29   31 1   
    47   30   34 1   
    48   30   59 1   
    49   31   60 1   
    50   32   33 1   
    51   32   61 1   
    52   33   62 1   
    53   34   35 1   
    54   35   36 1   
    55   35   63 1   
    56   35   64 1   
    57   36   65 1   
    58   36   66 1   
@<TRIPOS>SUBSTRUCTURE
     1 17A         1 TEMP              0 ****  ****    0 ROOT
