@<TRIPOS>MOLECULE
17A
   66    68     1     0     0
SMALL
bcc


@<TRIPOS>ATOM
      1 C41         4.7660    4.0980    0.0630 ca        1 17A     -0.113000
      2 C42         5.1290    5.4270   -0.1410 ca        1 17A     -0.134500
      3 C43         5.0460    5.9900   -1.4140 ca        1 17A     -0.130000
      4 C44         4.5980    5.2180   -2.4860 ca        1 17A     -0.134500
      5 C45         4.2380    3.8860   -2.2880 ca        1 17A     -0.113000
      6 C40         4.3190    3.3130   -1.0100 cp        1 17A     -0.040000
      7 C37         3.9400    1.9170   -0.7980 cp        1 17A      0.011000
      8 C38         3.2320    1.5360    0.3470 ca        1 17A     -0.153500
      9 C39         2.8750    0.2030    0.5480 ca        1 17A     -0.012000
     10 C36         4.2780    0.9370   -1.7450 ca        1 17A     -0.153500
     11 C35         3.9190   -0.3870   -1.5360 ca        1 17A     -0.012000
     12 C34         3.2190   -0.7800   -0.3850 ca        1 17A     -0.371500
     13 S32         2.8890   -2.4310   -0.1650 sy        1 17A      1.516200
     14 O33         3.0060   -3.0520   -1.4310 o         1 17A     -0.667800
     15 O32         3.7570   -2.9470    0.8280 o         1 17A     -0.667800
     16 N31         1.3900   -2.4700    0.4060 n3        1 17A     -0.887100
     17 C27         0.2060   -2.1230   -0.3230 c3        1 17A     -0.032700
     18 C28        -0.5570   -3.2940   -0.9700 c3        1 17A     -0.087700
     19 C30        -0.2970   -3.3270   -2.4630 c3        1 17A     -0.088600
     20 C29        -0.2410   -4.6540   -0.3780 c3        1 17A     -0.088600
     21 P24        -0.8270   -1.2520    0.7180 p5        1 17A      1.490100
     22 O25        -0.0850   -0.2810    1.5300 o         1 17A     -0.877300
     23 O26        -1.4360   -2.3710    1.6760 oh        1 17A     -0.816400
     24 C15        -1.9550   -0.5870   -0.2740 c3        1 17A     -0.436600
     25 C1         -3.3750   -0.7990    0.2300 c3        1 17A     -0.144400
     26 C2         -3.9760   -2.0850   -0.4330 c         1 17A      0.913600
     27 O14        -3.8050   -3.1560    0.2260 o         1 17A     -0.819300
     28 O13        -4.5090   -2.0250   -1.5660 o         1 17A     -0.819300
     29 C3         -4.2110    0.4170    0.0150 ca        1 17A     -0.035300
     30 C8         -4.5460    1.2290    1.1050 ca        1 17A     -0.132000
     31 C4         -4.6590    0.7760   -1.2640 ca        1 17A     -0.095000
     32 C5         -5.4180    1.9300   -1.4420 ca        1 17A     -0.146000
     33 C6         -5.7360    2.7430   -0.3540 ca        1 17A     -0.137000
     34 C7         -5.3030    2.3910    0.9260 ca        1 17A     -0.147300
     35 C9         -5.6570    3.2450    2.1110 c3        1 17A      0.198100
     36 N10        -4.5520    3.7960    2.8590 n3        1 17A     -0.904800
     37 H41         4.8330    3.6560    1.0690 ha        1 17A      0.138500
     38 H42         5.4800    6.0340    0.7070 ha        1 17A      0.128500
     39 H43         5.3290    7.0400   -1.5720 ha        1 17A      0.126000
     40 H44         4.5260    5.6600   -3.4900 ha        1 17A      0.128500
     41 H45         3.8780    3.2820   -3.1340 ha        1 17A      0.138500
     42 H38         2.9340    2.2930    1.0900 ha        1 17A      0.139000
     43 H39         2.2850   -0.0530    1.4520 ha        1 17A      0.173000
     44 H36         4.8350    1.2200   -2.6510 ha        1 17A      0.139000
     45 H35         4.1820   -1.1510   -2.2910 ha        1 17A      0.173000
     46 HN31        1.1930   -2.8000    1.3250 hn        1 17A      0.463800
     47 H27         0.5290   -1.4390   -1.1670 h1        1 17A      0.082700
     48 H28        -1.6660   -3.1140   -0.8090 hc        1 17A      0.088700
     49 H301        0.7960   -3.4520   -2.6640 hc        1 17A      0.038867
     50 H302       -0.8490   -4.1790   -2.9280 hc        1 17A      0.038867
     51 H303       -0.6480   -2.3820   -2.9430 hc        1 17A      0.038867
     52 H291       -0.4020   -4.6600    0.7280 hc        1 17A      0.038867
     53 H292       -0.9230   -5.4150   -0.8300 hc        1 17A      0.038867
     54 H293        0.8120   -4.9520   -0.5970 hc        1 17A      0.038867
     55 HO26       -2.2170   -2.8740    1.4010 ho        1 17A      0.521000
     56 H151       -1.7680    0.5190   -0.3570 hc        1 17A      0.112200
     57 H152       -1.9260   -0.9560   -1.3360 hc        1 17A      0.112200
     58 H1         -3.3330   -1.0000    1.3410 hc        1 17A      0.050700
     59 H8         -4.2180    0.9460    2.1170 ha        1 17A      0.126000
     60 H4         -4.4360    0.1050   -2.1130 ha        1 17A      0.178000
     61 H5         -5.7740    2.1990   -2.4470 ha        1 17A      0.118000
     62 H6         -6.3320    3.6540   -0.5030 ha        1 17A      0.114000
     63 H91        -6.2990    4.1080    1.7700 h1        1 17A      0.048700
     64 H92        -6.2760    2.6240    2.8220 h1        1 17A      0.048700
     65 H101       -3.9810    3.0600    3.2320 hn        1 17A      0.344300
     66 H102       -3.9770    4.3640    2.2670 hn        1 17A      0.344300
@<TRIPOS>BOND
     1    1    2 ar  
     2    1    6 ar  
     3    1   37 1   
     4    2    3 ar  
     5    2   38 1   
     6    3    4 ar  
     7    3   39 1   
     8    4    5 ar  
     9    4   40 1   
    10    5    6 ar  
    11    5   41 1   
    12    6    7 1   
    13    7    8 ar  
    14    7   10 ar  
    15    8    9 ar  
    16    8   42 1   
    17    9   12 ar  
    18    9   43 1   
    19   10   11 ar  
    20   10   44 1   
    21   11   12 ar  
    22   11   45 1   
    23   12   13 1   
    24   13   14 2   
    25   13   15 2   
    26   13   16 1   
    27   16   17 1   
    28   16   46 1   
    29   17   18 1   
    30   17   21 1   
    31   17   47 1   
    32   18   19 1   
    33   18   20 1   
    34   18   48 1   
    35   19   49 1   
    36   19   50 1   
    37   19   51 1   
    38   20   52 1   
    39   20   53 1   
    40   20   54 1   
    41   21   22 2   
    42   21   23 1   
    43   21   24 1   
    44   23   55 1   
    45   24   25 1   
    46   24   56 1   
    47   24   57 1   
    48   25   26 1   
    49   25   29 1   
    50   25   58 1   
    51   26   27 1   
    52   26   28 1   
    53   29   30 ar  
    54   29   31 ar  
    55   30   34 ar  
    56   30   59 1   
    57   31   32 ar  
    58   31   60 1   
    59   32   33 ar  
    60   32   61 1   
    61   33   34 ar  
    62   33   62 1   
    63   34   35 1   
    64   35   36 1   
    65   35   63 1   
    66   35   64 1   
    67   36   65 1   
    68   36   66 1   
@<TRIPOS>SUBSTRUCTURE
     1 17A         1 TEMP              0 ****  ****    0 ROOT
