@<TRIPOS>MOLECULE
17A
   67    69     1     0     0
SMALL
bcc


@<TRIPOS>ATOM
      1 C41         0.1260    0.4350   -0.8350 ca        1 17A     -0.102500
      2 C42         1.3990    0.5810   -1.3820 ca        1 17A     -0.130000
      3 C43         2.5060    0.7390   -0.5480 ca        1 17A     -0.105000
      4 C44         2.3390    0.7470    0.8370 ca        1 17A     -0.130000
      5 C45         1.0690    0.5920    1.3890 ca        1 17A     -0.102500
      6 C40        -0.0490    0.4370    0.5570 cp        1 17A     -0.083000
      7 C37        -1.3810    0.2790    1.1330 cp        1 17A      0.087000
      8 C38        -2.4900    0.9220    0.5510 ca        1 17A     -0.162000
      9 C39        -3.7510    0.7710    1.1000 ca        1 17A      0.017500
     10 C36        -1.5790   -0.5170    2.2700 ca        1 17A     -0.162000
     11 C35        -2.8500   -0.6740    2.8110 ca        1 17A      0.017500
     12 C34        -3.9620   -0.0270    2.2440 ca        1 17A     -0.493500
     13 S32        -5.4420   -0.1330    2.9130 sy        1 17A      1.463200
     14 O33        -5.4470   -0.2600    4.2920 o         1 17A     -0.596300
     15 O32        -6.3300    0.7830    2.3390 o         1 17A     -0.596300
     16 N31        -6.0080   -1.6920    2.1660 n4        1 17A     -0.693900
     17 C27        -6.4800   -2.7260    3.1110 c3        1 17A     -0.101700
     18 C28        -7.7850   -3.4240    2.7110 c3        1 17A     -0.103700
     19 C30        -8.9230   -2.9380    3.5880 c3        1 17A     -0.099100
     20 C29        -8.1860   -3.2980    1.2530 c3        1 17A     -0.099100
     21 P24        -5.1960   -3.9360    3.2240 p5        1 17A      1.296400
     22 O25        -4.8360   -4.1520    1.8010 o         1 17A     -0.892000
     23 O26        -4.0550   -3.2210    3.9300 o         1 17A     -0.892000
     24 C15        -5.7170   -5.1450    4.1990 c3        1 17A     -0.428600
     25 C1         -5.5750   -6.5270    3.5550 c3        1 17A     -0.151400
     26 C2         -6.9230   -7.2990    3.6670 c         1 17A      0.931600
     27 O14        -6.9150   -8.5380    3.8730 o         1 17A     -0.821800
     28 O13        -7.9630   -6.5960    3.5050 o         1 17A     -0.821800
     29 C3         -4.3630   -7.1820    4.1430 ca        1 17A     -0.006300
     30 C8         -3.1710   -6.4760    3.9330 ca        1 17A     -0.164000
     31 C4         -4.3330   -8.2840    5.0050 ca        1 17A     -0.065000
     32 C5         -3.1630   -8.5690    5.7180 ca        1 17A     -0.138000
     33 C6         -2.0530   -7.7240    5.6610 ca        1 17A     -0.121000
     34 C7         -2.0720   -6.6460    4.7740 ca        1 17A     -0.184300
     35 C9         -1.0710   -5.5420    4.7680 c3        1 17A      0.188100
     36 N10        -1.7630   -4.2450    5.0670 n4        1 17A     -0.885600
     37 H41        -0.7450    0.3040   -1.4970 ha        1 17A      0.137500
     38 H42         1.5290    0.5710   -2.4750 ha        1 17A      0.142000
     39 H43         3.5100    0.8580   -0.9830 ha        1 17A      0.142000
     40 H44         3.2110    0.8760    1.4960 ha        1 17A      0.142000
     41 H45         0.9410    0.6060    2.4820 ha        1 17A      0.137500
     42 H38        -2.3470    1.5540   -0.3400 ha        1 17A      0.150500
     43 H39        -4.6120    1.2970    0.6450 ha        1 17A      0.182500
     44 H36        -0.7220   -1.0340    2.7270 ha        1 17A      0.150500
     45 H35        -3.0020   -1.3370    3.6910 ha        1 17A      0.182500
     46 HN31       -5.2860   -2.1680    1.5750 hn        1 17A      0.474300
     47 H27        -6.6310   -2.2350    4.1150 hx        1 17A      0.115700
     48 H28        -7.6690   -4.5460    2.8950 hc        1 17A      0.155700
     49 H301       -9.1020   -1.8460    3.4460 hc        1 17A      0.043367
     50 H302       -8.6960   -3.1300    4.6650 hc        1 17A      0.043367
     51 H303       -9.8580   -3.4930    3.3290 hc        1 17A      0.043367
     52 H291       -9.0210   -4.0180    1.0570 hc        1 17A      0.043367
     53 H292       -7.3450   -3.5660    0.5670 hc        1 17A      0.043367
     54 H293       -8.5630   -2.2750    1.0080 hc        1 17A      0.043367
     55 H151       -6.7950   -5.0550    4.5280 hc        1 17A      0.115200
     56 H152       -5.1560   -5.1300    5.1720 hc        1 17A      0.115200
     57 H1         -5.4120   -6.3960    2.4450 hc        1 17A      0.088700
     58 H8         -3.1710   -5.6930    3.1490 ha        1 17A      0.137000
     59 H4         -5.2470   -8.9030    5.1140 ha        1 17A      0.214000
     60 H5         -3.1370   -9.4520    6.3750 ha        1 17A      0.138000
     61 H6         -1.1840   -7.9020    6.3090 ha        1 17A      0.122000
     62 H91        -0.5970   -5.4380    3.7500 hx        1 17A      0.083200
     63 H92        -0.2680   -5.7060    5.5380 hx        1 17A      0.083200
     64 H101       -1.1210   -3.4660    4.9620 hn        1 17A      0.462467
     65 H102       -2.6180   -4.0750    4.4240 hn        1 17A      0.462467
     66 H312       -6.7770   -1.4550    1.5250 hn        1 17A      0.474300
     67 H103       -2.1250   -4.2560    6.0200 hn        1 17A      0.462467
@<TRIPOS>BOND
     1    1    2 ar  
     2    1    6 ar  
     3    1   37 1   
     4    2    3 ar  
     5    2   38 1   
     6    3    4 ar  
     7    3   39 1   
     8    4    5 ar  
     9    4   40 1   
    10    5    6 ar  
    11    5   41 1   
    12    6    7 1   
    13    7    8 ar  
    14    7   10 ar  
    15    8    9 ar  
    16    8   42 1   
    17    9   12 ar  
    18    9   43 1   
    19   10   11 ar  
    20   10   44 1   
    21   11   12 ar  
    22   11   45 1   
    23   12   13 1   
    24   13   14 2   
    25   13   15 2   
    26   13   16 1   
    27   16   17 1   
    28   16   46 1   
    29   16   66 1   
    30   17   18 1   
    31   17   21 1   
    32   17   47 1   
    33   18   19 1   
    34   18   20 1   
    35   18   48 1   
    36   19   49 1   
    37   19   50 1   
    38   19   51 1   
    39   20   52 1   
    40   20   53 1   
    41   20   54 1   
    42   21   22 1   
    43   21   23 1   
    44   21   24 1   
    45   24   25 1   
    46   24   55 1   
    47   24   56 1   
    48   25   26 1   
    49   25   29 1   
    50   25   57 1   
    51   26   27 1   
    52   26   28 1   
    53   29   30 ar  
    54   29   31 ar  
    55   30   34 ar  
    56   30   58 1   
    57   31   32 ar  
    58   31   59 1   
    59   32   33 ar  
    60   32   60 1   
    61   33   34 ar  
    62   33   61 1   
    63   34   35 1   
    64   35   36 1   
    65   35   62 1   
    66   35   63 1   
    67   36   64 1   
    68   36   65 1   
    69   36   67 1   
@<TRIPOS>SUBSTRUCTURE
     1 17A         1 TEMP              0 ****  ****    0 ROOT
