@<TRIPOS>MOLECULE
17A
   68    70     1     0     0
SMALL
bcc


@<TRIPOS>ATOM
      1 C41        -1.0320    3.9770    0.2610 ca        1 17A     -0.093500
      2 C42         0.0590    4.6140   -0.3260 ca        1 17A     -0.130000
      3 C43         1.1820    3.8780   -0.7050 ca        1 17A     -0.091000
      4 C44         1.2150    2.4990   -0.4910 ca        1 17A     -0.130000
      5 C45         0.1320    1.8570    0.1040 ca        1 17A     -0.093500
      6 C40        -1.0040    2.5900    0.4830 cp        1 17A     -0.103000
      7 C37        -2.1400    1.9200    1.1010 cp        1 17A      0.120000
      8 C38        -3.4590    2.3420    0.8240 ca        1 17A     -0.165000
      9 C39        -4.5340    1.7060    1.4070 ca        1 17A      0.029500
     10 C36        -1.9500    0.8420    1.9800 ca        1 17A     -0.165000
     11 C35        -3.0340    0.2060    2.5680 ca        1 17A      0.029500
     12 C34        -4.3580    0.6210    2.3030 ca        1 17A     -0.565500
     13 S32        -5.6170   -0.0380    3.0210 sy        1 17A      1.495200
     14 O33        -5.4290   -0.5530    4.2880 o         1 17A     -0.590300
     15 O32        -6.8250    0.5780    2.7260 o         1 17A     -0.590300
     16 N31        -5.7940   -1.6000    1.9140 n4        1 17A     -0.650900
     17 C27        -5.9880   -2.8640    2.6380 c3        1 17A     -0.152700
     18 C28        -7.0860   -3.7860    2.0870 c3        1 17A     -0.091700
     19 C30        -8.3760   -3.5880    2.8610 c3        1 17A     -0.106600
     20 C29        -7.3690   -3.6430    0.6030 c3        1 17A     -0.106600
     21 P24        -4.4990   -3.7290    2.7530 p5        1 17A      1.509100
     22 O25        -3.4550   -2.7030    2.8100 o         1 17A     -0.879300
     23 O26        -4.4060   -4.5050    1.3690 oh        1 17A     -0.804400
     24 C15        -4.6880   -4.7730    3.9890 c3        1 17A     -0.453600
     25 C1         -3.9210   -6.0630    3.7800 c3        1 17A     -0.138400
     26 C2         -4.7780   -7.2030    3.0860 c         1 17A      0.945600
     27 O14        -5.7830   -6.8580    2.4120 o         1 17A     -0.835300
     28 O13        -4.3880   -8.4010    3.1960 o         1 17A     -0.835300
     29 C3         -3.3590   -6.6580    5.0270 ca        1 17A     -0.048300
     30 C8         -2.5460   -7.7840    4.8160 ca        1 17A     -0.069000
     31 C4         -3.7240   -6.3400    6.3380 ca        1 17A     -0.092000
     32 C5         -3.3450   -7.1720    7.3970 ca        1 17A     -0.125000
     33 C6         -2.7170   -8.3920    7.1520 ca        1 17A     -0.098000
     34 C7         -2.3580   -8.7150    5.8400 ca        1 17A     -0.181300
     35 C9         -1.9870  -10.0960    5.4200 c3        1 17A      0.185100
     36 N10        -3.0470  -10.5960    4.4770 n4        1 17A     -0.855600
     37 H41        -1.9100    4.5660    0.5650 ha        1 17A      0.139000
     38 H42         0.0330    5.7030   -0.4890 ha        1 17A      0.147500
     39 H43         2.0420    4.3840   -1.1710 ha        1 17A      0.148000
     40 H44         2.0990    1.9160   -0.7920 ha        1 17A      0.147500
     41 H45         0.1630    0.7680    0.2630 ha        1 17A      0.139000
     42 H38        -3.6260    3.1820    0.1290 ha        1 17A      0.167500
     43 H39        -5.5610    2.0540    1.1850 ha        1 17A      0.186000
     44 H36        -0.9290    0.4980    2.2150 ha        1 17A      0.167500
     45 H35        -2.8530   -0.6560    3.2460 ha        1 17A      0.186000
     46 HN31       -6.5930   -1.4390    1.2950 hn        1 17A      0.450800
     47 H27        -6.3120   -2.5820    3.6910 hx        1 17A      0.131700
     48 H28        -6.7410   -4.8560    2.2600 hc        1 17A      0.114700
     49 H301       -8.7460   -2.5400    2.7570 hc        1 17A      0.052533
     50 H302       -9.1610   -4.2810    2.4680 hc        1 17A      0.052533
     51 H303       -8.2260   -3.8120    3.9450 hc        1 17A      0.052533
     52 H291       -6.4340   -3.6650   -0.0070 hc        1 17A      0.052533
     53 H292       -7.9390   -2.7080    0.3780 hc        1 17A      0.052533
     54 H293       -8.0050   -4.5060    0.2780 hc        1 17A      0.052533
     55 HO26       -4.7970   -5.3840    1.2800 ho        1 17A      0.523000
     56 H151       -4.3370   -4.2910    4.9440 hc        1 17A      0.131700
     57 H152       -5.7580   -5.0660    4.1860 hc        1 17A      0.131700
     58 H1         -3.0720   -5.8590    3.0640 hc        1 17A      0.061700
     59 H8         -2.1550   -7.9770    3.8030 ha        1 17A      0.146000
     60 H4         -4.3380   -5.4530    6.5570 ha        1 17A      0.141000
     61 H5         -3.5970   -6.8860    8.4300 ha        1 17A      0.149000
     62 H6         -2.5220   -9.0930    7.9770 ha        1 17A      0.141000
     63 H91        -1.9310  -10.7990    6.2970 hx        1 17A      0.098200
     64 H92        -1.0060  -10.1110    4.8660 hx        1 17A      0.098200
     65 H101       -3.9530  -10.6280    4.9540 hn        1 17A      0.470133
     66 H102       -2.8120  -11.5190    4.1190 hn        1 17A      0.470133
     67 H312       -4.9580   -1.6950    1.3290 hn        1 17A      0.450800
     68 H103       -3.1630   -9.9230    3.6880 hn        1 17A      0.470133
@<TRIPOS>BOND
     1    1    2 ar  
     2    1    6 ar  
     3    1   37 1   
     4    2    3 ar  
     5    2   38 1   
     6    3    4 ar  
     7    3   39 1   
     8    4    5 ar  
     9    4   40 1   
    10    5    6 ar  
    11    5   41 1   
    12    6    7 1   
    13    7    8 ar  
    14    7   10 ar  
    15    8    9 ar  
    16    8   42 1   
    17    9   12 ar  
    18    9   43 1   
    19   10   11 ar  
    20   10   44 1   
    21   11   12 ar  
    22   11   45 1   
    23   12   13 1   
    24   13   14 2   
    25   13   15 2   
    26   13   16 1   
    27   16   17 1   
    28   16   46 1   
    29   16   67 1   
    30   17   18 1   
    31   17   21 1   
    32   17   47 1   
    33   18   19 1   
    34   18   20 1   
    35   18   48 1   
    36   19   49 1   
    37   19   50 1   
    38   19   51 1   
    39   20   52 1   
    40   20   53 1   
    41   20   54 1   
    42   21   22 2   
    43   21   23 1   
    44   21   24 1   
    45   23   55 1   
    46   24   25 1   
    47   24   56 1   
    48   24   57 1   
    49   25   26 1   
    50   25   29 1   
    51   25   58 1   
    52   26   27 1   
    53   26   28 1   
    54   29   30 ar  
    55   29   31 ar  
    56   30   34 ar  
    57   30   59 1   
    58   31   32 ar  
    59   31   60 1   
    60   32   33 ar  
    61   32   61 1   
    62   33   34 ar  
    63   33   62 1   
    64   34   35 1   
    65   35   36 1   
    66   35   63 1   
    67   35   64 1   
    68   36   65 1   
    69   36   66 1   
    70   36   68 1   
@<TRIPOS>SUBSTRUCTURE
     1 17A         1 TEMP              0 ****  ****    0 ROOT
