@<TRIPOS>MOLECULE
17A
   67    69     1     0     0
SMALL
bcc


@<TRIPOS>ATOM
      1 C41         0.1210    0.4370   -0.8230 ca        1 17A     -0.102500
      2 C42         1.3980    0.5900   -1.3590 ca        1 17A     -0.130000
      3 C43         2.4950    0.7710   -0.5170 ca        1 17A     -0.105000
      4 C44         2.3140    0.7940    0.8660 ca        1 17A     -0.130000
      5 C45         1.0420    0.6320    1.4090 ca        1 17A     -0.102500
      6 C40        -0.0670    0.4540    0.5670 cp        1 17A     -0.083000
      7 C37        -1.4030    0.2880    1.1330 cp        1 17A      0.087000
      8 C38        -2.5120    0.9120    0.5330 ca        1 17A     -0.162500
      9 C39        -3.7770    0.7550    1.0720 ca        1 17A      0.018000
     10 C36        -1.6030   -0.4960    2.2780 ca        1 17A     -0.162500
     11 C35        -2.8770   -0.6610    2.8090 ca        1 17A      0.018000
     12 C34        -3.9900   -0.0310    2.2240 ca        1 17A     -0.493500
     13 S32        -5.4740   -0.1450    2.8810 sy        1 17A      1.463200
     14 O33        -5.4900   -0.2580    4.2610 o         1 17A     -0.596300
     15 O32        -6.3670    0.7580    2.2920 o         1 17A     -0.596300
     16 N31        -6.0220   -1.7160    2.1460 ny        1 17A     -0.693900
     17 C27        -6.4870   -2.7460    3.0980 c3        1 17A     -0.101700
     18 C28        -7.7850   -3.4580    2.7000 c3        1 17A     -0.103700
     19 C30        -8.9300   -2.9720    3.5680 c3        1 17A     -0.099100
     20 C29        -8.1800   -3.3520    1.2400 c3        1 17A     -0.099100
     21 P24        -5.1930   -3.9430    3.2240 p5        1 17A      1.295400
     22 O25        -4.8260   -4.1680    1.8040 o         1 17A     -0.892000
     23 O26        -4.0590   -3.2140    3.9270 o         1 17A     -0.892000
     24 C15        -5.7050   -5.1500    4.2070 c3        1 17A     -0.428600
     25 C1         -5.5550   -6.5350    3.5710 c3        1 17A     -0.151400
     26 C2         -6.8970   -7.3160    3.6910 c         1 17A      0.931600
     27 O14        -6.8800   -8.5530    3.9090 o         1 17A     -0.821800
     28 O13        -7.9420   -6.6230    3.5240 o         1 17A     -0.821800
     29 C3         -4.3370   -7.1780    4.1600 ca        1 17A     -0.006300
     30 C8         -3.1500   -6.4650    3.9400 ca        1 17A     -0.164000
     31 C4         -4.2960   -8.2710    5.0310 ca        1 17A     -0.065000
     32 C5         -3.1220   -8.5440    5.7420 ca        1 17A     -0.138000
     33 C6         -2.0180   -7.6920    5.6740 ca        1 17A     -0.121000
     34 C7         -2.0470   -6.6210    4.7780 ca        1 17A     -0.184300
     35 C9         -1.0540   -5.5100    4.7590 c3        1 17A      0.188100
     36 N10        -1.7530   -4.2160    5.0520 nz        1 17A     -0.885600
     37 H41        -0.7410    0.2880   -1.4910 ha        1 17A      0.137500
     38 H42         1.5380    0.5680   -2.4500 ha        1 17A      0.142000
     39 H43         3.5020    0.8960   -0.9430 ha        1 17A      0.142000
     40 H44         3.1780    0.9420    1.5320 ha        1 17A      0.142000
     41 H45         0.9020    0.6580    2.5000 ha        1 17A      0.137500
     42 H38        -2.3680    1.5360   -0.3640 ha        1 17A      0.150000
     43 H39        -4.6390    1.2660    0.6040 ha        1 17A      0.182500
     44 H36        -0.7440   -0.9970    2.7490 ha        1 17A      0.150000
     45 H35        -3.0310   -1.3150    3.6950 ha        1 17A      0.182500
     46 HN31       -6.7900   -1.4920    1.5000 hn        1 17A      0.474300
     47 H27        -6.6450   -2.2490    4.0970 hx        1 17A      0.115700
     48 H28        -7.6610   -4.5770    2.8970 hc        1 17A      0.155700
     49 H301       -9.1170   -1.8830    3.4120 hc        1 17A      0.043367
     50 H302       -9.8600   -3.5360    3.3100 hc        1 17A      0.043367
     51 H303       -8.7070   -3.1500    4.6470 hc        1 17A      0.043367
     52 H291       -8.5660   -2.3340    0.9820 hc        1 17A      0.043367
     53 H292       -7.3350   -3.6180    0.5600 hc        1 17A      0.043367
     54 H293       -9.0080   -4.0810    1.0470 hc        1 17A      0.043367
     55 H151       -6.7840   -5.0650    4.5350 hc        1 17A      0.115200
     56 H152       -5.1440   -5.1250    5.1790 hc        1 17A      0.115200
     57 H1         -5.3960   -6.4100    2.4600 hc        1 17A      0.088700
     58 H8         -3.1580   -5.6890    3.1490 ha        1 17A      0.138000
     59 H4         -5.2050   -8.8960    5.1490 ha        1 17A      0.214000
     60 H5         -3.0870   -9.4200    6.4070 ha        1 17A      0.138000
     61 H6         -1.1450   -7.8590    6.3200 ha        1 17A      0.122000
     62 H91        -0.2460   -5.6630    5.5270 hx        1 17A      0.083200
     63 H92        -0.5850   -5.4110    3.7380 hx        1 17A      0.083200
     64 H101       -2.1090   -4.2230    6.0070 hn        1 17A      0.462467
     65 H102       -1.1170   -3.4340    4.9370 hn        1 17A      0.462467
     66 H312       -5.2930   -2.1900    1.5620 hn        1 17A      0.474300
     67 H103       -2.6130   -4.0570    4.4130 hn        1 17A      0.462467
@<TRIPOS>BOND
     1    1    2 ar  
     2    1    6 ar  
     3    1   37 1   
     4    2    3 ar  
     5    2   38 1   
     6    3    4 ar  
     7    3   39 1   
     8    4    5 ar  
     9    4   40 1   
    10    5    6 ar  
    11    5   41 1   
    12    6    7 1   
    13    7    8 ar  
    14    7   10 ar  
    15    8    9 ar  
    16    8   42 1   
    17    9   12 ar  
    18    9   43 1   
    19   10   11 ar  
    20   10   44 1   
    21   11   12 ar  
    22   11   45 1   
    23   12   13 1   
    24   13   14 2   
    25   13   15 2   
    26   13   16 1   
    27   16   17 1   
    28   16   46 1   
    29   16   66 1   
    30   17   18 1   
    31   17   21 1   
    32   17   47 1   
    33   18   19 1   
    34   18   20 1   
    35   18   48 1   
    36   19   49 1   
    37   19   50 1   
    38   19   51 1   
    39   20   52 1   
    40   20   53 1   
    41   20   54 1   
    42   21   22 1   
    43   21   23 1   
    44   21   24 1   
    45   24   25 1   
    46   24   55 1   
    47   24   56 1   
    48   25   26 1   
    49   25   29 1   
    50   25   57 1   
    51   26   27 1   
    52   26   28 1   
    53   29   30 ar  
    54   29   31 ar  
    55   30   34 ar  
    56   30   58 1   
    57   31   32 ar  
    58   31   59 1   
    59   32   33 ar  
    60   32   60 1   
    61   33   34 ar  
    62   33   61 1   
    63   34   35 1   
    64   35   36 1   
    65   35   62 1   
    66   35   63 1   
    67   36   64 1   
    68   36   65 1   
    69   36   67 1   
@<TRIPOS>SUBSTRUCTURE
     1 17A         1 TEMP              0 ****  ****    0 ROOT
