@<TRIPOS>MOLECULE
17B
   39    39     1     0     0
SMALL
bcc


@<TRIPOS>ATOM
      1 C8         -0.6640    0.5920    1.1010 c3        1 17B     -0.111400
      2 C2         -4.2000    0.7710    4.2880 c3        1 17B      0.084800
      3 C3         -5.3450    1.7240    3.9200 c3        1 17B      0.117100
      4 C4         -4.8100    2.8380    3.0110 c3        1 17B      0.115100
      5 C5         -4.1940    2.2530    1.7170 c3        1 17B      0.180500
      6 C6         -3.0490    3.2070    1.3010 c3        1 17B      0.090400
      7 O2         -3.3210    1.4930    5.1310 oh        1 17B     -0.608800
      8 O3         -5.9430    2.2870    5.0670 oh        1 17B     -0.583800
      9 O4         -5.8350    3.7190    2.5900 oh        1 17B     -0.601800
     10 N5         -3.8170    0.8630    1.8110 nh        1 17B     -0.851200
     11 O6         -2.3890    2.7770    0.1170 oh        1 17B     -0.687800
     12 N1          0.4260    2.4580   -0.1190 n4        1 17B     -0.837600
     13 C7          0.6570    1.1910    0.6400 c3        1 17B      0.107800
     14 C10        -1.8080   -1.3310    2.2310 c3        1 17B      0.119800
     15 C9         -0.4610   -0.6930    1.8690 c3        1 17B     -0.089400
     16 N2         -2.5720   -0.6730    3.2460 n2        1 17B     -0.674900
     17 C1         -3.4300    0.2840    3.0370 c2        1 17B      0.595200
     18 H8C1       -1.3200    0.4000    0.2080 hc        1 17B      0.068700
     19 H8C2       -1.1910    1.3370    1.7590 hc        1 17B      0.068700
     20 H7C1        1.3090    1.4300    1.5290 hx        1 17B      0.109200
     21 H7C2        1.2090    0.4740   -0.0330 hx        1 17B      0.109200
     22 H9C1        0.1100   -1.4290    1.2440 hc        1 17B      0.066200
     23 H9C2        0.1350   -0.4990    2.7980 hc        1 17B      0.066200
     24 H2         -4.6240   -0.1240    4.8270 h1        1 17B      0.095700
     25 H3         -6.1760    1.1590    3.4110 h1        1 17B      0.112700
     26 HA         -2.7770    0.8470    5.6010 ho        1 17B      0.436000
     27 H4         -4.0380    3.4300    3.5820 h1        1 17B      0.057700
     28 HB         -5.2370    2.6300    5.6350 ho        1 17B      0.426000
     29 H5         -4.9870    2.3050    0.9060 h1        1 17B      0.094700
     30 HC         -6.4660    3.7940    3.3210 ho        1 17B      0.439000
     31 H6C1       -3.4810    4.2330    1.1550 h1        1 17B      0.069200
     32 H6C2       -2.2400    3.2430    2.0790 h1        1 17B      0.069200
     33 H6         -3.0440    2.7810   -0.5930 ho        1 17B      0.433000
     34 H1N1        1.3110    2.9260   -0.3220 hn        1 17B      0.463800
     35 H1N2       -0.0650    2.2520   -0.9960 hn        1 17B      0.463800
     36 H101       -1.5820   -2.3530    2.6630 h1        1 17B      0.061200
     37 H102       -2.3870   -1.5010    1.2760 h1        1 17B      0.061200
     38 H1N3       -3.3230    0.5490    1.0020 hn        1 17B      0.402800
     39 H13        -0.1870    3.0820    0.4270 hn        1 17B      0.463800
@<TRIPOS>BOND
     1    1   13 1   
     2    1   15 1   
     3    1   18 1   
     4    1   19 1   
     5    2    3 1   
     6    2    7 1   
     7    2   17 1   
     8    2   24 1   
     9    3    4 1   
    10    3    8 1   
    11    3   25 1   
    12    4    5 1   
    13    4    9 1   
    14    4   27 1   
    15    5    6 1   
    16    5   10 1   
    17    5   29 1   
    18    6   11 1   
    19    6   31 1   
    20    6   32 1   
    21    7   26 1   
    22    8   28 1   
    23    9   30 1   
    24   10   17 1   
    25   10   38 1   
    26   11   33 1   
    27   12   13 1   
    28   12   34 1   
    29   12   35 1   
    30   12   39 1   
    31   13   20 1   
    32   13   21 1   
    33   14   15 1   
    34   14   16 1   
    35   14   36 1   
    36   14   37 1   
    37   15   22 1   
    38   15   23 1   
    39   16   17 2   
@<TRIPOS>SUBSTRUCTURE
     1 17B         1 TEMP              0 ****  ****    0 ROOT
