@<TRIPOS>MOLECULE
17B
   39    39     1     0     0
SMALL
bcc


@<TRIPOS>ATOM
      1 C8         -0.7280    0.5340    1.0320 c3        1 17B     -0.111400
      2 C2         -4.1150    0.8420    4.3690 c3        1 17B      0.084800
      3 C3         -5.2550    1.8140    4.0360 c3        1 17B      0.117100
      4 C4         -4.7370    2.9010    3.0850 c3        1 17B      0.115100
      5 C5         -4.1920    2.2820    1.7750 c3        1 17B      0.180500
      6 C6         -3.0470    3.2030    1.2930 c3        1 17B      0.090400
      7 O2         -3.1840    1.5580    5.1600 oh        1 17B     -0.608800
      8 O3         -5.7890    2.4080    5.1980 oh        1 17B     -0.583800
      9 O4         -5.7600    3.7970    2.6950 oh        1 17B     -0.601800
     10 N5         -3.8400    0.8860    1.8760 nu        1 17B     -0.851200
     11 O6         -2.4500    2.7400    0.0880 oh        1 17B     -0.687800
     12 N1          0.3450    2.3570   -0.2660 nz        1 17B     -0.837600
     13 C7          0.5830    1.0970    0.5030 c3        1 17B      0.107800
     14 C10        -1.8610   -1.3450    2.2440 c3        1 17B      0.119800
     15 C9         -0.5180   -0.7420    1.8120 c3        1 17B     -0.089400
     16 N2         -2.5650   -0.6540    3.2810 n2        1 17B     -0.674900
     17 C1         -3.4110    0.3180    3.0940 c2        1 17B      0.595200
     18 H8C1       -1.2090    1.3020    1.7000 hc        1 17B      0.068700
     19 H8C2       -1.4270    0.3420    0.1730 hc        1 17B      0.068700
     20 H7C1        1.0890    0.3580   -0.1820 hx        1 17B      0.109200
     21 H7C2        1.2790    1.3370    1.3580 hx        1 17B      0.109200
     22 H9C1        0.0090   -1.5000    1.1760 hc        1 17B      0.066200
     23 H9C2        0.1230   -0.5450    2.7110 hc        1 17B      0.066200
     24 H2         -4.5330   -0.0350    4.9410 h1        1 17B      0.095700
     25 H3         -6.1190    1.2580    3.5740 h1        1 17B      0.112700
     26 HA         -2.6340    0.9080    5.6170 ho        1 17B      0.436000
     27 H4         -3.9280    3.4850    3.6110 h1        1 17B      0.057700
     28 HB         -5.0520    2.7450    5.7280 ho        1 17B      0.426000
     29 H5         -5.0190    2.3370    0.9990 h1        1 17B      0.094700
     30 HC         -6.3580    3.8980    3.4520 ho        1 17B      0.439000
     31 H6C1       -2.2030    3.2350    2.0320 h1        1 17B      0.069200
     32 H6C2       -3.4630    4.2360    1.1470 h1        1 17B      0.069200
     33 H6         -3.1360    2.7460   -0.5920 ho        1 17B      0.433000
     34 H1N1        1.2300    2.8020   -0.5170 hn        1 17B      0.463800
     35 H1N2       -0.2290    3.0030    0.2960 hn        1 17B      0.463800
     36 H101       -1.6370   -2.3640    2.6840 h1        1 17B      0.061200
     37 H102       -2.4850   -1.5170    1.3200 h1        1 17B      0.061200
     38 H1N3       -3.3890    0.5480    1.0520 hn        1 17B      0.402800
     39 H13        -0.1910    2.1490   -1.1160 hn        1 17B      0.463800
@<TRIPOS>BOND
     1    1   13 1   
     2    1   15 1   
     3    1   18 1   
     4    1   19 1   
     5    2    3 1   
     6    2    7 1   
     7    2   17 1   
     8    2   24 1   
     9    3    4 1   
    10    3    8 1   
    11    3   25 1   
    12    4    5 1   
    13    4    9 1   
    14    4   27 1   
    15    5    6 1   
    16    5   10 1   
    17    5   29 1   
    18    6   11 1   
    19    6   31 1   
    20    6   32 1   
    21    7   26 1   
    22    8   28 1   
    23    9   30 1   
    24   10   17 1   
    25   10   38 1   
    26   11   33 1   
    27   12   13 1   
    28   12   34 1   
    29   12   35 1   
    30   12   39 1   
    31   13   20 1   
    32   13   21 1   
    33   14   15 1   
    34   14   16 1   
    35   14   36 1   
    36   14   37 1   
    37   15   22 1   
    38   15   23 1   
    39   16   17 2   
@<TRIPOS>SUBSTRUCTURE
     1 17B         1 TEMP              0 ****  ****    0 ROOT
