@<TRIPOS>MOLECULE
17B
   38    38     1     0     0
SMALL
bcc


@<TRIPOS>ATOM
      1 C8          3.6680   -0.5980   -1.6770 c3        1 17B     -0.086400
      2 C2         -1.1550   -1.1480    0.5790 c3        1 17B      0.041800
      3 C3         -2.5140   -1.0440    0.0300 c3        1 17B      0.074100
      4 C4         -3.3900   -0.0400    0.7970 c3        1 17B      0.110100
      5 C5         -2.7610    1.2990    0.9020 c3        1 17B      0.189500
      6 C6         -3.6050    2.1620    1.8320 c3        1 17B      0.128400
      7 O2         -1.1450   -1.8850    1.8270 oh        1 17B     -0.592800
      8 O3         -3.1380   -2.3430    0.0850 oh        1 17B     -0.597800
      9 O4         -4.6510    0.0940    0.1100 oh        1 17B     -0.598800
     10 N5         -1.3670    1.2700    1.4220 nh        1 17B     -0.793200
     11 O6         -3.3050    3.5130    1.6140 oh        1 17B     -0.608800
     12 N1          5.7810   -0.7680   -2.8000 n3        1 17B     -0.916800
     13 C7          5.1480   -0.3680   -1.5730 c3        1 17B      0.159800
     14 C10         1.4740   -0.3400   -0.4480 c3        1 17B      0.122800
     15 C9          2.9460    0.1420   -0.5290 c3        1 17B     -0.071400
     16 N2          0.6760    0.6550    0.2440 n2        1 17B     -0.635900
     17 C1         -0.5240    0.3300    0.7270 c2        1 17B      0.549200
     18 H8C1        3.4810   -1.5630   -1.6140 hc        1 17B      0.045700
     19 H8C2        3.3470   -0.2610   -2.5330 hc        1 17B      0.045700
     20 H7C1        5.5050   -0.8920   -0.8400 h1        1 17B      0.025700
     21 H7C2        5.3220    0.5940   -1.4080 h1        1 17B      0.025700
     22 H9C1        3.4010   -0.0480    0.3210 hc        1 17B      0.053700
     23 H9C2        2.9650    1.1200   -0.7020 hc        1 17B      0.053700
     24 H2         -0.5950   -1.7030    0.0320 h1        1 17B      0.097700
     25 H3         -2.4550   -0.7610   -0.9070 h1        1 17B      0.095700
     26 HA         -0.4520   -2.4390    1.8380 ho        1 17B      0.420000
     27 H4         -3.5530   -0.3810    1.6880 h1        1 17B      0.046700
     28 HB         -3.3430   -2.6140   -0.7500 ho        1 17B      0.420000
     29 H5         -2.7530    1.7130    0.0100 h1        1 17B      0.064700
     30 HC         -5.2840   -0.3460    0.5590 ho        1 17B      0.425000
     31 H6C1       -4.5530    2.0060    1.6520 h1        1 17B      0.046200
     32 H6C2       -3.4060    1.9310    2.7590 h1        1 17B      0.046200
     33 H6         -3.9240    4.0250    2.0100 ho        1 17B      0.408000
     34 H1N1        6.3700   -0.1090   -3.0720 hn        1 17B      0.348300
     35 H1N2        6.2380   -1.5500   -2.6670 hn        1 17B      0.348300
     36 H101        1.4340   -1.1970    0.0460 h1        1 17B      0.041200
     37 H102        1.1230   -0.4690   -1.3530 h1        1 17B      0.041200
     38 H1N3       -1.0060    2.0150    1.7900 hn        1 17B      0.424800
@<TRIPOS>BOND
     1    1   13 1   
     2    1   15 1   
     3    1   18 1   
     4    1   19 1   
     5    2    3 1   
     6    2    7 1   
     7    2   17 1   
     8    2   24 1   
     9    3    4 1   
    10    3    8 1   
    11    3   25 1   
    12    4    5 1   
    13    4    9 1   
    14    4   27 1   
    15    5    6 1   
    16    5   10 1   
    17    5   29 1   
    18    6   11 1   
    19    6   31 1   
    20    6   32 1   
    21    7   26 1   
    22    8   28 1   
    23    9   30 1   
    24   10   17 1   
    25   10   38 1   
    26   11   33 1   
    27   12   13 1   
    28   12   34 1   
    29   12   35 1   
    30   13   20 1   
    31   13   21 1   
    32   14   15 1   
    33   14   16 1   
    34   14   36 1   
    35   14   37 1   
    36   15   22 1   
    37   15   23 1   
    38   16   17 2   
@<TRIPOS>SUBSTRUCTURE
     1 17B         1 TEMP              0 ****  ****    0 ROOT
