@<TRIPOS>MOLECULE
17B
   39    39     1     0     0
SMALL
bcc


@<TRIPOS>ATOM
      1 C8         -0.7380    0.4860    1.0550 c3        1 17B     -0.111400
      2 C2         -4.2170    0.8300    4.2920 c3        1 17B      0.084800
      3 C3         -5.2910    1.8770    3.9670 c3        1 17B      0.117100
      4 C4         -4.6830    2.9750    3.0840 c3        1 17B      0.115100
      5 C5         -4.1270    2.3850    1.7660 c3        1 17B      0.180500
      6 C6         -2.9180    3.2630    1.3630 c3        1 17B      0.090400
      7 O2         -3.2780    1.4590    5.1450 oh        1 17B     -0.608800
      8 O3         -5.8330    2.4470    5.1370 oh        1 17B     -0.583800
      9 O4         -5.6430    3.9430    2.7030 oh        1 17B     -0.601800
     10 N5         -3.8530    0.9690    1.8130 nh        1 17B     -0.851200
     11 O6         -2.3050    2.8220    0.1580 oh        1 17B     -0.687800
     12 N1          0.4760    2.3030   -0.1220 n4        1 17B     -0.837600
     13 C7          0.6200    0.9990    0.5960 c3        1 17B      0.107800
     14 C10        -2.0100   -1.3810    2.1420 c3        1 17B      0.119800
     15 C9         -0.6230   -0.8330    1.7820 c3        1 17B     -0.089400
     16 N2         -2.7120   -0.6990    3.1860 n2        1 17B     -0.674900
     17 C1         -3.4980    0.3260    3.0170 c2        1 17B      0.595200
     18 H8C1       -1.2000    1.2480    1.7420 hc        1 17B      0.068700
     19 H8C2       -1.4150    0.3700    0.1660 hc        1 17B      0.068700
     20 H7C1        1.2980    1.1620    1.4820 hx        1 17B      0.109200
     21 H7C2        1.1090    0.2650   -0.1060 hx        1 17B      0.109200
     22 H9C1       -0.1150   -1.5900    1.1290 hc        1 17B      0.066200
     23 H9C2       -0.0040   -0.7120    2.7090 hc        1 17B      0.066200
     24 H2         -4.7010   -0.0470    4.8080 h1        1 17B      0.095700
     25 H3         -6.1680    1.3900    3.4510 h1        1 17B      0.112700
     26 HA         -2.7790    0.7590    5.5880 ho        1 17B      0.436000
     27 H4         -3.8630    3.4900    3.6630 h1        1 17B      0.057700
     28 HB         -5.0980    2.7190    5.7060 ho        1 17B      0.426000
     29 H5         -4.9230    2.5200    0.9670 h1        1 17B      0.094700
     30 HC         -6.2600    4.0420    3.4440 ho        1 17B      0.439000
     31 H6C1       -2.1000    3.2160    2.1310 h1        1 17B      0.069200
     32 H6C2       -3.2740    4.3230    1.2520 h1        1 17B      0.069200
     33 H6         -2.9660    2.8960   -0.5420 ho        1 17B      0.433000
     34 H1N1        1.3910    2.7090   -0.3230 hn        1 17B      0.463800
     35 H1N2       -0.0400    2.1620   -0.9980 hn        1 17B      0.463800
     36 H101       -2.6100   -1.4770    1.1910 h1        1 17B      0.061200
     37 H102       -1.8560   -2.4290    2.5410 h1        1 17B      0.061200
     38 H1N3       -3.3930    0.6440    0.9890 hn        1 17B      0.402800
     39 H13        -0.0820    2.9540    0.4500 hn        1 17B      0.463800
@<TRIPOS>BOND
     1    1   13 1   
     2    1   15 1   
     3    1   18 1   
     4    1   19 1   
     5    2    3 1   
     6    2    7 1   
     7    2   17 1   
     8    2   24 1   
     9    3    4 1   
    10    3    8 1   
    11    3   25 1   
    12    4    5 1   
    13    4    9 1   
    14    4   27 1   
    15    5    6 1   
    16    5   10 1   
    17    5   29 1   
    18    6   11 1   
    19    6   31 1   
    20    6   32 1   
    21    7   26 1   
    22    8   28 1   
    23    9   30 1   
    24   10   17 1   
    25   10   38 1   
    26   11   33 1   
    27   12   13 1   
    28   12   34 1   
    29   12   35 1   
    30   12   39 1   
    31   13   20 1   
    32   13   21 1   
    33   14   15 1   
    34   14   16 1   
    35   14   36 1   
    36   14   37 1   
    37   15   22 1   
    38   15   23 1   
    39   16   17 2   
@<TRIPOS>SUBSTRUCTURE
     1 17B         1 TEMP              0 ****  ****    0 ROOT
