@<TRIPOS>MOLECULE
17B
   38    38     1     0     0
SMALL
bcc


@<TRIPOS>ATOM
      1 C8         -4.2330    0.1080   -0.4520 c3        1 17B     -0.083400
      2 C2          1.5700    1.6930   -0.4770 c3        1 17B      0.085800
      3 C3          2.8450    0.8460   -0.5600 c3        1 17B      0.109100
      4 C4          2.7490   -0.3670    0.3740 c3        1 17B      0.107100
      5 C5          1.5340   -1.2240   -0.0440 c3        1 17B      0.221500
      6 C6          1.4160   -2.4110    0.9340 c3        1 17B      0.123400
      7 O2          1.5890    2.3300    0.7910 oh        1 17B     -0.608800
      8 O3          3.9940    1.6070   -0.2450 oh        1 17B     -0.597800
      9 O4          3.8970   -1.1910    0.2580 oh        1 17B     -0.603800
     10 N5          0.3140   -0.4490   -0.0850 nh        1 17B     -0.853200
     11 O6          0.4230   -3.2810    0.4130 oh        1 17B     -0.613800
     12 N1         -6.4240   -0.5650    0.5030 n3        1 17B     -0.916800
     13 C7         -5.1020   -0.0650    0.7940 c3        1 17B      0.159800
     14 C10        -2.0210    0.8630   -1.3190 c3        1 17B      0.117800
     15 C9         -2.8860    0.6820   -0.0700 c3        1 17B     -0.092400
     16 N2         -0.7440    1.4790   -1.1130 n2        1 17B     -0.681900
     17 C1          0.2840    0.8490   -0.6140 c2        1 17B      0.588200
     18 H8C1       -4.0920   -0.8820   -0.9610 hc        1 17B      0.047700
     19 H8C2       -4.7440    0.7900   -1.1810 hc        1 17B      0.047700
     20 H7C1       -4.5400   -0.7250    1.5210 h1        1 17B      0.024700
     21 H7C2       -5.2260    0.9390    1.2910 h1        1 17B      0.024700
     22 H9C1       -3.0290    1.6720    0.4380 hc        1 17B      0.048700
     23 H9C2       -2.3770    0.0020    0.6620 hc        1 17B      0.048700
     24 H2          1.5990    2.4740   -1.2910 h1        1 17B      0.080700
     25 H3          3.0100    0.5070   -1.6220 h1        1 17B      0.093700
     26 HA          0.8110    2.9000    0.8330 ho        1 17B      0.430000
     27 H4          2.6480   -0.0210    1.4410 h1        1 17B      0.066700
     28 HB          3.8200    2.0710    0.5860 ho        1 17B      0.424000
     29 H5          1.7560   -1.6590   -1.0680 h1        1 17B      0.056700
     30 HC          4.6580   -0.5970    0.1940 ho        1 17B      0.424000
     31 H6C1        2.4110   -2.9290    0.9790 h1        1 17B      0.048200
     32 H6C2        1.1220   -2.0660    1.9600 h1        1 17B      0.048200
     33 H6          0.4350   -4.0730    0.9620 ho        1 17B      0.408000
     34 H1N1       -6.3830   -1.3900   -0.0610 hn        1 17B      0.348300
     35 H1N2       -6.9120   -0.7710    1.3520 hn        1 17B      0.348300
     36 H101       -1.9320   -0.1390   -1.8340 h1        1 17B      0.044200
     37 H102       -2.5660    1.5520   -2.0290 h1        1 17B      0.044200
     38 H1N3       -0.4950   -1.0170   -0.2330 hn        1 17B      0.428800
@<TRIPOS>BOND
     1    1   13 1   
     2    1   15 1   
     3    1   18 1   
     4    1   19 1   
     5    2    3 1   
     6    2    7 1   
     7    2   17 1   
     8    2   24 1   
     9    3    4 1   
    10    3    8 1   
    11    3   25 1   
    12    4    5 1   
    13    4    9 1   
    14    4   27 1   
    15    5    6 1   
    16    5   10 1   
    17    5   29 1   
    18    6   11 1   
    19    6   31 1   
    20    6   32 1   
    21    7   26 1   
    22    8   28 1   
    23    9   30 1   
    24   10   17 1   
    25   10   38 1   
    26   11   33 1   
    27   12   13 1   
    28   12   34 1   
    29   12   35 1   
    30   13   20 1   
    31   13   21 1   
    32   14   15 1   
    33   14   16 1   
    34   14   36 1   
    35   14   37 1   
    36   15   22 1   
    37   15   23 1   
    38   16   17 2   
@<TRIPOS>SUBSTRUCTURE
     1 17B         1 TEMP              0 ****  ****    0 ROOT
