@<TRIPOS>MOLECULE
17C
   28    27     1     0     0
SMALL
bcc


@<TRIPOS>ATOM
      1 OAA        -0.1980    0.7160    2.2320 o         1 17C     -0.524000
      2 OAB        10.4060    1.4650   -4.6630 o         1 17C     -0.555000
      3 OAC         0.3940   -0.1850    0.2610 o         1 17C     -0.524000
      4 OAD        10.1560   -0.7210   -5.0720 o         1 17C     -0.555000
      5 CAE         0.9700   -1.7730    5.8770 c1        1 17C     -0.168000
      6 CAF         7.0120   -0.1090   -0.2750 c3        1 17C     -0.088000
      7 CAG         1.3170   -1.3500    4.6920 c1        1 17C     -0.212000
      8 CAH         6.9260    0.1640   -1.7020 c1        1 17C     -0.050000
      9 CAI         3.8140    0.4660    2.8540 c2        1 17C     -0.332000
     10 CAJ         5.7300   -0.1240    0.4670 c2        1 17C     -0.315000
     11 CAK         1.5430   -1.0660    3.5060 c1        1 17C      0.007000
     12 CAL         7.9680    0.2020   -2.5470 c1        1 17C     -0.261000
     13 CAN         0.5170    0.0070    1.4960 c2        1 17C      0.383000
     14 CAO         9.8610    0.3430   -4.4590 c2        1 17C      0.410000
     15 CAP         3.0370   -0.0030    1.8550 c2        1 17C      0.075000
     16 CAQ         4.5390    0.1560   -0.1050 c2        1 17C      0.019000
     17 CAR         1.7660   -0.7810    2.1460 c3        1 17C     -0.130000
     18 CAS         8.8220    0.2680   -3.4230 c1        1 17C     -0.047000
     19 HAE         3.5480    0.2950    3.9020 ha        1 17C      0.111500
     20 HAF         7.5220   -1.1080   -0.1240 hc        1 17C      0.085500
     21 HAG         1.2370   -1.3690    6.8470 ha        1 17C      0.101000
     22 HAH         7.6890    0.6650    0.1980 hc        1 17C      0.085500
     23 HAI         4.7230    1.0520    2.6820 ha        1 17C      0.111500
     24 HAJ         5.8230   -0.3860    1.5300 ha        1 17C      0.113000
     25 HAK         1.7950   -1.7520    1.5650 hc        1 17C      0.124000
     26 HAL         4.5070    0.3900   -1.1940 h4        1 17C      0.162000
     27 HNAM        2.4980    0.1040   -0.1090 hn        1 17C      0.262000
     28 NAM         3.2950    0.2150    0.4930 n3        1 17C     -0.290000
@<TRIPOS>BOND
     1    1   13 1   
     2    2   14 1   
     3    3   13 1   
     4    4   14 1   
     5    5    7 1   
     6    5   21 1   
     7    6    8 1   
     8    6   10 1   
     9    6   20 1   
    10    6   22 1   
    11    7   11 1   
    12    8   12 1   
    13    9   15 1   
    14    9   19 1   
    15    9   23 1   
    16   10   16 1   
    17   10   24 1   
    18   11   17 1   
    19   12   18 1   
    20   13   17 1   
    21   14   18 1   
    22   15   17 1   
    23   15   28 1   
    24   16   26 1   
    25   16   28 1   
    26   17   25 1   
    27   27   28 1   
@<TRIPOS>SUBSTRUCTURE
     1 17C         1 TEMP              0 ****  ****    0 ROOT
