@<TRIPOS>MOLECULE
17C
   28    23     1     0     0
SMALL
bcc


@<TRIPOS>ATOM
      1 OAA        -0.9820   -3.3500   -1.6580 o         1 17C     -0.847550
      2 OAB        -0.4850    4.0000    0.0080 o         1 17C     -0.847550
      3 OAC        -2.9430   -2.4030   -1.5450 o         1 17C     -0.847550
      4 OAD        -0.6340    3.6720   -2.1430 o         1 17C     -0.847550
      5 CAE        -1.1890   -1.1600    2.9010 c1        1 17C     -0.099250
      6 CAF         2.9830    0.5290   -1.1230 c1        1 17C     -0.099250
      7 CAG        -1.7080   -2.4090    2.5990 c1        1 17C     -0.099250
      8 CAH         3.0740    1.8870   -1.3870 c1        1 17C     -0.099250
      9 CAI        -0.7830   -0.3130    1.8820 c1        1 17C     -0.099250
     10 CAJ         1.7680   -0.0240   -0.7480 c1        1 17C     -0.099250
     11 CAK        -1.8210   -2.8110    1.2780 c1        1 17C     -0.099250
     12 CAL         1.9510    2.6910   -1.2740 c1        1 17C     -0.099250
     13 NAM        -0.6620    0.2620   -0.4420 n3        1 17C     -0.525400
     14 CAN        -1.8000   -2.6070   -1.0560 c         1 17C      0.866300
     15 CAO        -0.1800    3.3360   -1.0180 c         1 17C      0.866300
     16 CAP        -0.8960   -0.7150    0.5600 c1        1 17C      0.103300
     17 CAQ         0.6450    0.7810   -0.6360 c1        1 17C      0.103300
     18 CAR        -1.4150   -1.9640    0.2580 cg        1 17C     -0.077200
     19 CAS         0.7370    2.1380   -0.8990 cg        1 17C     -0.077200
     20 HAE        -1.1090   -0.8760    3.8320 ha        1 17C      0.063750
     21 HAF         3.7730   -0.0380   -1.2020 ha        1 17C      0.063750
     22 HAG        -1.9940   -3.0050    3.3170 ha        1 17C      0.063750
     23 HAH         3.9340    2.2800   -1.6300 ha        1 17C      0.063750
     24 HAI        -0.4380    0.5750    2.0940 ha        1 17C      0.063750
     25 HAJ         1.6990   -0.9840   -0.5840 ha        1 17C      0.063750
     26 HAK        -2.1860   -3.6910    1.0650 ha        1 17C      0.063750
     27 HAL         2.0100    3.6430   -1.4830 ha        1 17C      0.063750
     28 HNAM       -1.3500    0.5550   -0.9630 hn        1 17C      0.413800
@<TRIPOS>BOND
     1    1   14 1   
     2    2   15 1   
     3    3   14 1   
     4    4   15 1   
     5    5    9 3   
     6    5   20 1   
     7    6   10 3   
     8    6   21 1   
     9    7   11 3   
    10    7   22 1   
    11    8   12 3   
    12    8   23 1   
    13    9   24 1   
    14   10   25 1   
    15   11   26 1   
    16   12   27 1   
    17   13   16 1   
    18   13   17 1   
    19   13   28 1   
    20   14   18 1   
    21   15   19 1   
    22   16   18 3   
    23   17   19 3   
@<TRIPOS>SUBSTRUCTURE
     1 17C         1 TEMP              0 ****  ****    0 ROOT
