@<TRIPOS>MOLECULE
17C
   29    29     1     0     0
SMALL
bcc


@<TRIPOS>ATOM
      1 OAA         0.7280    1.9370    2.9890 o         1 17C     -0.498500
      2 OAB         6.9020   -1.9980   -5.2050 o         1 17C     -0.255000
      3 OAC         1.4220    2.6610    0.9670 o         1 17C     -0.498500
      4 OAD         7.5720   -0.2160   -3.7610 os        1 17C     -0.245000
      5 CAE         0.5860   -2.4020    3.7860 c1        1 17C     -0.298000
      6 CAF         7.6140    0.4270    0.3720 c3        1 17C     -0.094000
      7 CAG         0.8720   -1.5570    2.9550 c1        1 17C     -0.076000
      8 CAH         8.1430   -0.4970   -0.5840 c1        1 17C     -0.027000
      9 CAI         3.8530   -0.5060    2.6560 c2        1 17C     -0.320000
     10 CAJ         6.2000    0.2750    0.7670 c2        1 17C     -0.404000
     11 CAK         0.9910   -0.6750    1.9700 c1        1 17C     -0.075000
     12 CAL         7.5750   -1.4040   -1.4740 c2        1 17C     -0.043000
     13 CAN         1.2290    1.8060    1.8630 c2        1 17C      0.406000
     14 CAO         7.1760   -1.4960   -4.1410 cu        1 17C      0.382000
     15 CAP         3.2950    0.3350    1.7630 c2        1 17C      0.050000
     16 CAQ         5.3180    1.3030    0.6930 c2        1 17C      0.063000
     17 CAR         1.8160    0.3160    1.4350 c3        1 17C     -0.170000
     18 CAS         7.4240   -1.2710   -2.7840 cu        1 17C     -0.194000
     19 HAE         3.2440   -1.2540    3.1780 ha        1 17C      0.118000
     20 HAF         8.2740    0.3850    1.2920 hc        1 17C      0.140000
     21 HAG         0.3180   -3.1360    4.4950 ha        1 17C      0.204000
     22 HAH         7.8170    1.4420   -0.1000 hc        1 17C      0.140000
     23 HAI         4.9090   -0.4770    2.9420 ha        1 17C      0.118000
     24 HAJ         5.9120   -0.7160    1.1400 ha        1 17C      0.139000
     25 HAK         1.6830    0.3300    0.3120 hc        1 17C      0.140000
     26 HAL         7.3680   -2.4010   -1.0200 ha        1 17C      0.187000
     27 HNAM        5.6550    2.2710    0.2570 h4        1 17C      0.114000
     28 HAM2        3.4500    2.1140    0.7630 hn        1 17C      0.275000
     29 NAM         4.0110    1.3420    1.0830 n3        1 17C     -0.279000
@<TRIPOS>BOND
     1    1   13 1   
     2    2   14 1   
     3    3   13 1   
     4    4   14 1   
     5    4   18 1   
     6    5    7 1   
     7    5   21 1   
     8    6    8 1   
     9    6   10 1   
    10    6   20 1   
    11    6   22 1   
    12    7   11 1   
    13    8   12 1   
    14    9   15 1   
    15    9   19 1   
    16    9   23 1   
    17   10   16 1   
    18   10   24 1   
    19   11   17 1   
    20   12   18 1   
    21   12   26 1   
    22   13   17 1   
    23   14   18 1   
    24   15   17 1   
    25   15   29 1   
    26   16   27 1   
    27   16   29 1   
    28   17   25 1   
    29   28   29 1   
@<TRIPOS>SUBSTRUCTURE
     1 17C         1 TEMP              0 ****  ****    0 ROOT
