@<TRIPOS>MOLECULE
17C
   28    29     1     0     0
SMALL
bcc


@<TRIPOS>ATOM
      1 OAA        -3.7270   -2.0820    0.7450 o         1 17C     -0.838550
      2 OAB         3.6700   -1.4900   -1.6060 o         1 17C     -0.838550
      3 OAC        -1.6600   -1.9020    1.5480 o         1 17C     -0.838550
      4 OAD         1.8320   -2.3450   -0.6860 o         1 17C     -0.838550
      5 CAE        -2.4280    2.3450   -1.1790 ca        1 17C     -0.132000
      6 CAF         2.3140    2.3830    1.2230 ca        1 17C     -0.132000
      7 CAG        -3.6450    1.7460   -0.8680 ca        1 17C     -0.222000
      8 CAH         3.5520    1.8560    0.8690 ca        1 17C     -0.222000
      9 CAI        -1.2330    1.7020   -0.8850 ca        1 17C     -0.219500
     10 CAJ         1.1460    1.6960    0.9180 ca        1 17C     -0.219500
     11 CAK        -3.6440    0.4980   -0.2470 ca        1 17C     -0.090000
     12 CAL         3.6020    0.6320    0.2040 ca        1 17C     -0.090000
     13 CAN        -2.6120   -1.4820    0.8340 c         1 17C      0.910700
     14 CAO         2.6480   -1.3990   -0.8580 c         1 17C      0.910700
     15 CAP        -1.2140    0.4270   -0.2530 ca        1 17C      0.211600
     16 CAQ         1.1790    0.4490    0.2390 ca        1 17C      0.211600
     17 CAR        -2.4640   -0.1670    0.0840 ca        1 17C     -0.167600
     18 CAS         2.4490   -0.0840   -0.1190 ca        1 17C     -0.167600
     19 HAE        -2.4050    3.3290   -1.6660 ha        1 17C      0.086500
     20 HAF         2.2530    3.3440    1.7530 ha        1 17C      0.086500
     21 HAG        -4.5900    2.2470   -1.1090 ha        1 17C      0.088500
     22 HAH         4.4760    2.3960    1.1080 ha        1 17C      0.088500
     23 HAI        -0.2830    2.1850   -1.1580 ha        1 17C      0.124000
     24 HAJ         0.1780    2.1230    1.2200 ha        1 17C      0.124000
     25 HAK        -4.5950   -0.0010    0.0050 ha        1 17C      0.138000
     26 HAL         4.5690    0.2050   -0.1090 ha        1 17C      0.138000
     27 HNAM       -0.0190   -1.2250    0.1270 hn        1 17C      0.513800
     28 NAM        -0.0030   -0.2330   -0.0650 nh        1 17C     -0.619000
@<TRIPOS>BOND
     1    1   13 1   
     2    2   14 1   
     3    3   13 1   
     4    4   14 1   
     5    5    7 ar  
     6    5    9 ar  
     7    5   19 1   
     8    6    8 ar  
     9    6   10 ar  
    10    6   20 1   
    11    7   11 ar  
    12    7   21 1   
    13    8   12 ar  
    14    8   22 1   
    15    9   15 ar  
    16    9   23 1   
    17   10   16 ar  
    18   10   24 1   
    19   11   17 ar  
    20   11   25 1   
    21   12   18 ar  
    22   12   26 1   
    23   13   17 1   
    24   14   18 1   
    25   15   17 ar  
    26   15   28 1   
    27   16   18 ar  
    28   16   28 1   
    29   27   28 1   
@<TRIPOS>SUBSTRUCTURE
     1 17C         1 TEMP              0 ****  ****    0 ROOT
