@<TRIPOS>MOLECULE
17C
   28    27     1     0     0
SMALL
bcc


@<TRIPOS>ATOM
      1 OAA        -0.3130    0.2610    2.0350 o         1 17C     -0.524000
      2 OAB        10.3960   -0.5010   -4.8470 o         1 17C     -0.555000
      3 OAC         0.4510   -0.7100    0.1580 o         1 17C     -0.524000
      4 OAD        10.3780    1.7240   -4.6090 o         1 17C     -0.555000
      5 CAE         1.0030   -1.7880    5.8970 c1        1 17C     -0.168000
      6 CAF         7.0310    0.1050   -0.2020 c3        1 17C     -0.088000
      7 CAG         1.3410   -1.4180    4.6920 c1        1 17C     -0.212000
      8 CAH         6.9660    0.2550   -1.6480 c1        1 17C     -0.050000
      9 CAI         3.6760    0.5350    2.7840 c2        1 17C     -0.332000
     10 CAJ         5.7330   -0.0040    0.5030 c2        1 17C     -0.315000
     11 CAK         1.5760   -1.2010    3.4930 c1        1 17C      0.007000
     12 CAL         8.0260    0.3500   -2.4650 c1        1 17C     -0.261000
     13 CAN         0.5060   -0.4120    1.3780 c2        1 17C      0.383000
     14 CAO         9.9590    0.5650   -4.3300 c2        1 17C      0.410000
     15 CAP         2.9950   -0.0970    1.8040 c2        1 17C      0.075000
     16 CAQ         4.5400    0.0890   -0.1210 c2        1 17C      0.019000
     17 CAR         1.8130   -0.9950    2.1220 c3        1 17C     -0.130000
     18 CAS         8.8980    0.4480   -3.3200 c1        1 17C     -0.047000
     19 HAE         3.3940    0.4140    3.8340 ha        1 17C      0.111500
     20 HAF         7.6470   -0.8120    0.0430 hc        1 17C      0.085500
     21 HAG         1.1860   -1.2820    6.8380 ha        1 17C      0.101000
     22 HAH         7.5960    0.9880    0.2260 hc        1 17C      0.085500
     23 HAI         4.5160    1.2100    2.5900 ha        1 17C      0.111500
     24 HAJ         5.8170   -0.1720    1.5870 ha        1 17C      0.113000
     25 HAK         1.9760   -1.9970    1.6210 hc        1 17C      0.124000
     26 HAL         4.5210    0.2330   -1.2260 h4        1 17C      0.162000
     27 HNAM        2.5190   -0.2030   -0.1760 hn        1 17C      0.262000
     28 NAM         3.2760    0.0460    0.4360 n7        1 17C     -0.290000
@<TRIPOS>BOND
     1    1   13 1   
     2    2   14 1   
     3    3   13 1   
     4    4   14 1   
     5    5    7 1   
     6    5   21 1   
     7    6    8 1   
     8    6   10 1   
     9    6   20 1   
    10    6   22 1   
    11    7   11 1   
    12    8   12 1   
    13    9   15 1   
    14    9   19 1   
    15    9   23 1   
    16   10   16 1   
    17   10   24 1   
    18   11   17 1   
    19   12   18 1   
    20   13   17 1   
    21   14   18 1   
    22   15   17 1   
    23   15   28 1   
    24   16   26 1   
    25   16   28 1   
    26   17   25 1   
    27   27   28 1   
@<TRIPOS>SUBSTRUCTURE
     1 17C         1 TEMP              0 ****  ****    0 ROOT
