@<TRIPOS>MOLECULE
17D
   27    26     1     0     0
SMALL
bcc


@<TRIPOS>ATOM
      1 OAA         0.6920    2.4850    1.7100 o         1 17D     -0.551000
      2 OAB         0.5780    1.2650   -0.1630 o         1 17D     -0.551000
      3 CAC        -2.6460    0.0070    6.3570 c1        1 17D     -0.027000
      4 CAD        -1.5330    0.4860    5.5880 c3        1 17D     -0.121000
      5 CAE        -3.3220   -1.1580    6.3370 c1        1 17D     -0.139000
      6 CAF         3.9020   -1.2550    3.2740 c2        1 17D     -0.251000
      7 CAG         4.5590    1.2740    0.9690 c1        1 17D     -0.287000
      8 CAH        -0.9510   -0.4150    4.5620 c2        1 17D     -0.265000
      9 CAI        -4.0450   -2.1270    6.4620 c1        1 17D     -0.207000
     10 CAJ         2.6730   -1.5040    2.8180 c2        1 17D     -0.097000
     11 CAK         3.4450    0.9270    1.2490 c1        1 17D     -0.052000
     12 CAM         1.0470    1.5220    0.9770 c2        1 17D      0.367000
     13 CAN        -0.2840    0.0430    3.4990 c2        1 17D     -0.105000
     14 CAO         1.7580   -0.5320    2.2430 c2        1 17D     -0.103000
     15 CAP         2.1180    0.5680    1.5390 c2        1 17D     -0.018000
     16 HAE        -4.6770   -2.9690    6.5720 ha        1 17D      0.215000
     17 HAF         4.5330   -2.0450    3.7000 ha        1 17D      0.104500
     18 HAG         4.3560   -0.2560    3.2490 ha        1 17D      0.104500
     19 HAH        -1.0990   -1.4920    4.7370 ha        1 17D      0.111000
     20 HAI        -0.1310    1.1270    3.3110 ha        1 17D      0.181000
     21 HAJ         2.2680   -2.5310    2.8820 ha        1 17D      0.099000
     22 HAK         5.5340    1.5890    0.7140 ha        1 17D      0.202000
     23 HAC        -0.7340    0.7770    6.3380 hc        1 17D      0.149000
     24 CAL         0.3020   -0.8300    2.4500 c3        1 17D     -0.099000
     25 HAD        -1.8660    1.4630    5.1170 hc        1 17D      0.149000
     26 HAL        -0.2460   -0.6220    1.4840 hc        1 17D      0.096500
     27 HALA        0.1550   -1.9150    2.6990 hc        1 17D      0.096500
@<TRIPOS>BOND
     1    1   12 1   
     2    2   12 1   
     3    3    4 1   
     4    3    5 1   
     5    4    8 1   
     6    4   23 1   
     7    4   25 1   
     8    5    9 1   
     9    6   10 1   
    10    6   17 1   
    11    6   18 1   
    12    7   11 1   
    13    7   22 1   
    14    8   13 1   
    15    8   19 1   
    16    9   16 1   
    17   10   14 1   
    18   10   21 1   
    19   11   15 1   
    20   12   15 1   
    21   13   20 1   
    22   13   24 1   
    23   14   15 1   
    24   14   24 1   
    25   24   26 1   
    26   24   27 1   
@<TRIPOS>SUBSTRUCTURE
     1 17D         1 TEMP              0 ****  ****    0 ROOT
