@<TRIPOS>MOLECULE
17D
   27    28     1     0     0
SMALL
bcc


@<TRIPOS>ATOM
      1 OAA        -2.0630   -2.2480   -0.2940 o         1 17D     -0.832300
      2 OAB        -3.7640   -1.3050    0.7930 o         1 17D     -0.832300
      3 CAC         4.4790   -0.0990    0.1800 ca        1 17D     -0.155000
      4 CAD         3.6830   -0.2350    1.3180 ca        1 17D     -0.139000
      5 CAE         3.8990   -0.2010   -1.0840 ca        1 17D     -0.139000
      6 CAF        -0.9660    2.7240   -0.2070 ca        1 17D     -0.156000
      7 CAG        -2.3340    2.5410   -0.0160 ca        1 17D     -0.166000
      8 CAH         2.3160   -0.4720    1.1930 ca        1 17D     -0.131500
      9 CAI         2.5320   -0.4370   -1.2110 ca        1 17D     -0.131500
     10 CAJ        -0.1190    1.6200   -0.2600 ca        1 17D     -0.160000
     11 CAK        -2.8450    1.2520    0.1170 ca        1 17D     -0.107000
     12 CAM        -2.6520   -1.2420    0.1970 c         1 17D      0.905200
     13 CAN         1.7240   -0.5740   -0.0740 ca        1 17D     -0.041300
     14 CAO        -0.6260    0.3210   -0.1280 ca        1 17D     -0.049300
     15 CAP        -2.0070    0.1320    0.0570 ca        1 17D     -0.121600
     16 HAE         4.5220   -0.0950   -1.9830 ha        1 17D      0.115500
     17 HAF        -0.5530    3.7370   -0.3140 ha        1 17D      0.101000
     18 HAG        -3.0060    3.4090    0.0310 ha        1 17D      0.103000
     19 HAH         1.6880   -0.5810    2.0900 ha        1 17D      0.136000
     20 HAI         2.0760   -0.5180   -2.2090 ha        1 17D      0.136000
     21 HAJ         0.9600    1.7710   -0.4090 ha        1 17D      0.114000
     22 HAK        -3.9210    1.0820    0.2840 ha        1 17D      0.150000
     23 HAC         5.5570    0.0870    0.2800 ha        1 17D      0.113000
     24 CAL         0.2700   -0.8680   -0.2050 c3        1 17D     -0.010800
     25 HAD         4.1360   -0.1560    2.3170 ha        1 17D      0.115500
     26 HAL         0.0640   -1.3890   -1.1830 hc        1 17D      0.092200
     27 HALA       -0.0400   -1.6020    0.5940 hc        1 17D      0.092200
@<TRIPOS>BOND
     1    1   12 1   
     2    2   12 1   
     3    3    4 ar  
     4    3    5 ar  
     5    3   23 1   
     6    4    8 ar  
     7    4   25 1   
     8    5    9 ar  
     9    5   16 1   
    10    6    7 ar  
    11    6   10 ar  
    12    6   17 1   
    13    7   11 ar  
    14    7   18 1   
    15    8   13 ar  
    16    8   19 1   
    17    9   13 ar  
    18    9   20 1   
    19   10   14 ar  
    20   10   21 1   
    21   11   15 ar  
    22   11   22 1   
    23   12   15 1   
    24   13   24 1   
    25   14   15 ar  
    26   14   24 1   
    27   24   26 1   
    28   24   27 1   
@<TRIPOS>SUBSTRUCTURE
     1 17D         1 TEMP              0 ****  ****    0 ROOT
