@<TRIPOS>MOLECULE
17D
   27    26     1     0     0
SMALL
bcc


@<TRIPOS>ATOM
      1 OAA         0.9670    0.3120    0.2200 o         1 17D     -0.817800
      2 OAB         1.9380   -1.7020    0.2340 o         1 17D     -0.817800
      3 CAC        -3.0830   -0.5360    5.8790 ce        1 17D     -0.073700
      4 CAD        -2.4490    0.6440    5.7400 cf        1 17D     -0.066000
      5 CAE        -2.8370   -1.7160    5.1660 cg        1 17D     -0.157300
      6 CAF         5.4410    0.3360    0.0810 c1        1 17D     -0.227500
      7 CAG         4.6580    0.2480    0.9840 cg        1 17D     -0.089300
      8 CAH        -1.3700    1.0080    4.8590 cf        1 17D     -0.217000
      9 CAI        -2.6530   -2.7390    4.5690 c1        1 17D     -0.157500
     10 CAJ         2.0090   -0.9590    4.2860 c2        1 17D     -0.262000
     11 CAK         3.7770    0.1630    2.0710 ce        1 17D     -0.087700
     12 CAM         1.7470   -0.5540    0.7110 c         1 17D      0.913800
     13 CAN        -0.6330    0.1740    4.1060 c2        1 17D     -0.070200
     14 CAO         1.6640   -0.2170    3.2260 cf        1 17D     -0.034200
     15 CAP         2.4770   -0.1830    2.0040 cf        1 17D     -0.072200
     16 HAE        -2.4720   -3.6300    4.0250 ha        1 17D      0.165500
     17 HAF         2.9160   -1.5750    4.2920 ha        1 17D      0.103500
     18 HAG         6.1100    0.4010   -0.7330 ha        1 17D      0.145500
     19 HAH        -1.1540    2.0920    4.8330 ha        1 17D      0.115000
     20 HAI        -0.8100   -0.9160    4.1090 ha        1 17D      0.139000
     21 HAJ         1.3960   -1.0110    5.1940 ha        1 17D      0.103500
     22 HAK         4.2340    0.4180    3.0460 ha        1 17D      0.103000
     23 HAC        -3.9000   -0.6210    6.6220 ha        1 17D      0.119000
     24 CAL         0.4390    0.6360    3.1970 c3        1 17D     -0.056000
     25 HAD        -2.7950    1.4760    6.3850 ha        1 17D      0.106000
     26 HAL         0.7400    1.6940    3.4300 hc        1 17D      0.096700
     27 HALA        0.0310    0.6410    2.1350 hc        1 17D      0.096700
@<TRIPOS>BOND
     1    1   12 1   
     2    2   12 1   
     3    3    4 2   
     4    3    5 1   
     5    3   23 1   
     6    4    8 1   
     7    4   25 1   
     8    5    9 3   
     9    6    7 3   
    10    6   18 1   
    11    7   11 1   
    12    8   13 2   
    13    8   19 1   
    14    9   16 1   
    15   10   14 2   
    16   10   17 1   
    17   10   21 1   
    18   11   15 2   
    19   11   22 1   
    20   12   15 1   
    21   13   20 1   
    22   13   24 1   
    23   14   15 1   
    24   14   24 1   
    25   24   26 1   
    26   24   27 1   
@<TRIPOS>SUBSTRUCTURE
     1 17D         1 TEMP              0 ****  ****    0 ROOT
