@<TRIPOS>MOLECULE
17D
   27    22     1     0     0
SMALL
bcc


@<TRIPOS>ATOM
      1 OAA        -2.0550   -2.7510   -1.5820 o         1 17D     -0.826800
      2 OAB         0.1500   -3.0010   -1.8160 o         1 17D     -0.826800
      3 CAC         2.3330    2.6080   -1.7290 c1        1 17D     -0.087375
      4 CAD         2.2410    2.3980   -0.3750 c1        1 17D     -0.087375
      5 CAE         1.3880    2.1800   -2.5250 c1        1 17D     -0.087375
      6 CAF        -0.9180   -1.3500    2.9880 c1        1 17D     -0.087375
      7 CAG        -0.6640   -2.6370    2.4890 c1        1 17D     -0.087375
      8 CAH         1.1510    1.7360    0.1420 c1        1 17D     -0.087375
      9 CAI         0.2830    1.5090   -2.0000 c1        1 17D     -0.052500
     10 CAJ        -1.0610   -0.2940    2.1290 c1        1 17D     -0.087375
     11 CAK        -0.5570   -2.8480    1.0960 c1        1 17D     -0.087375
     12 CAL        -1.1900    0.6850   -0.2540 c3        1 17D     -0.071200
     13 CAM        -0.9030   -2.4900   -1.1800 c         1 17D      0.854800
     14 CAN         0.1880    1.3010   -0.6690 c1        1 17D     -0.024100
     15 CAO        -0.9540   -0.4960    0.7220 c1        1 17D     -0.033100
     16 CAP        -0.7030   -1.7730    0.2180 cg        1 17D     -0.041200
     17 HAC         3.1350    3.0980   -2.1130 ha        1 17D      0.055000
     18 HAD         2.8700    2.8880    0.2480 ha        1 17D      0.055000
     19 HAE         1.4490    2.3620   -3.5420 ha        1 17D      0.055000
     20 HAF        -1.0920   -1.2380    3.8680 ha        1 17D      0.055000
     21 HAG        -0.5730   -3.3120    3.0440 ha        1 17D      0.055000
     22 HAH         1.0800    1.5810    1.1350 ha        1 17D      0.055000
     23 HAI        -0.4610    1.1740   -2.6280 ha        1 17D      0.148500
     24 HAJ        -1.2400    0.6340    2.4980 ha        1 17D      0.055000
     25 HAK        -0.4490   -3.6770    0.7750 ha        1 17D      0.055000
     26 HAL        -1.7010    0.3270   -1.1320 hc        1 17D      0.067200
     27 HALA       -1.7480    1.3860    0.1940 hc        1 17D      0.067200
@<TRIPOS>BOND
     1    1   13 1   
     2    2   13 1   
     3    3    5 3   
     4    3   17 1   
     5    4    8 3   
     6    4   18 1   
     7    5   19 1   
     8    6   10 3   
     9    6   20 1   
    10    7   11 3   
    11    7   21 1   
    12    8   22 1   
    13    9   14 3   
    14    9   23 1   
    15   10   24 1   
    16   11   25 1   
    17   12   14 1   
    18   12   15 1   
    19   12   26 1   
    20   12   27 1   
    21   13   16 1   
    22   15   16 3   
@<TRIPOS>SUBSTRUCTURE
     1 17D         1 TEMP              0 ****  ****    0 ROOT
