@<TRIPOS>MOLECULE
17E
   17    17     1     0     0
SMALL
bcc


@<TRIPOS>ATOM
      1 N1         -0.0380    0.0440   -0.0200 n         1 17E     -0.429100
      2 C2          1.3950   -0.0730   -0.0340 c         1 17E      0.822900
      3 O2          1.9850   -0.0990   -1.1180 o         1 17E     -0.493500
      4 N3          2.0780   -0.1550    1.2160 nc        1 17E     -0.615100
      5 C4          1.3550   -0.1190    2.3170 cd        1 17E      0.609500
      6 N4          2.0900   -0.2070    3.6080 n4        1 17E     -0.801600
      7 C5         -0.0810   -0.0030    2.3820 cd        1 17E     -0.374800
      8 C6         -0.7250    0.0760    1.1480 cc        1 17E      0.125600
      9 CM5        -0.8230    0.0310    3.6540 c3        1 17E     -0.055900
     10 H1          1.7450   -1.0280    4.1200 hn        1 17E      0.480467
     11 H2          1.8900    0.6420    4.1510 hn        1 17E      0.480467
     12 H4         -1.8320    0.1680    1.0920 h4        1 17E      0.201000
     13 H5         -0.6620   -0.9100    4.2400 hc        1 17E      0.062700
     14 H6         -1.9240    0.1270    3.4700 hc        1 17E      0.062700
     15 H7         -0.5110    0.9060    4.2800 hc        1 17E      0.062700
     16 H8         -0.5050    0.1010   -0.9050 hn        1 17E      0.380500
     17 H43         3.1070   -0.2920    3.4600 hn        1 17E      0.480467
@<TRIPOS>BOND
     1    1    2 1   
     2    1    8 1   
     3    1   16 1   
     4    2    3 2   
     5    2    4 1   
     6    4    5 2   
     7    5    6 1   
     8    5    7 1   
     9    6   10 1   
    10    6   11 1   
    11    6   17 1   
    12    7    8 2   
    13    7    9 1   
    14    8   12 1   
    15    9   13 1   
    16    9   14 1   
    17    9   15 1   
@<TRIPOS>SUBSTRUCTURE
     1 17E         1 TEMP              0 ****  ****    0 ROOT
