@<TRIPOS>MOLECULE
17E
   16    16     1     0     0
SMALL
bcc


@<TRIPOS>ATOM
      1 N1         -0.0350   -0.0070   -0.0160 n         1 17E     -0.476100
      2 C2          1.4030   -0.0060   -0.0410 c         1 17E      0.830900
      3 O2          1.9330   -0.0060   -1.1700 o         1 17E     -0.619500
      4 N3          2.1220    0.0010    1.1600 nc        1 17E     -0.723100
      5 C4          1.4460   -0.0130    2.3230 cd        1 17E      0.758500
      6 N4          2.1520   -0.0780    3.5050 nh        1 17E     -0.918800
      7 C5         -0.0250   -0.0000    2.3790 cd        1 17E     -0.371800
      8 C6         -0.6970   -0.0010    1.1770 cc        1 17E      0.062600
      9 CM5        -0.7510    0.0030    3.6620 c3        1 17E     -0.031900
     10 H1          1.6730    0.1220    4.3470 hn        1 17E      0.437800
     11 H2          3.1400    0.0090    3.4920 hn        1 17E      0.437800
     12 H4         -1.8030    0.0040    1.1380 h4        1 17E      0.152000
     13 H5         -1.8570    0.0020    3.4960 hc        1 17E      0.041033
     14 H6         -0.4920   -0.9030    4.2670 hc        1 17E      0.041033
     15 H7         -0.4950    0.9140    4.2610 hc        1 17E      0.041033
     16 H8         -0.5260   -0.0110   -0.8800 hn        1 17E      0.338500
@<TRIPOS>BOND
     1    1    2 1   
     2    1    8 1   
     3    1   16 1   
     4    2    3 2   
     5    2    4 1   
     6    4    5 2   
     7    5    6 1   
     8    5    7 1   
     9    6   10 1   
    10    6   11 1   
    11    7    8 2   
    12    7    9 1   
    13    8   12 1   
    14    9   13 1   
    15    9   14 1   
    16    9   15 1   
@<TRIPOS>SUBSTRUCTURE
     1 17E         1 TEMP              0 ****  ****    0 ROOT
