@<TRIPOS>MOLECULE
17E
   17    17     1     0     0
SMALL
bcc


@<TRIPOS>ATOM
      1 N1         -0.0560   -0.0130   -0.0550 ns        1 17E     -0.429100
      2 C2          1.3770    0.0600   -0.1520 c         1 17E      0.822900
      3 O2          1.9020    0.0830   -1.2690 o         1 17E     -0.493500
      4 N3          2.1340    0.1030    1.0560 nc        1 17E     -0.615100
      5 C4          1.4770    0.0730    2.1970 cd        1 17E      0.609500
      6 N4          2.2880    0.1180    3.4430 nz        1 17E     -0.801600
      7 C5          0.0440    0.0000    2.3460 cd        1 17E     -0.374800
      8 C6         -0.6740   -0.0400    1.1520 cc        1 17E      0.125600
      9 CM5        -0.6230   -0.0290    3.6590 c3        1 17E     -0.055900
     10 H1          2.0020    0.9430    3.9850 hn        1 17E      0.480467
     11 H2          3.2970    0.1720    3.2370 hn        1 17E      0.480467
     12 H4         -1.7840   -0.0970    1.1600 h4        1 17E      0.201000
     13 H5         -1.7360   -0.0870    3.5390 hc        1 17E      0.062700
     14 H6         -0.3980    0.8970    4.2470 hc        1 17E      0.062700
     15 H7         -0.3030   -0.9230    4.2540 hc        1 17E      0.062700
     16 H8         -0.5760   -0.0420   -0.9110 hn        1 17E      0.380500
     17 H43         2.0920   -0.7310    3.9870 hn        1 17E      0.480467
@<TRIPOS>BOND
     1    1    2 1   
     2    1    8 1   
     3    1   16 1   
     4    2    3 2   
     5    2    4 1   
     6    4    5 2   
     7    5    6 1   
     8    5    7 1   
     9    6   10 1   
    10    6   11 1   
    11    6   17 1   
    12    7    8 2   
    13    7    9 1   
    14    8   12 1   
    15    9   13 1   
    16    9   14 1   
    17    9   15 1   
@<TRIPOS>SUBSTRUCTURE
     1 17E         1 TEMP              0 ****  ****    0 ROOT
