@<TRIPOS>MOLECULE
17F
  130   125     1     0     0
SMALL
bcc


@<TRIPOS>ATOM
      1 C1          7.4360    6.6720   -5.6360 c3        1 17F      0.008000
      2 N1          7.6060    8.2020   -3.7970 n3        1 17F     -0.325000
      3 O1          7.4940    3.3590   -5.3580 o         1 17F     -1.155500
      4 P1          6.3400    4.3190   -5.5480 p3        1 17F      2.542000
      5 C2          8.3700    7.4410   -4.7210 c3        1 17F     -0.112000
      6 O2          6.0900    4.5180   -7.0230 o         1 17F     -1.155500
      7 C3          9.2310    8.3670   -5.5440 c2        1 17F      0.338000
      8 O3          6.6990    5.7230   -4.8750 os        1 17F     -0.765000
      9 C4          4.5670    2.4360   -5.2840 c3        1 17F      0.015000
     10 O4         10.4860    8.2530   -5.5150 o         1 17F     -0.600500
     11 C5          3.1400    2.2290   -4.8050 c3        1 17F     -0.003000
     12 O5          8.6990    9.2850   -6.2180 o         1 17F     -0.600500
     13 C6          2.6610    0.8490   -5.2190 c3        1 17F     -0.045000
     14 O6          5.0280    3.7170   -4.8620 o         1 17F     -0.734000
     15 C7          0.6850    0.0040   -6.2950 c1        1 17F      0.308000
     16 O7          1.7490    0.9700   -6.3140 os        1 17F     -0.269000
     17 C8          0.5160   -0.9800   -7.4700 c2        1 17F     -0.157000
     18 O8         -0.0920   -0.0240   -5.3640 o         1 17F     -0.382000
     19 C9         -0.9470   -1.4720   -7.5240 c3        1 17F     -0.163000
     20 O9          3.0940    2.3410   -3.3950 os        1 17F     -0.280000
     21 C10        -1.0020   -2.9650   -7.1370 c3        1 17F     -0.158000
     22 O10         1.5070    3.9770   -3.5240 o         1 17F     -0.399000
     23 C11        -2.3880   -3.5350   -7.4870 c3        1 17F     -0.166000
     24 C12        -2.9480   -4.2980   -6.2790 c3        1 17F     -0.156000
     25 C17         1.9510    3.0250   -2.9100 c2        1 17F      0.325000
     26 C18         1.3110    2.6020   -1.5870 c3        1 17F     -0.155000
     27 C19         1.1800    3.8250   -0.6670 c3        1 17F     -0.180000
     28 C20         0.1430    3.5310    0.4360 c3        1 17F     -0.132000
     29 C1X        -3.2620   -5.7500   -6.6870 c3        1 17F     -0.156000
     30 C1Y         0.3530    4.5050    1.6110 c3        1 17F     -0.192000
     31 C1Z        -0.7560    4.2830    2.6720 c3        1 17F     -0.137000
     32 C2X        -3.5220   -6.5930   -5.4260 c3        1 17F     -0.137000
     33 C21        -3.4710   -8.0770   -5.7850 c2        1 17F     -0.152000
     34 C22        -3.0250   -8.9910   -4.8630 c1        1 17F     -0.189000
     35 C23        -2.5780   -8.5240   -3.4780 c2        1 17F     -0.122500
     36 C24        -1.7410   -9.6220   -2.8160 c3        1 17F     -0.154500
     37 C25        -1.0220   -9.0490   -1.5950 c3        1 17F     -0.158500
     38 C26         0.2620   -9.8470   -1.3370 c3        1 17F     -0.157000
     39 C27         1.2340   -8.9980   -0.5070 c3        1 17F     -0.158000
     40 C28         2.6050   -9.6900   -0.4570 c3        1 17F     -0.157500
     41 C29         3.6910   -8.6470   -0.2040 c3        1 17F     -0.159500
     42 C30         5.0480   -9.3140   -0.2200 c3        1 17F     -0.209000
     43 C31        -0.2980    4.8670    4.0270 c3        1 17F     -0.180000
     44 C32        -1.3770    4.5840    5.1040 c3        1 17F     -0.125000
     45 C33        -0.7620    3.7570    6.2370 c2        1 17F     -0.122000
     46 C34        -1.3340    3.7760    7.4980 c1        1 17F     -0.240000
     47 C35        -2.5800    4.6230    7.7610 c2        1 17F     -0.122500
     48 C36        -2.7610    4.8160    9.2910 c3        1 17F     -0.154500
     49 C37        -4.2600    4.8050    9.6370 c3        1 17F     -0.158500
     50 C38        -4.4340    4.8330   11.1670 c3        1 17F     -0.157000
     51 C39        -5.9050    4.5760   11.5200 c3        1 17F     -0.158000
     52 C40        -6.0530    4.4550   13.0500 c3        1 17F     -0.157500
     53 C41        -7.4710    3.9900   13.3890 c3        1 17F     -0.159500
     54 C42        -7.6170    3.8650   14.8980 c3        1 17F     -0.209000
     55 H1          6.8170    7.2950   -6.0690 h1        1 17F      0.067500
     56 H1A         7.9620    6.2030   -6.3220 h1        1 17F      0.067500
     57 HN1         7.7970    9.0940   -3.9030 hn        1 17F      0.132500
     58 HN1A        7.8160    7.9440   -2.9410 hn        1 17F      0.132500
     59 H2          8.9390    6.8130   -4.2340 h1        1 17F      0.078000
     60 H4          4.5940    2.3860   -6.2590 h1        1 17F      0.103000
     61 H4A         5.1450    1.7380   -4.9040 h1        1 17F      0.103000
     62 H5          2.5630    2.9060   -5.2030 h1        1 17F      0.135000
     63 H6          2.2100    0.4210   -4.4650 h1        1 17F      0.146000
     64 H6A         3.4310    0.3030   -5.4930 h1        1 17F      0.146000
     65 H8          1.1130   -1.7450   -7.3440 ha        1 17F      0.099500
     66 H8A         0.7400   -0.5260   -8.3120 ha        1 17F      0.099500
     67 H9         -1.4890   -0.9530   -6.8980 hc        1 17F      0.103000
     68 H9A        -1.2970   -1.3570   -8.4340 hc        1 17F      0.103000
     69 H10        -0.3160   -3.4540   -7.6290 hc        1 17F      0.079500
     70 H10A       -0.8440   -3.0580   -6.1770 hc        1 17F      0.079500
     71 H11        -2.9930   -2.8010   -7.7180 hc        1 17F      0.094500
     72 H11A       -2.3070   -4.1440   -8.2480 hc        1 17F      0.094500
     73 H12        -2.2870   -4.2990   -5.5600 hc        1 17F      0.079500
     74 H12A       -3.7670   -3.8620   -5.9680 hc        1 17F      0.079500
     75 H18         1.8710    1.9270   -1.1540 hc        1 17F      0.094000
     76 H18A        0.4240    2.2280   -1.7590 hc        1 17F      0.094000
     77 H19         2.0470    4.0180   -0.2570 hc        1 17F      0.126000
     78 H19A        0.8880    4.5990   -1.1920 hc        1 17F      0.126000
     79 H20        -0.7580    3.6460    0.0750 hc        1 17F      0.054000
     80 H20A        0.2540    2.6140    0.7510 hc        1 17F      0.054000
     81 H29        -2.5010   -6.1230   -7.1780 hc        1 17F      0.077500
     82 H30        -4.0590   -5.7630   -7.2590 hc        1 17F      0.077500
     83 H31         0.3100    5.4260    1.2830 hc        1 17F      0.116000
     84 H32         1.2300    4.3440    2.0170 hc        1 17F      0.116000
     85 H33        -1.5780    4.7320    2.3840 hc        1 17F      0.058000
     86 H34        -0.9250    3.3250    2.7700 hc        1 17F      0.058000
     87 H35        -4.4040   -6.3740   -5.0640 hc        1 17F      0.088500
     88 H36        -2.8390   -6.3960   -4.7590 hc        1 17F      0.088500
     89 H37        -3.7570   -8.3750   -6.6690 ha        1 17F      0.119000
     90 H38        -2.9930   -9.9390   -5.0920 ha        1 17F      0.113000
     91 H39        -2.0410   -7.7130   -3.5660 ha        1 17F      0.079250
     92 H40        -3.3650   -8.3370   -2.9280 ha        1 17F      0.079250
     93 H41        -2.3280  -10.3550   -2.5350 hc        1 17F      0.077500
     94 H42        -1.0810   -9.9590   -3.4540 hc        1 17F      0.077500
     95 H43        -1.6070   -9.1100   -0.8130 hc        1 17F      0.078000
     96 H44        -0.7960   -8.1120   -1.7600 hc        1 17F      0.078000
     97 H45         0.6780  -10.0780   -2.1890 hc        1 17F      0.076750
     98 H46         0.0450  -10.6650   -0.8480 hc        1 17F      0.076750
     99 H47         1.3290   -8.1150   -0.9190 hc        1 17F      0.078000
    100 H48         0.8850   -8.8980    0.4020 hc        1 17F      0.078000
    101 H49         2.7770  -10.1400   -1.3120 hc        1 17F      0.077500
    102 H50         2.6120  -10.3500    0.2660 hc        1 17F      0.077500
    103 H51         3.6550   -7.9640   -0.9030 hc        1 17F      0.077500
    104 H52         3.5440   -8.2280    0.6680 hc        1 17F      0.077500
    105 H53         5.2870   -9.5900    0.6880 hc        1 17F      0.068667
    106 H54         5.0180  -10.1000   -0.8030 hc        1 17F      0.068667
    107 H55         5.7180   -8.6830   -0.5570 hc        1 17F      0.068667
    108 H56        -0.1710    5.8330    3.9380 hc        1 17F      0.110000
    109 H57         0.5450    4.4510    4.2930 hc        1 17F      0.110000
    110 H58        -2.1160    4.0880    4.7020 hc        1 17F      0.060000
    111 H59        -1.7100    5.4320    5.4620 hc        1 17F      0.060000
    112 H60         0.0330    3.2170    6.0710 ha        1 17F      0.208000
    113 H61        -0.9420    3.2500    8.2190 ha        1 17F      0.119000
    114 H62        -2.4770    5.4960    7.3330 ha        1 17F      0.079250
    115 H63        -3.3650    4.1710    7.3950 ha        1 17F      0.079250
    116 H64        -2.3090    4.0860    9.7680 hc        1 17F      0.077500
    117 H65        -2.3700    5.6720    9.5600 hc        1 17F      0.077500
    118 H66        -4.6910    5.5900    9.2450 hc        1 17F      0.078000
    119 H67        -4.6710    3.9960    9.2780 hc        1 17F      0.078000
    120 H68        -4.1640    5.7090   11.5090 hc        1 17F      0.076750
    121 H69        -3.8760    4.1400   11.5700 hc        1 17F      0.076750
    122 H70        -6.2010    3.7440   11.0960 hc        1 17F      0.078000
    123 H71        -6.4520    5.3200   11.1970 hc        1 17F      0.078000
    124 H72        -5.8880    5.3260   13.4640 hc        1 17F      0.077500
    125 H73        -5.4060    3.8040   13.3900 hc        1 17F      0.077500
    126 H74        -8.1170    4.6420   13.0520 hc        1 17F      0.077500
    127 H75        -7.6380    3.1220   12.9720 hc        1 17F      0.077500
    128 H76        -7.5350    4.7510   15.3090 hc        1 17F      0.068667
    129 H77        -8.4980    3.4850   15.1120 hc        1 17F      0.068667
    130 H78        -6.9150    3.2770   15.2470 hc        1 17F      0.068667
@<TRIPOS>BOND
     1    1    5 1   
     2    1    8 1   
     3    1   55 1   
     4    1   56 1   
     5    2    5 1   
     6    2   57 1   
     7    2   58 1   
     8    3    4 1   
     9    4    6 1   
    10    4    8 1   
    11    5    7 1   
    12    5   59 1   
    13    7   10 1   
    14    7   12 1   
    15    9   11 1   
    16    9   14 1   
    17    9   60 1   
    18    9   61 1   
    19   11   13 1   
    20   11   20 1   
    21   11   62 1   
    22   13   16 1   
    23   13   63 1   
    24   13   64 1   
    25   15   16 1   
    26   15   18 1   
    27   17   19 1   
    28   17   65 1   
    29   17   66 1   
    30   19   21 1   
    31   19   67 1   
    32   19   68 1   
    33   20   25 1   
    34   21   23 1   
    35   21   69 1   
    36   21   70 1   
    37   22   25 1   
    38   23   24 1   
    39   23   71 1   
    40   23   72 1   
    41   24   29 1   
    42   24   73 1   
    43   24   74 1   
    44   25   26 1   
    45   26   27 1   
    46   26   75 1   
    47   26   76 1   
    48   27   28 1   
    49   27   77 1   
    50   27   78 1   
    51   28   30 1   
    52   28   79 1   
    53   28   80 1   
    54   29   32 1   
    55   29   81 1   
    56   29   82 1   
    57   30   31 1   
    58   30   83 1   
    59   30   84 1   
    60   31   43 1   
    61   31   85 1   
    62   31   86 1   
    63   32   33 1   
    64   32   87 1   
    65   32   88 1   
    66   33   34 1   
    67   33   89 1   
    68   34   90 1   
    69   35   36 1   
    70   35   91 1   
    71   35   92 1   
    72   36   37 1   
    73   36   93 1   
    74   36   94 1   
    75   37   38 1   
    76   37   95 1   
    77   37   96 1   
    78   38   39 1   
    79   38   97 1   
    80   38   98 1   
    81   39   40 1   
    82   39   99 1   
    83   39  100 1   
    84   40   41 1   
    85   40  101 1   
    86   40  102 1   
    87   41   42 1   
    88   41  103 1   
    89   41  104 1   
    90   42  105 1   
    91   42  106 1   
    92   42  107 1   
    93   43   44 1   
    94   43  108 1   
    95   43  109 1   
    96   44   45 1   
    97   44  110 1   
    98   44  111 1   
    99   45   46 1   
   100   45  112 1   
   101   46  113 1   
   102   47   48 1   
   103   47  114 1   
   104   47  115 1   
   105   48   49 1   
   106   48  116 1   
   107   48  117 1   
   108   49   50 1   
   109   49  118 1   
   110   49  119 1   
   111   50   51 1   
   112   50  120 1   
   113   50  121 1   
   114   51   52 1   
   115   51  122 1   
   116   51  123 1   
   117   52   53 1   
   118   52  124 1   
   119   52  125 1   
   120   53   54 1   
   121   53  126 1   
   122   53  127 1   
   123   54  128 1   
   124   54  129 1   
   125   54  130 1   
@<TRIPOS>SUBSTRUCTURE
     1 17F         1 TEMP              0 ****  ****    0 ROOT
