@<TRIPOS>MOLECULE
17F
  130   129     1     0     0
SMALL
bcc


@<TRIPOS>ATOM
      1 C1         -4.1250    3.3160   -0.8270 c3        1 17F      0.166400
      2 N1         -3.3110    1.4190   -2.3020 n3        1 17F     -0.914800
      3 O1         -2.9810    6.2240   -0.9800 o         1 17F     -0.835000
      4 P1         -2.1640    5.0030   -1.0920 p5        1 17F      1.431800
      5 C2         -4.1020    1.8040   -1.1510 c3        1 17F      0.028500
      6 O2         -1.5740    4.4790   -2.3410 o         1 17F     -0.835000
      7 C3         -5.5860    1.3370   -1.2500 c         1 17F      0.915600
      8 O3         -2.8870    3.7410   -0.3220 os        1 17F     -0.610200
      9 C4         -0.0080    4.1020   -0.0950 c3        1 17F      0.180400
     10 O4         -6.1670    1.3350   -2.3720 o         1 17F     -0.862800
     11 C5          1.0090    4.2600    1.0460 c3        1 17F      0.133100
     12 O5         -6.1550    0.9790   -0.1740 o         1 17F     -0.862800
     13 C6          0.3980    4.0370    2.4280 c3        1 17F      0.128400
     14 O6         -0.9060    5.1650   -0.0170 os        1 17F     -0.563200
     15 C7         -1.5870    2.8320    3.0130 c         1 17F      0.659100
     16 O7         -0.3570    2.8240    2.3950 os        1 17F     -0.450900
     17 C8         -2.5310    1.8560    2.3970 c3        1 17F     -0.153400
     18 O8         -1.7400    3.6070    3.9610 o         1 17F     -0.576000
     19 C9         -3.6770    1.4980    3.3170 c3        1 17F     -0.061400
     20 O9          2.0200    3.2600    0.7770 os        1 17F     -0.415900
     21 C10        -4.6250    0.5480    2.6190 c3        1 17F     -0.111400
     22 O10         3.5090    4.4090    2.0150 o         1 17F     -0.578000
     23 C11        -5.8670    0.2890    3.4430 c3        1 17F     -0.054400
     24 C12        -6.8600   -0.5280    2.6430 c3        1 17F     -0.104400
     25 C17         3.2490    3.4180    1.3230 c         1 17F      0.634100
     26 C18         4.1650    2.2760    0.9860 c3        1 17F     -0.134400
     27 C19         5.5990    2.7410    0.8700 c3        1 17F     -0.077400
     28 C20         6.5320    1.5670    0.6630 c3        1 17F     -0.078400
     29 C1X        -8.1770   -0.6770    3.3720 c3        1 17F     -0.066400
     30 C1Y         7.9680    2.0280    0.5310 c3        1 17F     -0.078400
     31 C1Z         8.9040    0.8560    0.3260 c3        1 17F     -0.079400
     32 C2X        -9.1870   -1.4050    2.5090 c3        1 17F     -0.061200
     33 C21       -10.4840   -1.6080    3.1920 c2        1 17F     -0.145200
     34 C22       -11.5420   -2.2000    2.6250 c2        1 17F     -0.208200
     35 C23       -11.5370   -2.7180    1.2370 c3        1 17F     -0.047200
     36 C24       -12.8770   -3.2990    0.8340 c3        1 17F     -0.072400
     37 C25       -12.8420   -3.8120   -0.5900 c3        1 17F     -0.082400
     38 C26       -14.1790   -4.3910   -1.0000 c3        1 17F     -0.076400
     39 C27       -14.1430   -4.9010   -2.4240 c3        1 17F     -0.081400
     40 C28       -15.4790   -5.4800   -2.8370 c3        1 17F     -0.077400
     41 C29       -15.4430   -5.9900   -4.2610 c3        1 17F     -0.081400
     42 C30       -16.7710   -6.5670   -4.6780 c3        1 17F     -0.090100
     43 C31        10.3410    1.3150    0.1980 c3        1 17F     -0.077400
     44 C32        11.2740    0.1400   -0.0100 c3        1 17F     -0.052200
     45 C33        12.6890    0.5580   -0.1340 c2        1 17F     -0.163200
     46 C34        13.7030   -0.2950   -0.3190 c2        1 17F     -0.186200
     47 C35        13.5330   -1.7630   -0.4220 c3        1 17F     -0.047200
     48 C36        14.8500   -2.4810   -0.6300 c3        1 17F     -0.076400
     49 C37        14.6460   -3.9780   -0.7330 c3        1 17F     -0.080400
     50 C38        15.9600   -4.6990   -0.9400 c3        1 17F     -0.078400
     51 C39        15.7560   -6.1950   -1.0430 c3        1 17F     -0.079400
     52 C40        17.0700   -6.9170   -1.2500 c3        1 17F     -0.078400
     53 C41        16.8660   -8.4140   -1.3540 c3        1 17F     -0.080400
     54 C42        18.1720   -9.1370   -1.5600 c3        1 17F     -0.092100
     55 H1         -4.3930    3.9180   -1.7370 h1        1 17F      0.026200
     56 H1A        -4.9040    3.4800   -0.0290 h1        1 17F      0.026200
     57 HN1        -3.8930    1.4420   -3.1210 hn        1 17F      0.347800
     58 HN1A       -2.5530    2.0620   -2.4360 hn        1 17F      0.347800
     59 H2         -3.6410    1.2840   -0.2600 h1        1 17F      0.039700
     60 H4          0.5170    4.1250   -1.0880 h1        1 17F      0.053700
     61 H4A        -0.5610    3.1280    0.0090 h1        1 17F      0.053700
     62 H5          1.4790    5.2800    1.0260 h1        1 17F      0.072700
     63 H6          1.1980    3.9140    3.2020 h1        1 17F      0.061700
     64 H6A        -0.2630    4.9100    2.6750 h1        1 17F      0.061700
     65 H8         -2.9230    2.3480    1.4500 hc        1 17F      0.115200
     66 H8A        -1.9710    0.9380    2.0800 hc        1 17F      0.115200
     67 H9         -3.2830    1.0340    4.2590 hc        1 17F      0.030700
     68 H9A        -4.2190    2.4350    3.6130 hc        1 17F      0.030700
     69 H10        -4.9320    0.9720    1.6130 hc        1 17F      0.081700
     70 H10A       -4.1010   -0.4220    2.4150 hc        1 17F      0.081700
     71 H11        -5.6020   -0.2440    4.3930 hc        1 17F      0.013700
     72 H11A       -6.3350    1.2680    3.7310 hc        1 17F      0.013700
     73 H12        -7.0190   -0.0290    1.6420 hc        1 17F      0.078200
     74 H12A       -6.4290   -1.5420    2.4370 hc        1 17F      0.078200
     75 H18         4.0630    1.5140    1.8040 hc        1 17F      0.075700
     76 H18A        3.8240    1.7960    0.0300 hc        1 17F      0.075700
     77 H19         5.6920    3.4560    0.0100 hc        1 17F      0.053700
     78 H19A        5.8850    3.3030    1.7980 hc        1 17F      0.053700
     79 H20         6.4430    0.8580    1.5280 hc        1 17F      0.039200
     80 H20A        6.2310    1.0040   -0.2590 hc        1 17F      0.039200
     81 H29        -8.0250   -1.2360    4.3320 hc        1 17F      0.022200
     82 H30        -8.5770    0.3370    3.6390 hc        1 17F      0.022200
     83 H31         8.0570    2.7370   -0.3340 hc        1 17F      0.040700
     84 H32         8.2680    2.5920    1.4530 hc        1 17F      0.040700
     85 H33         8.8110    0.1450    1.1890 hc        1 17F      0.039200
     86 H34         8.6040    0.2940   -0.5980 hc        1 17F      0.039200
     87 H35        -9.3470   -0.8220    1.5580 hc        1 17F      0.062200
     88 H36        -8.7680   -2.4030    2.2010 hc        1 17F      0.062200
     89 H37       -10.5480   -1.2340    4.2280 ha        1 17F      0.111000
     90 H38       -12.4830   -2.3200    3.1830 ha        1 17F      0.103000
     91 H39       -11.2580   -1.8880    0.5290 hc        1 17F      0.055700
     92 H40       -10.7390   -3.5040    1.1340 hc        1 17F      0.055700
     93 H41       -13.1500   -4.1360    1.5300 hc        1 17F      0.031200
     94 H42       -13.6720   -2.5140    0.9320 hc        1 17F      0.031200
     95 H43       -12.5650   -2.9740   -1.2830 hc        1 17F      0.046700
     96 H44       -12.0460   -4.5960   -0.6870 hc        1 17F      0.046700
     97 H45       -14.4550   -5.2290   -0.3060 hc        1 17F      0.033200
     98 H46       -14.9740   -3.6060   -0.9020 hc        1 17F      0.033200
     99 H47       -13.8660   -4.0620   -3.1160 hc        1 17F      0.043700
    100 H48       -13.3460   -5.6860   -2.5220 hc        1 17F      0.043700
    101 H49       -15.7560   -6.3190   -2.1450 hc        1 17F      0.035200
    102 H50       -16.2750   -4.6950   -2.7390 hc        1 17F      0.035200
    103 H51       -15.1640   -5.1500   -4.9510 hc        1 17F      0.040700
    104 H52       -14.6450   -6.7730   -4.3570 hc        1 17F      0.040700
    105 H53       -17.0540   -7.4220   -4.0170 hc        1 17F      0.028033
    106 H54       -17.5740   -5.7940   -4.6130 hc        1 17F      0.028033
    107 H55       -16.7210   -6.9370   -5.7310 hc        1 17F      0.028033
    108 H56        10.4330    2.0260   -0.6640 hc        1 17F      0.040700
    109 H57        10.6400    1.8750    1.1230 hc        1 17F      0.040700
    110 H58        11.1710   -0.5790    0.8500 hc        1 17F      0.048200
    111 H59        10.9690   -0.4230   -0.9350 hc        1 17F      0.048200
    112 H60        12.8800    1.6420   -0.0650 ha        1 17F      0.122000
    113 H61        14.7360    0.0790   -0.4040 ha        1 17F      0.117000
    114 H62        13.0370   -2.1480    0.5110 hc        1 17F      0.048700
    115 H63        12.8380   -1.9980   -1.2750 hc        1 17F      0.048700
    116 H64        15.3420   -2.1030   -1.5650 hc        1 17F      0.038700
    117 H65        15.5410   -2.2540    0.2240 hc        1 17F      0.038700
    118 H66        14.1520   -4.3550    0.2020 hc        1 17F      0.041200
    119 H67        13.9530   -4.2050   -1.5860 hc        1 17F      0.041200
    120 H68        16.4530   -4.3210   -1.8740 hc        1 17F      0.037700
    121 H69        16.6520   -4.4720   -0.0860 hc        1 17F      0.037700
    122 H70        15.2620   -6.5720   -0.1090 hc        1 17F      0.040700
    123 H71        15.0630   -6.4220   -1.8970 hc        1 17F      0.040700
    124 H72        17.5630   -6.5400   -2.1840 hc        1 17F      0.037700
    125 H73        17.7620   -6.6910   -0.3970 hc        1 17F      0.037700
    126 H74        16.3710   -8.7890   -0.4190 hc        1 17F      0.039200
    127 H75        16.1720   -8.6370   -2.2070 hc        1 17F      0.039200
    128 H76        18.6690   -8.7940   -2.5000 hc        1 17F      0.030700
    129 H77        18.8670   -8.9450   -0.7070 hc        1 17F      0.030700
    130 H78        17.9990  -10.2380   -1.6340 hc        1 17F      0.030700
@<TRIPOS>BOND
     1    1    5 1   
     2    1    8 1   
     3    1   55 1   
     4    1   56 1   
     5    2    5 1   
     6    2   57 1   
     7    2   58 1   
     8    3    4 1   
     9    4    6 1   
    10    4    8 1   
    11    4   14 1   
    12    5    7 1   
    13    5   59 1   
    14    7   10 1   
    15    7   12 1   
    16    9   11 1   
    17    9   14 1   
    18    9   60 1   
    19    9   61 1   
    20   11   13 1   
    21   11   20 1   
    22   11   62 1   
    23   13   16 1   
    24   13   63 1   
    25   13   64 1   
    26   15   16 1   
    27   15   17 1   
    28   15   18 2   
    29   17   19 1   
    30   17   65 1   
    31   17   66 1   
    32   19   21 1   
    33   19   67 1   
    34   19   68 1   
    35   20   25 1   
    36   21   23 1   
    37   21   69 1   
    38   21   70 1   
    39   22   25 2   
    40   23   24 1   
    41   23   71 1   
    42   23   72 1   
    43   24   29 1   
    44   24   73 1   
    45   24   74 1   
    46   25   26 1   
    47   26   27 1   
    48   26   75 1   
    49   26   76 1   
    50   27   28 1   
    51   27   77 1   
    52   27   78 1   
    53   28   30 1   
    54   28   79 1   
    55   28   80 1   
    56   29   32 1   
    57   29   81 1   
    58   29   82 1   
    59   30   31 1   
    60   30   83 1   
    61   30   84 1   
    62   31   43 1   
    63   31   85 1   
    64   31   86 1   
    65   32   33 1   
    66   32   87 1   
    67   32   88 1   
    68   33   34 2   
    69   33   89 1   
    70   34   35 1   
    71   34   90 1   
    72   35   36 1   
    73   35   91 1   
    74   35   92 1   
    75   36   37 1   
    76   36   93 1   
    77   36   94 1   
    78   37   38 1   
    79   37   95 1   
    80   37   96 1   
    81   38   39 1   
    82   38   97 1   
    83   38   98 1   
    84   39   40 1   
    85   39   99 1   
    86   39  100 1   
    87   40   41 1   
    88   40  101 1   
    89   40  102 1   
    90   41   42 1   
    91   41  103 1   
    92   41  104 1   
    93   42  105 1   
    94   42  106 1   
    95   42  107 1   
    96   43   44 1   
    97   43  108 1   
    98   43  109 1   
    99   44   45 1   
   100   44  110 1   
   101   44  111 1   
   102   45   46 2   
   103   45  112 1   
   104   46   47 1   
   105   46  113 1   
   106   47   48 1   
   107   47  114 1   
   108   47  115 1   
   109   48   49 1   
   110   48  116 1   
   111   48  117 1   
   112   49   50 1   
   113   49  118 1   
   114   49  119 1   
   115   50   51 1   
   116   50  120 1   
   117   50  121 1   
   118   51   52 1   
   119   51  122 1   
   120   51  123 1   
   121   52   53 1   
   122   52  124 1   
   123   52  125 1   
   124   53   54 1   
   125   53  126 1   
   126   53  127 1   
   127   54  128 1   
   128   54  129 1   
   129   54  130 1   
@<TRIPOS>SUBSTRUCTURE
     1 17F         1 TEMP              0 ****  ****    0 ROOT
