@<TRIPOS>MOLECULE
17G
   47    51     1     0     0
SMALL
bcc


@<TRIPOS>ATOM
      1 O5         -3.0620    2.4070    2.4110 o         1 17G     -0.607500
      2 C27        -3.3770    1.5110    1.6090 c         1 17G      0.699700
      3 N8         -2.3480    0.7820    0.9360 n         1 17G     -0.270200
      4 C19        -1.0620    1.3990    0.8640 ca        1 17G      0.021600
      5 C21        -0.3580    1.7180    2.0450 ca        1 17G     -0.075000
      6 C18         0.8770    2.3580    1.9680 ca        1 17G     -0.128000
      7 C15         1.4310    2.6910    0.7340 ca        1 17G     -0.078000
      8 C20        -0.5120    1.7550   -0.3850 ca        1 17G     -0.086000
      9 C16         0.7290    2.3870   -0.4350 ca        1 17G     -0.168300
     10 C24         1.3310    2.7460   -1.7890 c3        1 17G      0.688200
     11 F3          0.4100    3.0050   -2.7750 f         1 17G     -0.234633
     12 F2          2.1350    3.8590   -1.7780 f         1 17G     -0.234633
     13 F1          2.1270    1.7620   -2.3240 f         1 17G     -0.234633
     14 C32        -4.7670    1.1650    1.2970 cc        1 17G     -0.243200
     15 C31        -5.0580    0.1670    0.4370 cd        1 17G     -0.013200
     16 C26        -4.0050   -0.6230   -0.1320 ca        1 17G     -0.276100
     17 C34        -4.3090   -1.7020   -1.0250 ca        1 17G      0.457200
     18 N9         -3.4160   -2.4990   -1.5620 nb        1 17G     -0.669000
     19 C23        -2.6560   -0.3540    0.1820 ca        1 17G      0.149600
     20 C25        -1.6640   -1.3110   -0.2770 ca        1 17G     -0.162300
     21 C30        -0.3230   -1.3280    0.1720 ca        1 17G     -0.104000
     22 C33         0.5960   -2.2430   -0.3140 cp        1 17G     -0.015000
     23 C36         0.1840   -3.1960   -1.2790 ca        1 17G     -0.103000
     24 C35        -1.1220   -3.2470   -1.6970 ca        1 17G     -0.171300
     25 C29        -2.0920   -2.3330   -1.1820 ca        1 17G      0.415600
     26 C37         1.9720   -2.2440    0.1610 cp        1 17G     -0.215300
     27 C39         2.6660   -1.0340    0.3870 ca        1 17G      0.454200
     28 C38         2.6650   -3.4370    0.4110 ca        1 17G     -0.042000
     29 C40         3.9730   -3.3930    0.8720 ca        1 17G     -0.305300
     30 C41         4.5920   -2.1230    1.0920 ca        1 17G      0.641200
     31 N10         3.9260   -0.9480    0.8270 nb        1 17G     -0.724000
     32 N43         5.8710   -2.0700    1.6530 nh        1 17G     -0.929500
     33 H1         -0.7970    1.4870    3.0300 ha        1 17G      0.166000
     34 H2          1.4190    2.6050    2.8950 ha        1 17G      0.153000
     35 H3          2.4080    3.1970    0.6740 ha        1 17G      0.159000
     36 H4         -1.0500    1.5350   -1.3230 ha        1 17G      0.163000
     37 H5         -5.5260    1.7860    1.7930 ha        1 17G      0.171000
     38 H6         -6.0980   -0.0790    0.1660 ha        1 17G      0.147000
     39 H7         -5.3650   -1.8790   -1.3040 h4        1 17G      0.028100
     40 H8          0.0080   -0.6250    0.9540 ha        1 17G      0.148000
     41 H9          0.9260   -3.9000   -1.6870 ha        1 17G      0.142000
     42 H10        -1.4440   -4.0040   -2.4310 ha        1 17G      0.156000
     43 H11         2.1780   -0.0600    0.1810 h4        1 17G      0.025100
     44 H12         2.1710   -4.4070    0.2480 ha        1 17G      0.140000
     45 H13         4.5210   -4.3230    1.0780 ha        1 17G      0.144000
     46 H14         6.4430   -2.8560    1.4510 hn        1 17G      0.410300
     47 H15         6.3390   -1.1920    1.6170 hn        1 17G      0.410300
@<TRIPOS>BOND
     1    1    2 2   
     2    2    3 1   
     3    2   14 1   
     4    3    4 1   
     5    3   19 1   
     6    4    5 ar  
     7    4    8 ar  
     8    5    6 ar  
     9    5   33 1   
    10    6    7 ar  
    11    6   34 1   
    12    7    9 ar  
    13    7   35 1   
    14    8    9 ar  
    15    8   36 1   
    16    9   10 1   
    17   10   11 1   
    18   10   12 1   
    19   10   13 1   
    20   14   15 2   
    21   14   37 1   
    22   15   16 1   
    23   15   38 1   
    24   16   17 ar  
    25   16   19 ar  
    26   17   18 ar  
    27   17   39 1   
    28   18   25 ar  
    29   19   20 ar  
    30   20   21 ar  
    31   20   25 ar  
    32   21   22 ar  
    33   21   40 1   
    34   22   23 ar  
    35   22   26 1   
    36   23   24 ar  
    37   23   41 1   
    38   24   25 ar  
    39   24   42 1   
    40   26   27 ar  
    41   26   28 ar  
    42   27   31 ar  
    43   27   43 1   
    44   28   29 ar  
    45   28   44 1   
    46   29   30 ar  
    47   29   45 1   
    48   30   31 ar  
    49   30   32 1   
    50   32   46 1   
    51   32   47 1   
@<TRIPOS>SUBSTRUCTURE
     1 17G         1 TEMP              0 ****  ****    0 ROOT
