@<TRIPOS>MOLECULE
17G
   47    51     1     0     0
SMALL
bcc


@<TRIPOS>ATOM
      1 O5          0.1640    1.4590    0.1580 o         1 17G     -0.603500
      2 C27         1.3160    0.9970    0.0940 c         1 17G      0.698700
      3 N8          1.9220    0.4610    1.2730 n         1 17G     -0.270200
      4 C19         1.0460    0.0600    2.3260 ca        1 17G      0.021600
      5 C21         0.9920   -1.2880    2.7400 ca        1 17G     -0.101000
      6 C18         0.1030   -1.6790    3.7370 ca        1 17G     -0.128000
      7 C15        -0.7520   -0.7510    4.3300 ca        1 17G     -0.078000
      8 C20         0.1760    0.9990    2.9200 ca        1 17G     -0.059000
      9 C16        -0.7090    0.5810    3.9130 ca        1 17G     -0.162300
     10 C24        -1.6640    1.5910    4.5420 c3        1 17G      0.689200
     11 F3         -1.2170    2.8890    4.5280 f         1 17G     -0.234633
     12 F2         -2.8970    1.6510    3.9380 f         1 17G     -0.234633
     13 F1         -1.9520    1.3480    5.8640 f         1 17G     -0.234633
     14 C32         2.0950    0.9530   -1.1480 cc        1 17G     -0.241200
     15 C31         3.3470    0.4520   -1.1660 cd        1 17G     -0.014200
     16 C26         3.9680    0.0240    0.0530 ca        1 17G     -0.276100
     17 C34         5.3060   -0.4920    0.0470 ca        1 17G      0.457200
     18 N9          5.9630   -0.8740    1.1170 nb        1 17G     -0.670000
     19 C23         3.2740    0.1070    1.2780 ca        1 17G      0.148600
     20 C25         4.0340   -0.1520    2.4900 ca        1 17G     -0.164300
     21 C30         3.5670    0.1590    3.7880 ca        1 17G     -0.103000
     22 C33         4.3130   -0.1340    4.9170 cp        1 17G     -0.016000
     23 C36         5.5770   -0.7590    4.7720 ca        1 17G     -0.103000
     24 C35         6.0890   -1.0210    3.5260 ca        1 17G     -0.172300
     25 C29         5.3510   -0.6900    2.3490 ca        1 17G      0.414600
     26 C37         3.8230    0.2020    6.2460 cp        1 17G     -0.219300
     27 C39         3.1670    1.4300    6.4930 ca        1 17G      0.455200
     28 C38         3.9790   -0.6710    7.3330 ca        1 17G     -0.044000
     29 C40         3.4970   -0.3130    8.5830 ca        1 17G     -0.307300
     30 C41         2.8570    0.9560    8.7460 ca        1 17G      0.644200
     31 N10         2.6890    1.8130    7.6810 nb        1 17G     -0.720000
     32 N43         2.4580    1.3670   10.0190 nh        1 17G     -0.930500
     33 H1          1.6580   -2.0370    2.2810 ha        1 17G      0.151000
     34 H2          0.0720   -2.7320    4.0560 ha        1 17G      0.147000
     35 H3         -1.4550   -1.0590    5.1190 ha        1 17G      0.155000
     36 H4          0.1720    2.0510    2.5860 ha        1 17G      0.177000
     37 H5          1.5740    1.3300   -2.0400 ha        1 17G      0.171000
     38 H6          3.9280    0.3780   -2.1000 ha        1 17G      0.148000
     39 H7          5.8290   -0.5990   -0.9230 h4        1 17G      0.028100
     40 H8          2.5980    0.6680    3.9190 ha        1 17G      0.148000
     41 H9          6.1560   -1.0090    5.6750 ha        1 17G      0.143000
     42 H10         7.0870   -1.4750    3.4170 ha        1 17G      0.156000
     43 H11         3.0190    2.1600    5.6740 h4        1 17G      0.026100
     44 H12         4.4780   -1.6430    7.1930 ha        1 17G      0.138000
     45 H13         3.6150   -0.9900    9.4390 ha        1 17G      0.143000
     46 H14         2.2250    0.6280   10.6400 hn        1 17G      0.412300
     47 H15         1.8630    2.1630   10.0680 hn        1 17G      0.412300
@<TRIPOS>BOND
     1    1    2 2   
     2    2    3 1   
     3    2   14 1   
     4    3    4 1   
     5    3   19 1   
     6    4    5 ar  
     7    4    8 ar  
     8    5    6 ar  
     9    5   33 1   
    10    6    7 ar  
    11    6   34 1   
    12    7    9 ar  
    13    7   35 1   
    14    8    9 ar  
    15    8   36 1   
    16    9   10 1   
    17   10   11 1   
    18   10   12 1   
    19   10   13 1   
    20   14   15 2   
    21   14   37 1   
    22   15   16 1   
    23   15   38 1   
    24   16   17 ar  
    25   16   19 ar  
    26   17   18 ar  
    27   17   39 1   
    28   18   25 ar  
    29   19   20 ar  
    30   20   21 ar  
    31   20   25 ar  
    32   21   22 ar  
    33   21   40 1   
    34   22   23 ar  
    35   22   26 1   
    36   23   24 ar  
    37   23   41 1   
    38   24   25 ar  
    39   24   42 1   
    40   26   27 ar  
    41   26   28 ar  
    42   27   31 ar  
    43   27   43 1   
    44   28   29 ar  
    45   28   44 1   
    46   29   30 ar  
    47   29   45 1   
    48   30   31 ar  
    49   30   32 1   
    50   32   46 1   
    51   32   47 1   
@<TRIPOS>SUBSTRUCTURE
     1 17G         1 TEMP              0 ****  ****    0 ROOT
