@<TRIPOS>MOLECULE
17G
   47    51     1     0     0
SMALL
bcc


@<TRIPOS>ATOM
      1 O5          0.1750    1.4660    0.1540 o         1 17G     -0.603500
      2 C27         1.3270    1.0030    0.0920 c         1 17G      0.698700
      3 N8          1.9290    0.4650    1.2720 n         1 17G     -0.270200
      4 C19         1.0500    0.0630    2.3220 ca        1 17G      0.021600
      5 C21         0.9940   -1.2860    2.7340 ca        1 17G     -0.101000
      6 C18         0.1020   -1.6770    3.7280 ca        1 17G     -0.128000
      7 C15        -0.7530   -0.7500    4.3190 ca        1 17G     -0.078000
      8 C20         0.1790    1.0020    2.9150 ca        1 17G     -0.059000
      9 C16        -0.7090    0.5820    3.9050 ca        1 17G     -0.162300
     10 C24        -1.6650    1.5920    4.5320 c3        1 17G      0.689200
     11 F3         -1.2180    2.8900    4.5210 f         1 17G     -0.234633
     12 F2         -2.8960    1.6530    3.9270 f         1 17G     -0.234633
     13 F1         -1.9560    1.3490    5.8540 f         1 17G     -0.234633
     14 C32         2.1090    0.9600   -1.1470 cc        1 17G     -0.241200
     15 C31         3.3610    0.4580   -1.1630 cd        1 17G     -0.014200
     16 C26         3.9780    0.0270    0.0570 ca        1 17G     -0.276100
     17 C34         5.3160   -0.4900    0.0540 ca        1 17G      0.457200
     18 N9          5.9690   -0.8740    1.1250 nb        1 17G     -0.670000
     19 C23         3.2810    0.1100    1.2810 ca        1 17G      0.148600
     20 C25         4.0370   -0.1510    2.4940 ca        1 17G     -0.164300
     21 C30         3.5670    0.1590    3.7910 ca        1 17G     -0.103000
     22 C33         4.3100   -0.1370    4.9220 cp        1 17G     -0.016000
     23 C36         5.5730   -0.7630    4.7800 ca        1 17G     -0.103000
     24 C35         6.0880   -1.0240    3.5350 ca        1 17G     -0.172300
     25 C29         5.3550   -0.6910    2.3550 ca        1 17G      0.414600
     26 C37         3.8160    0.1980    6.2500 cp        1 17G     -0.219300
     27 C39         3.1620    1.4260    6.4960 ca        1 17G      0.455200
     28 C38         3.9690   -0.6760    7.3360 ca        1 17G     -0.044000
     29 C40         3.4840   -0.3190    8.5850 ca        1 17G     -0.307300
     30 C41         2.8450    0.9510    8.7480 ca        1 17G      0.644200
     31 N10         2.6810    1.8090    7.6840 nb        1 17G     -0.720000
     32 N43         2.4430    1.3610   10.0200 nv        1 17G     -0.930500
     33 H1          1.6610   -2.0340    2.2760 ha        1 17G      0.151000
     34 H2          0.0700   -2.7310    4.0450 ha        1 17G      0.147000
     35 H3         -1.4590   -1.0590    5.1070 ha        1 17G      0.155000
     36 H4          0.1770    2.0540    2.5830 ha        1 17G      0.177000
     37 H5          1.5910    1.3390   -2.0400 ha        1 17G      0.171000
     38 H6          3.9450    0.3850   -2.0960 ha        1 17G      0.148000
     39 H7          5.8420   -0.5960   -0.9140 h4        1 17G      0.028100
     40 H8          2.5990    0.6680    3.9200 ha        1 17G      0.148000
     41 H9          6.1500   -1.0150    5.6840 ha        1 17G      0.143000
     42 H10         7.0870   -1.4800    3.4280 ha        1 17G      0.156000
     43 H11         3.0170    2.1570    5.6780 h4        1 17G      0.026100
     44 H12         4.4660   -1.6490    7.1960 ha        1 17G      0.138000
     45 H13         3.5990   -0.9970    9.4410 ha        1 17G      0.143000
     46 H14         1.8490    2.1580   10.0690 hn        1 17G      0.412300
     47 H15         2.2080    0.6220   10.6400 hn        1 17G      0.412300
@<TRIPOS>BOND
     1    1    2 2   
     2    2    3 1   
     3    2   14 1   
     4    3    4 1   
     5    3   19 1   
     6    4    5 ar  
     7    4    8 ar  
     8    5    6 ar  
     9    5   33 1   
    10    6    7 ar  
    11    6   34 1   
    12    7    9 ar  
    13    7   35 1   
    14    8    9 ar  
    15    8   36 1   
    16    9   10 1   
    17   10   11 1   
    18   10   12 1   
    19   10   13 1   
    20   14   15 2   
    21   14   37 1   
    22   15   16 1   
    23   15   38 1   
    24   16   17 ar  
    25   16   19 ar  
    26   17   18 ar  
    27   17   39 1   
    28   18   25 ar  
    29   19   20 ar  
    30   20   21 ar  
    31   20   25 ar  
    32   21   22 ar  
    33   21   40 1   
    34   22   23 ar  
    35   22   26 1   
    36   23   24 ar  
    37   23   41 1   
    38   24   25 ar  
    39   24   42 1   
    40   26   27 ar  
    41   26   28 ar  
    42   27   31 ar  
    43   27   43 1   
    44   28   29 ar  
    45   28   44 1   
    46   29   30 ar  
    47   29   45 1   
    48   30   31 ar  
    49   30   32 1   
    50   32   46 1   
    51   32   47 1   
@<TRIPOS>SUBSTRUCTURE
     1 17G         1 TEMP              0 ****  ****    0 ROOT
