@<TRIPOS>MOLECULE
17G
   48    52     1     0     0
SMALL
bcc


@<TRIPOS>ATOM
      1 O5          0.2150    1.5900    0.1920 o         1 17G     -0.578500
      2 C27         1.3500    1.1010    0.1050 c         1 17G      0.698700
      3 N8          1.9350    0.5030    1.2690 n         1 17G     -0.283200
      4 C19         1.0400    0.0210    2.2720 ca        1 17G      0.019600
      5 C21         0.8640   -1.3660    2.4640 ca        1 17G     -0.097000
      6 C18        -0.0410   -1.8330    3.4140 ca        1 17G     -0.125000
      7 C15        -0.7760   -0.9390    4.1890 ca        1 17G     -0.080000
      8 C20         0.2770    0.9270    3.0390 ca        1 17G     -0.067000
      9 C16        -0.6020    0.4340    4.0030 ca        1 17G     -0.171300
     10 C24        -1.3780    1.4000    4.8920 c3        1 17G      0.690200
     11 F3         -1.4060    2.7010    4.4630 f         1 17G     -0.236300
     12 F2         -2.6930    1.0650    5.0910 f         1 17G     -0.236300
     13 F1         -0.8650    1.4870    6.1710 f         1 17G     -0.236300
     14 C32         2.1420    1.0780   -1.1310 cc        1 17G     -0.222200
     15 C31         3.3850    0.5540   -1.1560 cd        1 17G     -0.020200
     16 C26         3.9900    0.0770    0.0560 ca        1 17G     -0.263100
     17 C34         5.3200   -0.4570    0.0550 ca        1 17G      0.484200
     18 N9          5.9570   -0.8780    1.1250 nb        1 17G     -0.670000
     19 C23         3.2800    0.1310    1.2730 ca        1 17G      0.146600
     20 C25         4.0230   -0.1640    2.4860 ca        1 17G     -0.179300
     21 C30         3.5500    0.1450    3.7800 ca        1 17G     -0.056000
     22 C33         4.2820   -0.1730    4.9130 cp        1 17G     -0.106000
     23 C36         5.5310   -0.8320    4.7790 ca        1 17G     -0.097000
     24 C35         6.0510   -1.0860    3.5360 ca        1 17G     -0.159300
     25 C29         5.3360   -0.7180    2.3510 ca        1 17G      0.445600
     26 C37         3.7760    0.1820    6.2280 cp        1 17G     -0.050300
     27 C39         3.1380    1.4420    6.4300 ca        1 17G      0.430200
     28 C38         3.8770   -0.6770    7.3280 ca        1 17G     -0.085000
     29 C40         3.3340   -0.3000    8.5620 ca        1 17G     -0.182300
     30 C41         2.7050    0.9570    8.6380 ca        1 17G      0.408200
     31 N10         2.6140    1.8330    7.5920 nb        1 17G     -0.633000
     32 N43         2.0870    1.3970    9.9060 n4        1 17G     -0.811300
     33 H1          1.4360   -2.0890    1.8590 ha        1 17G      0.157000
     34 H2         -0.1850   -2.9170    3.5420 ha        1 17G      0.156000
     35 H3         -1.5020   -1.3050    4.9330 ha        1 17G      0.157000
     36 H4          0.3480    2.0130    2.8560 ha        1 17G      0.177000
     37 H5          1.6360    1.4920   -2.0170 ha        1 17G      0.183000
     38 H6          3.9710    0.4970   -2.0880 ha        1 17G      0.159000
     39 H7          5.8600   -0.5470   -0.9090 h4        1 17G      0.044100
     40 H8          2.5860    0.6670    3.9010 ha        1 17G      0.147000
     41 H9          6.0940   -1.1120    5.6830 ha        1 17G      0.142000
     42 H10         7.0400   -1.5650    3.4290 ha        1 17G      0.173000
     43 H11         3.0550    2.1750    5.6010 h4        1 17G      0.068100
     44 H12         4.3730   -1.6580    7.2260 ha        1 17G      0.181000
     45 H13         3.4020   -0.9810    9.4240 ha        1 17G      0.166000
     46 H14         2.2410    0.6830   10.6230 hn        1 17G      0.470467
     47 H15         1.0770    1.5360    9.7670 hn        1 17G      0.470467
     48 H433        2.5030    2.2870   10.2090 hn        1 17G      0.470467
@<TRIPOS>BOND
     1    1    2 2   
     2    2    3 1   
     3    2   14 1   
     4    3    4 1   
     5    3   19 1   
     6    4    5 ar  
     7    4    8 ar  
     8    5    6 ar  
     9    5   33 1   
    10    6    7 ar  
    11    6   34 1   
    12    7    9 ar  
    13    7   35 1   
    14    8    9 ar  
    15    8   36 1   
    16    9   10 1   
    17   10   11 1   
    18   10   12 1   
    19   10   13 1   
    20   14   15 2   
    21   14   37 1   
    22   15   16 1   
    23   15   38 1   
    24   16   17 ar  
    25   16   19 ar  
    26   17   18 ar  
    27   17   39 1   
    28   18   25 ar  
    29   19   20 ar  
    30   20   21 ar  
    31   20   25 ar  
    32   21   22 ar  
    33   21   40 1   
    34   22   23 ar  
    35   22   26 1   
    36   23   24 ar  
    37   23   41 1   
    38   24   25 ar  
    39   24   42 1   
    40   26   27 ar  
    41   26   28 ar  
    42   27   31 ar  
    43   27   43 1   
    44   28   29 ar  
    45   28   44 1   
    46   29   30 ar  
    47   29   45 1   
    48   30   31 ar  
    49   30   32 1   
    50   32   46 1   
    51   32   47 1   
    52   32   48 1   
@<TRIPOS>SUBSTRUCTURE
     1 17G         1 TEMP              0 ****  ****    0 ROOT
