@<TRIPOS>MOLECULE
17G
   47    40     1     0     0
SMALL
bcc


@<TRIPOS>ATOM
      1 O5         -2.6160   -0.1790   -3.9390 o         1 17G     -0.333000
      2 C27        -1.4030   -0.1260   -3.9540 c1        1 17G      0.338000
      3 N8         -0.6690   -0.1140   -2.7160 n3        1 17G     -0.219000
      4 C19        -1.3660   -0.1460   -1.4790 c2        1 17G      0.031000
      5 C21        -1.5910   -1.3580   -0.8460 c2        1 17G     -0.078000
      6 C18        -2.4010   -1.4140    0.2770 c1        1 17G     -0.130000
      7 C15        -2.9860   -0.2580    0.7680 c1        1 17G     -0.078000
      8 C20        -1.9530    1.0100   -0.9880 c1        1 17G     -0.083000
      9 C16        -2.7630    0.9540    0.1360 c1        1 17G     -0.153000
     10 C24        -3.4660    2.2020    0.6240 c3        1 17G      0.467000
     11 F3         -4.6300    2.3410   -0.0240 f         1 17G     -0.163667
     12 F2         -3.6980    2.0980    1.9400 f         1 17G     -0.163667
     13 F1         -2.6940    3.2700    0.3900 f         1 17G     -0.163667
     14 C32        -0.6840   -0.1280   -5.2330 c1        1 17G     -0.113750
     15 C31         0.7630   -0.1170   -5.2450 c1        1 17G     -0.113750
     16 C26         1.5280   -0.1040   -3.9400 c1        1 17G     -0.198000
     17 C34         2.9290   -0.1050   -3.9480 c1        1 17G     -0.008000
     18 N9          3.6250   -0.1050   -2.7620 n1        1 17G     -0.142000
     19 C23         0.8400   -0.1030   -2.7300 c1        1 17G      0.155000
     20 C25         1.5510   -0.1020   -1.5250 c1        1 17G     -0.098000
     21 C30         0.8620   -0.0860   -0.3000 c2        1 17G     -0.104000
     22 C33         1.5700   -0.0710    0.8960 c1        1 17G     -0.014000
     23 C36         2.9650   -0.0720    0.8810 c1        1 17G     -0.113750
     24 C35         3.6480   -0.0880   -0.3290 c1        1 17G     -0.113750
     25 C29         2.9340   -0.1030   -1.5390 c1        1 17G      0.022000
     26 C37         1.2130   -0.1020    2.3650 c2        1 17G     -0.151000
     27 C39         1.0570    1.0840    3.0650 c2        1 17G     -0.010000
     28 C38         0.9750   -1.2950    2.9830 c1        1 17G     -0.043000
     29 C40         0.5830   -1.3190    4.2900 c1        1 17G     -0.241000
     30 C41         0.4270   -0.1320    4.9880 c1        1 17G      0.121000
     31 N10         0.6660    1.0590    4.3700 n1        1 17G     -0.196000
     32 N43        -0.0090   -0.1550    6.3380 n3        1 17G     -0.329000
     33 H1         -1.1790   -2.1720   -1.1910 ha        1 17G      0.165000
     34 H2         -2.5590   -2.2670    0.7220 ha        1 17G      0.148000
     35 H3         -3.5560   -0.2980    1.5580 ha        1 17G      0.155000
     36 H4         -1.7950    1.8640   -1.4330 ha        1 17G      0.163000
     37 H5         -1.1780   -0.2080   -6.0700 ha        1 17G      0.155000
     38 H6          1.2440   -0.1180   -6.0920 ha        1 17G      0.155000
     39 H7          3.4110   -0.0980   -4.7970 ha        1 17G      0.165000
     40 H8         -0.1120   -0.0850   -0.2890 ha        1 17G      0.145000
     41 H9          3.4610   -0.0610    1.7210 ha        1 17G      0.155000
     42 H10         4.6240   -0.0890   -0.3380 ha        1 17G      0.155000
     43 H11         1.2280    1.9370    2.6240 h4        1 17G      0.163000
     44 H12         1.0840   -2.1310    2.4910 ha        1 17G      0.139000
     45 H13         0.4120   -2.1720    4.7330 ha        1 17G      0.143000
     46 H14         0.5490    0.1310    7.0030 hn        1 17G      0.207000
     47 H15        -0.8420   -0.4690    6.5440 hn        1 17G      0.207000
@<TRIPOS>BOND
     1    1    2 1   
     2    2    3 1   
     3    3    4 1   
     4    3   19 1   
     5    4    5 1   
     6    4    8 1   
     7    5    6 1   
     8    5   33 1   
     9    6   34 1   
    10    7    9 1   
    11    7   35 1   
    12    8   36 1   
    13    9   10 1   
    14   10   11 1   
    15   10   12 1   
    16   10   13 1   
    17   14   15 1   
    18   14   37 1   
    19   15   38 1   
    20   16   19 1   
    21   17   18 1   
    22   17   39 1   
    23   20   21 1   
    24   20   25 1   
    25   21   22 1   
    26   21   40 1   
    27   22   26 1   
    28   23   24 1   
    29   23   41 1   
    30   24   42 1   
    31   26   27 1   
    32   26   28 1   
    33   27   31 1   
    34   27   43 1   
    35   28   44 1   
    36   29   30 1   
    37   29   45 1   
    38   30   32 1   
    39   32   46 1   
    40   32   47 1   
@<TRIPOS>SUBSTRUCTURE
     1 17G         1 TEMP              0 ****  ****    0 ROOT
