@<TRIPOS>MOLECULE
17H
   51    51     1     0     0
SMALL
bcc


@<TRIPOS>ATOM
      1 C2         -3.3440   -2.2940   -2.6700 c3        1 17H     -0.207000
      2 C4         -3.2640   -3.6830   -0.6400 c1        1 17H     -0.244000
      3 C7         -1.0450   -1.1280    1.0630 c3        1 17H     -0.152000
      4 C6         -1.6170   -2.6500    0.9580 c3        1 17H     -0.137000
      5 C9         -0.3910   -1.1270   -0.7370 c1        1 17H     -0.024000
      6 C11         0.5980   -0.4020   -1.6770 c1        1 17H     -0.131000
      7 C1         -1.8430   -2.3070   -2.6680 c3        1 17H     -0.115000
      8 C3         -3.9100   -3.3200   -1.9050 c1        1 17H      0.261000
      9 C5         -1.8690   -2.9940   -0.2770 c2        1 17H      0.011000
     10 C8         -0.3040   -0.9050    0.5380 c3        1 17H     -0.070000
     11 C10        -1.2480   -2.3080   -1.2200 c2        1 17H     -0.101000
     12 C12         1.4740    0.5340   -1.0490 c1        1 17H     -0.131000
     13 C13         1.3260    0.6570    0.3060 c2        1 17H     -0.012000
     14 C14         0.0610    0.1630    0.8630 c3        1 17H     -0.095000
     15 C15        -1.0630    1.4070    0.5960 c3        1 17H     -0.152000
     16 C16        -0.1710    2.7160    0.1890 c3        1 17H     -0.191000
     17 C17         1.2500    2.3300    0.4930 c3        1 17H      0.092000
     18 C18         2.5570    0.0590    1.0720 c3        1 17H     -0.143000
     19 C22         3.7710    0.0830    0.1720 c3        1 17H     -0.217000
     20 C21         2.0130    4.1900    1.8230 c3        1 17H     -0.217000
     21 C20         1.5850    2.6990    1.8030 c3        1 17H     -0.185000
     22 O3         -5.0410   -3.7050   -2.1440 o         1 17H     -0.300000
     23 O17         2.1270    2.9600   -0.4250 oh        1 17H     -0.324000
     24 H21        -3.6630   -2.3180   -3.6180 hc        1 17H      0.111000
     25 H22        -3.6990   -1.4250   -2.3770 hc        1 17H      0.111000
     26 H4         -3.5760   -4.4860   -0.1280 ha        1 17H      0.148000
     27 H71        -0.8060   -0.9620    2.0050 hc        1 17H      0.088500
     28 H72        -1.7660   -0.5240    0.8270 hc        1 17H      0.088500
     29 H61        -2.4090   -2.8940    1.4550 hc        1 17H      0.097500
     30 H62        -0.9470   -3.2160    1.3980 hc        1 17H      0.097500
     31 H11         0.8350   -0.7940   -2.5300 ha        1 17H      0.140000
     32 H11A       -1.4250   -1.6810   -3.2970 hc        1 17H      0.094500
     33 H12A       -1.5750   -3.1420   -3.0700 hc        1 17H      0.094500
     34 H8          0.4060   -1.5130    0.8390 hc        1 17H      0.102000
     35 H12         2.3310    0.7660   -1.4720 ha        1 17H      0.140000
     36 H14         0.1940    0.1150    1.8500 hc        1 17H      0.091000
     37 H151       -1.6730    1.1650   -0.1430 hc        1 17H      0.088500
     38 H152       -1.5840    1.5880    1.4300 hc        1 17H      0.088500
     39 H161       -0.4340    3.4820    0.7260 hc        1 17H      0.091000
     40 H162       -0.2770    2.9190   -0.7850 hc        1 17H      0.091000
     41 H181        2.3590   -0.8790    1.3370 hc        1 17H      0.081000
     42 H182        2.7350    0.5950    1.8750 hc        1 17H      0.081000
     43 H221        3.8900    0.9780   -0.1880 hc        1 17H      0.079667
     44 H222        4.5760   -0.1730    0.6940 hc        1 17H      0.079667
     45 H223        3.6450   -0.5460   -0.5590 hc        1 17H      0.079667
     46 H211        2.9010    4.2840    1.3980 hc        1 17H      0.075667
     47 H212        2.0600    4.5070    2.7550 hc        1 17H      0.075667
     48 H213        1.3520    4.7280    1.3260 hc        1 17H      0.075667
     49 H201        0.8170    2.5760    2.3810 hc        1 17H      0.093500
     50 H202        2.3250    2.1420    2.1210 hc        1 17H      0.093500
     51 H17         1.7590    3.7310   -0.7120 ho        1 17H      0.202000
@<TRIPOS>BOND
     1    1    7 1   
     2    1    8 1   
     3    1   24 1   
     4    1   25 1   
     5    2    9 1   
     6    2   26 1   
     7    3    4 1   
     8    3   10 1   
     9    3   27 1   
    10    3   28 1   
    11    4    9 1   
    12    4   29 1   
    13    4   30 1   
    14    5   10 1   
    15    5   11 1   
    16    6   12 1   
    17    6   31 1   
    18    7   11 1   
    19    7   32 1   
    20    7   33 1   
    21    8   22 1   
    22    9   11 1   
    23   10   14 1   
    24   10   34 1   
    25   12   35 1   
    26   13   14 1   
    27   13   17 1   
    28   13   18 1   
    29   14   15 1   
    30   14   36 1   
    31   15   16 1   
    32   15   37 1   
    33   15   38 1   
    34   16   17 1   
    35   16   39 1   
    36   16   40 1   
    37   17   21 1   
    38   17   23 1   
    39   18   19 1   
    40   18   41 1   
    41   18   42 1   
    42   19   43 1   
    43   19   44 1   
    44   19   45 1   
    45   20   21 1   
    46   20   46 1   
    47   20   47 1   
    48   20   48 1   
    49   21   49 1   
    50   21   50 1   
    51   23   51 1   
@<TRIPOS>SUBSTRUCTURE
     1 17H         1 TEMP              0 ****  ****    0 ROOT
