@<TRIPOS>MOLECULE
17H
   51    54     1     0     0
SMALL
bcc


@<TRIPOS>ATOM
      1 C2         -4.3290    1.5160   -0.9220 c3        1 17H     -0.180400
      2 C4         -4.4010   -0.8310   -0.0760 ce        1 17H     -0.264200
      3 C7         -0.9450   -2.1550   -0.2730 c3        1 17H     -0.073400
      4 C6         -2.3690   -2.1670    0.2360 c3        1 17H     -0.055200
      5 C9         -0.8900    0.3120    0.0880 ce        1 17H     -0.035200
      6 C11        -0.0540    1.5050    0.0250 ce        1 17H     -0.154000
      7 C1         -2.9610    1.6400   -0.2860 c3        1 17H     -0.033200
      8 C3         -5.1460    0.4060   -0.3270 c         1 17H      0.570300
      9 C5         -3.0550   -0.8600    0.0120 cf        1 17H      0.005800
     10 C8         -0.1870   -0.9960    0.3540 c3        1 17H     -0.021500
     11 C10        -2.2400    0.3500   -0.0740 cf        1 17H     -0.097200
     12 C12         1.2850    1.5060    0.1570 c2        1 17H     -0.114200
     13 C13         2.0270    0.2520    0.4580 c3        1 17H     -0.013800
     14 C14         1.2280   -0.9150   -0.1800 c3        1 17H     -0.067700
     15 C15         2.1620   -2.1070   -0.0540 c3        1 17H     -0.068400
     16 C16         3.5540   -1.5130   -0.2870 c3        1 17H     -0.112400
     17 C17         3.4240    0.0360   -0.2110 c3        1 17H      0.161800
     18 C18         2.1670    0.1140    1.9820 c3        1 17H     -0.051400
     19 C22         2.5390    1.4040    2.6710 c3        1 17H     -0.092100
     20 C20         3.5000    0.6760   -1.6000 c3        1 17H     -0.104400
     21 O3         -6.3590    0.5160   -0.1130 o         1 17H     -0.536100
     22 O17         4.4240    0.5820    0.6360 oh        1 17H     -0.590800
     23 H21        -4.2230    1.3000   -2.0200 hc        1 17H      0.071700
     24 H22        -4.8770    2.4900   -0.8220 hc        1 17H      0.071700
     25 H4         -5.0060   -1.7460    0.0340 ha        1 17H      0.149000
     26 H71        -0.9360   -2.0590   -1.3900 hc        1 17H      0.050200
     27 H72        -0.4370   -3.1190   -0.0110 hc        1 17H      0.050200
     28 H61        -2.9410   -2.9910   -0.2680 hc        1 17H      0.058200
     29 H62        -2.3730   -2.3850    1.3400 hc        1 17H      0.058200
     30 H11        -0.5720    2.4650   -0.1390 ha        1 17H      0.128000
     31 H11A       -2.3530    2.3190   -0.9450 hc        1 17H      0.055200
     32 H12A       -3.0630    2.1480    0.7130 hc        1 17H      0.055200
     33 H8         -0.1750   -1.1630    1.4700 hc        1 17H      0.068700
     34 H12         1.8720    2.4350    0.1050 ha        1 17H      0.138000
     35 H14         1.1300   -0.6880   -1.2840 hc        1 17H      0.055700
     36 H151        1.9230   -2.8970   -0.8060 hc        1 17H      0.046700
     37 H152        2.0900   -2.5650    0.9640 hc        1 17H      0.046700
     38 H161        3.9500   -1.8220   -1.2850 hc        1 17H      0.051200
     39 H162        4.2680   -1.8660    0.4970 hc        1 17H      0.051200
     40 H181        1.2020   -0.2530    2.4180 hc        1 17H      0.042700
     41 H182        2.9500   -0.6610    2.1970 hc        1 17H      0.042700
     42 H221        2.7200    1.2110    3.7570 hc        1 17H      0.038033
     43 H222        3.4690    1.8390    2.2300 hc        1 17H      0.038033
     44 H223        1.7180    2.1560    2.5800 hc        1 17H      0.038033
     45 H211        5.5800    1.3020   -1.6620 hc        1 17H      0.036700
     46 H212        5.2950   -0.4080   -2.1900 hc        1 17H      0.036700
     47 H213        4.8340    0.9670   -3.2740 hc        1 17H      0.036700
     48 H201        3.1790    1.7480   -1.5190 hc        1 17H      0.053700
     49 H202        2.7740    0.1540   -2.2760 hc        1 17H      0.053700
     50 H17         5.2750    0.3340    0.2550 ho        1 17H      0.401000
     51 C21         4.8780    0.6280   -2.2110 c3        1 17H     -0.100100
@<TRIPOS>BOND
     1    1    7 1   
     2    1    8 1   
     3    1   23 1   
     4    1   24 1   
     5    2    8 1   
     6    2    9 2   
     7    2   25 1   
     8    3    4 1   
     9    3   10 1   
    10    3   26 1   
    11    3   27 1   
    12    4    9 1   
    13    4   28 1   
    14    4   29 1   
    15    5    6 1   
    16    5   10 1   
    17    5   11 2   
    18    6   12 2   
    19    6   30 1   
    20    7   11 1   
    21    7   31 1   
    22    7   32 1   
    23    8   21 2   
    24    9   11 1   
    25   10   14 1   
    26   10   33 1   
    27   12   13 1   
    28   12   34 1   
    29   13   14 1   
    30   13   17 1   
    31   13   18 1   
    32   14   15 1   
    33   14   35 1   
    34   15   16 1   
    35   15   36 1   
    36   15   37 1   
    37   16   17 1   
    38   16   38 1   
    39   16   39 1   
    40   17   20 1   
    41   17   22 1   
    42   18   19 1   
    43   18   40 1   
    44   18   41 1   
    45   19   42 1   
    46   19   43 1   
    47   19   44 1   
    48   20   48 1   
    49   20   49 1   
    50   20   51 1   
    51   22   50 1   
    52   45   51 1   
    53   46   51 1   
    54   47   51 1   
@<TRIPOS>SUBSTRUCTURE
     1 17H         1 TEMP              0 ****  ****    0 ROOT
