@<TRIPOS>MOLECULE
17H
   51    53     1     0     0
SMALL
bcc


@<TRIPOS>ATOM
      1 C2          1.0560    1.7920    0.0210 c3        1 17H     -0.160200
      2 C4         -0.2800    0.8830    1.9740 ce        1 17H     -0.265200
      3 C7          1.8370   -1.4090    4.0550 c3        1 17H     -0.072400
      4 C6          0.7180   -0.4280    3.7910 c3        1 17H     -0.051200
      5 C9          3.2720   -0.4660    2.2260 c3        1 17H     -0.010500
      6 C11         3.4750   -1.6860    1.3080 c3        1 17H     -0.035200
      7 C1          2.1710    1.0310    0.6140 c2        1 17H     -0.138200
      8 C3         -0.2660    1.6400    0.7210 c         1 17H      0.569300
      9 C5          0.8130    0.2600    2.4730 cf        1 17H      0.011800
     10 C8          3.1820   -0.7830    3.7290 c3        1 17H     -0.021500
     11 C10         2.0760    0.3030    1.7480 cf        1 17H     -0.094200
     12 C12         4.6730   -2.4590    1.7140 c2        1 17H     -0.147200
     13 C13         5.9590   -2.1020    1.5420 c2        1 17H     -0.157400
     14 C14         4.3070   -1.6660    4.1460 c2        1 17H     -0.171200
     15 C15         5.5940   -1.3270    3.9940 c2        1 17H     -0.156200
     16 C16         6.6930   -2.3210    3.9440 c3        1 17H     -0.036200
     17 C17         7.0030   -2.7090    2.4620 c3        1 17H      0.199000
     18 C18         6.3930   -1.0240    0.6120 c3        1 17H     -0.047200
     19 C22         6.7920   -1.5780   -0.7360 c3        1 17H     -0.086100
     20 C20         7.0520   -4.2340    2.2850 c3        1 17H     -0.103400
     21 O3         -1.2930    2.1520    0.2520 o         1 17H     -0.545100
     22 O17         8.2970   -2.1580    2.2180 oh        1 17H     -0.596800
     23 H21         0.9250    1.4840   -1.0550 hc        1 17H      0.092200
     24 H22         1.3190    2.8890    0.0110 hc        1 17H      0.092200
     25 H4         -1.2480    0.8510    2.5000 ha        1 17H      0.151000
     26 H71        -0.2680   -0.9610    3.8680 hc        1 17H      0.059700
     27 H72         1.8130   -1.7160    5.1340 hc        1 17H      0.048700
     28 H61         1.6920   -2.3350    3.4390 hc        1 17H      0.048700
     29 H62         0.7260    0.3650    4.5910 hc        1 17H      0.059700
     30 H11         4.1850    0.1890    2.0990 hc        1 17H      0.058700
     31 H11A        2.5660   -2.3410    1.3520 hc        1 17H      0.050700
     32 H12A        3.1240    1.0850    0.0600 ha        1 17H      0.131000
     33 H8          3.2580    0.2000    4.2790 hc        1 17H      0.060700
     34 H12         3.5700   -1.3180    0.2510 hc        1 17H      0.050700
     35 H14         4.4400   -3.3540    2.3210 ha        1 17H      0.119000
     36 H151        4.0210   -2.6750    4.4870 ha        1 17H      0.121000
     37 H152        5.8850   -0.2960    3.7290 ha        1 17H      0.126000
     38 H161        6.4210   -3.2500    4.5080 hc        1 17H      0.062200
     39 H162        7.6300   -1.9010    4.3970 hc        1 17H      0.062200
     40 H181        7.2550   -0.4580    1.0600 hc        1 17H      0.052700
     41 H182        5.5590   -0.2830    0.4690 hc        1 17H      0.052700
     42 H221        7.6100   -2.3310   -0.6300 hc        1 17H      0.033033
     43 H222        5.9230   -2.0750   -1.2300 hc        1 17H      0.033033
     44 H223        7.1540   -0.7540   -1.3970 hc        1 17H      0.033033
     45 H211        8.0840   -4.7140    4.1340 hc        1 17H      0.038700
     46 H212        8.2210   -5.9680    2.8320 hc        1 17H      0.038700
     47 H213        9.1680   -4.4230    2.7160 hc        1 17H      0.038700
     48 H201        7.1530   -4.4560    1.1900 hc        1 17H      0.046700
     49 H202        6.0800   -4.6730    2.6290 hc        1 17H      0.046700
     50 H17         8.5500   -2.4170    1.3240 ho        1 17H      0.402000
     51 C21         8.1940   -4.8710    3.0340 c3        1 17H     -0.093100
@<TRIPOS>BOND
     1    1    7 1   
     2    1    8 1   
     3    1   23 1   
     4    1   24 1   
     5    2    8 1   
     6    2    9 2   
     7    2   25 1   
     8    3    4 1   
     9    3   10 1   
    10    3   27 1   
    11    3   28 1   
    12    4    9 1   
    13    4   26 1   
    14    4   29 1   
    15    5    6 1   
    16    5   10 1   
    17    5   11 1   
    18    5   30 1   
    19    6   12 1   
    20    6   31 1   
    21    6   34 1   
    22    7   11 2   
    23    7   32 1   
    24    8   21 2   
    25    9   11 1   
    26   10   14 1   
    27   10   33 1   
    28   12   13 2   
    29   12   35 1   
    30   13   17 1   
    31   13   18 1   
    32   14   15 2   
    33   14   36 1   
    34   15   16 1   
    35   15   37 1   
    36   16   17 1   
    37   16   38 1   
    38   16   39 1   
    39   17   20 1   
    40   17   22 1   
    41   18   19 1   
    42   18   40 1   
    43   18   41 1   
    44   19   42 1   
    45   19   43 1   
    46   19   44 1   
    47   20   48 1   
    48   20   49 1   
    49   20   51 1   
    50   22   50 1   
    51   45   51 1   
    52   46   51 1   
    53   47   51 1   
@<TRIPOS>SUBSTRUCTURE
     1 17H         1 TEMP              0 ****  ****    0 ROOT
