@<TRIPOS>MOLECULE
17J
   44    41     1     0     0
SMALL
bcc


@<TRIPOS>ATOM
      1 C2         -0.6840   -0.2230    0.2530 c2        1 17J      0.381000
      2 O1          0.2630    0.6010    0.2170 o         1 17J     -0.409000
      3 N10        -1.6540   -0.1140    1.2550 n         1 17J     -0.398000
      4 C15         0.4670    1.4980    3.1380 c1        1 17J     -0.153000
      5 C14        -0.0260    1.2420    4.1990 c1        1 17J     -0.115500
      6 N13        -0.5280    0.8870    5.4210 nh        1 17J      0.056000
      7 C12        -0.4260    1.8140    6.4220 c1        1 17J     -0.115500
      8 C11        -0.2630    2.5960    7.3150 c1        1 17J     -0.153000
      9 C16        -1.6760    0.0660    5.4560 c2        1 17J     -0.148000
     10 S20        -2.3460   -0.5390    6.9610 ss        1 17J      0.510000
     11 N19        -3.4450   -1.4630    6.2030 n2        1 17J     -0.345000
     12 C18        -3.3220   -1.3320    4.8700 c2        1 17J      0.009000
     13 N17        -2.3220   -0.4570    4.3920 n2        1 17J     -0.187000
     14 C21        -4.1860   -2.0670    3.9360 c2        1 17J     -0.104000
     15 C26        -5.4990   -4.6160    6.1030 c1        1 17J     -0.190000
     16 C25        -5.9620   -5.5900    5.5830 c1        1 17J     -0.119000
     17 C24        -6.4940   -6.7350    4.9860 c2        1 17J     -0.367000
     18 C23        -7.3440   -6.8110    3.9790 c1        1 17J      0.231000
     19 C22        -4.5410   -1.5990    2.7400 c2        1 17J     -0.181000
     20 H2          0.8890    1.6920    2.1770 ha        1 17J      0.258500
     21 H3         -1.3970    0.4850    2.0110 hn        1 17J      0.226000
     22 H4         -2.4990   -3.2480    0.8740 ha        1 17J      0.000750
     23 H5         -2.9820   -3.0170    1.2920 ha        1 17J      0.000750
     24 H6         -3.9790   -1.2360   -0.5700 ha        1 17J      0.000750
     25 H7         -4.0590   -1.4300    0.0750 ha        1 17J      0.000750
     26 H8         -2.1830   -0.9160    1.5100 hn        1 17J      0.226000
     27 H9         -0.1210    3.2790    8.1140 ha        1 17J      0.258500
     28 H10        -4.5370   -3.0470    4.3110 ha        1 17J      0.156000
     29 H11        -5.0900   -3.7520    6.5670 ha        1 17J      0.242000
     30 H12        -6.1510   -7.7040    5.4250 ha        1 17J      0.204000
     31 H13        -5.1890   -2.1810    2.0690 ha        1 17J      0.127500
     32 H14        -4.2350   -0.6170    2.3540 ha        1 17J      0.127500
     33 C3         -0.0960   -1.3080   -1.9010 c2        1 17J      0.025000
     34 N1         -0.8230   -1.2540   -0.7030 n         1 17J     -0.313000
     35 C4         -0.6370   -1.9900   -3.0160 c2        1 17J     -0.152000
     36 C1          0.1220   -2.1030   -4.1780 c2        1 17J     -0.156000
     37 C5          1.4040   -1.5310   -4.2100 c2        1 17J     -0.098000
     38 N2          1.9400   -0.8710   -3.1650 n2        1 17J     -0.120000
     39 C7          1.2150   -0.7610   -2.0430 c2        1 17J     -0.078000
     40 H1         -1.6940   -1.7430   -0.7200 hn        1 17J      0.225000
     41 H15        -1.6430   -2.4340   -2.9760 ha        1 17J      0.133000
     42 H16        -0.2760   -2.6300   -5.0550 ha        1 17J      0.142000
     43 H17         2.0360   -1.5990   -5.1120 h4        1 17J      0.160000
     44 H18         1.6910   -0.2000   -1.2150 h4        1 17J      0.198000
@<TRIPOS>BOND
     1    1    2 1   
     2    1    3 1   
     3    1   34 1   
     4    3   21 1   
     5    3   26 1   
     6    4    5 1   
     7    4   20 1   
     8    5    6 1   
     9    6    7 1   
    10    6    9 1   
    11    7    8 1   
    12    8   27 1   
    13    9   10 1   
    14    9   13 1   
    15   10   11 1   
    16   11   12 1   
    17   12   13 1   
    18   12   14 1   
    19   14   19 1   
    20   14   28 1   
    21   15   16 1   
    22   15   29 1   
    23   16   17 1   
    24   17   18 1   
    25   17   30 1   
    26   19   31 1   
    27   19   32 1   
    28   22   23 1   
    29   24   25 1   
    30   33   34 1   
    31   33   35 1   
    32   33   39 1   
    33   34   40 1   
    34   35   36 1   
    35   35   41 1   
    36   36   37 1   
    37   36   42 1   
    38   37   38 1   
    39   37   43 1   
    40   38   39 1   
    41   39   44 1   
@<TRIPOS>SUBSTRUCTURE
     1 17J         1 TEMP              0 ****  ****    0 ROOT
