@<TRIPOS>MOLECULE
17J
   44    41     1     0     0
SMALL
bcc


@<TRIPOS>ATOM
      1 C2         -0.3110   -0.2470   -0.9620 c2        1 17J      0.391000
      2 O1          0.4950   -0.7090   -0.1170 o         1 17J     -0.409000
      3 N10        -1.6530   -0.0970   -0.6060 nt        1 17J     -0.421000
      4 C15        -1.1690   -1.6560    2.3730 c1        1 17J     -0.165500
      5 C14        -2.1520   -1.9480    2.9940 c1        1 17J     -0.119000
      6 N13        -3.3300   -2.2640    3.6160 nh        1 17J      0.054000
      7 C12        -3.9960   -1.2340    4.2220 c1        1 17J     -0.119000
      8 C11        -4.6340   -0.3410    4.7020 c1        1 17J     -0.165500
      9 C16        -3.3730   -3.5360    4.2340 c2        1 17J     -0.155000
     10 S20        -2.5810   -4.9390    3.5410 ss        1 17J      0.505000
     11 N19        -3.1910   -5.9450    4.6590 n2        1 17J     -0.334000
     12 C18        -3.9670   -5.2660    5.5240 c2        1 17J      0.011000
     13 N17        -4.0910   -3.8730    5.3250 n2        1 17J     -0.179000
     14 C21        -4.6500   -5.9360    6.6380 c2        1 17J     -0.107000
     15 C26        -6.2620   -1.8790   10.4130 c1        1 17J     -0.199000
     16 C25        -5.9460   -1.6790    9.2760 c1        1 17J     -0.102000
     17 C24        -5.5700   -1.4580    7.9500 c2        1 17J     -0.361000
     18 C23        -5.7450   -0.3740    7.2200 c1        1 17J      0.205000
     19 C22        -5.6180   -5.3740    7.3620 c2        1 17J     -0.166000
     20 H2         -0.2890   -1.4100    1.8190 ha        1 17J      0.270500
     21 H3         -1.9180   -0.5430    0.2430 hn        1 17J      0.228500
     22 H4         -2.6150   -0.3830   -3.5530 ha        1 17J      0.001250
     23 H5         -3.2300   -0.6230   -3.3970 ha        1 17J      0.001250
     24 H6         -2.2930    2.2550   -2.5490 ha        1 17J      0.001250
     25 H7         -2.5800    1.7480   -2.8940 ha        1 17J      0.001250
     26 H8         -2.3500    0.0110   -1.3010 hn        1 17J      0.228500
     27 H9         -5.2050    0.4540    5.1240 ha        1 17J      0.270500
     28 H10        -4.3040   -6.9660    6.8340 ha        1 17J      0.150000
     29 H11        -6.5410   -2.0550   11.4200 ha        1 17J      0.228000
     30 H12        -5.0520   -2.3170    7.4480 ha        1 17J      0.224000
     31 H13        -6.1000   -5.9190    8.1860 ha        1 17J      0.125500
     32 H14        -5.9960   -4.3560    7.1960 ha        1 17J      0.125500
     33 C3          1.4270    0.2730   -2.6500 c2        1 17J      0.020000
     34 N1          0.0850    0.1310   -2.2620 ns        1 17J     -0.311000
     35 C4          1.7610    1.1660   -3.6950 c2        1 17J     -0.148000
     36 C1          3.0840    1.2440   -4.1240 c2        1 17J     -0.157000
     37 C5          4.0490    0.4360   -3.5010 c2        1 17J     -0.095000
     38 N2          3.7580   -0.4170   -2.5000 n2        1 17J     -0.119000
     39 C7          2.4860   -0.4990   -2.0840 c2        1 17J     -0.074000
     40 H1         -0.5640    0.6650   -2.8010 hn        1 17J      0.226000
     41 H15         0.9940    1.7920   -4.1740 ha        1 17J      0.134000
     42 H16         3.3680    1.9270   -4.9350 ha        1 17J      0.144000
     43 H17         5.1070    0.4690   -3.8140 h4        1 17J      0.162000
     44 H18         2.2960   -1.2040   -1.2510 h4        1 17J      0.198000
@<TRIPOS>BOND
     1    1    2 1   
     2    1    3 1   
     3    1   34 1   
     4    3   21 1   
     5    3   26 1   
     6    4    5 1   
     7    4   20 1   
     8    5    6 1   
     9    6    7 1   
    10    6    9 1   
    11    7    8 1   
    12    8   27 1   
    13    9   10 1   
    14    9   13 1   
    15   10   11 1   
    16   11   12 1   
    17   12   13 1   
    18   12   14 1   
    19   14   19 1   
    20   14   28 1   
    21   15   16 1   
    22   15   29 1   
    23   16   17 1   
    24   17   18 1   
    25   17   30 1   
    26   19   31 1   
    27   19   32 1   
    28   22   23 1   
    29   24   25 1   
    30   33   34 1   
    31   33   35 1   
    32   33   39 1   
    33   34   40 1   
    34   35   36 1   
    35   35   41 1   
    36   36   37 1   
    37   36   42 1   
    38   37   38 1   
    39   37   43 1   
    40   38   39 1   
    41   39   44 1   
@<TRIPOS>SUBSTRUCTURE
     1 17J         1 TEMP              0 ****  ****    0 ROOT
