@<TRIPOS>MOLECULE
17J
   44    47     1     0     0
SMALL
bcc


@<TRIPOS>ATOM
      1 C2          3.1970   -0.4640    0.5950 c         1 17J      0.740100
      2 O1          3.3370   -1.3880   -0.2380 o         1 17J     -0.610100
      3 N10         2.2720   -0.6030    1.6870 n         1 17J     -0.423800
      4 C15         1.5830   -1.8830    1.7460 c3        1 17J      0.059500
      5 C14         0.2700   -1.9400    0.9370 c3        1 17J      0.155800
      6 N13        -0.6020   -0.8090    1.2260 nh        1 17J     -0.715300
      7 C12         0.0500    0.4910    1.1960 c3        1 17J      0.155800
      8 C11         1.3790    0.5000    1.9870 c3        1 17J      0.059500
      9 C16        -1.8880   -0.8920    0.7050 cc        1 17J      0.643300
     10 S20        -2.7480   -2.4290    0.5510 ss        1 17J      0.051700
     11 N19        -4.1290   -1.7130    0.0590 nc        1 17J     -0.548100
     12 C18        -3.9610   -0.3820    0.0100 cd        1 17J      0.662500
     13 N17        -2.6930    0.1350    0.3610 nd        1 17J     -0.727000
     14 C21        -5.0390    0.5340   -0.4020 ca        1 17J     -0.125500
     15 C26        -6.0210    0.0990   -1.3030 ca        1 17J     -0.089000
     16 C25        -7.0410    0.9670   -1.6900 ca        1 17J     -0.142500
     17 C24        -7.0890    2.2650   -1.1850 ca        1 17J     -0.114000
     18 C23        -6.1120    2.6980   -0.2880 ca        1 17J     -0.142500
     19 C22        -5.0880    1.8390    0.1060 ca        1 17J     -0.089000
     20 H2          2.2570   -2.6990    1.3630 h1        1 17J      0.075700
     21 H3          1.3630   -2.0710    2.8350 h1        1 17J      0.075700
     22 H4          0.5260   -1.9860   -0.1620 h1        1 17J      0.066450
     23 H5         -0.2710   -2.8880    1.2170 h1        1 17J      0.066450
     24 H6          0.2450    0.8190    0.1350 h1        1 17J      0.066450
     25 H7         -0.6380    1.2450    1.6740 h1        1 17J      0.066450
     26 H8          1.1470    0.4280    3.0890 h1        1 17J      0.075700
     27 H9          1.8660    1.4950    1.8020 h1        1 17J      0.075700
     28 H10        -5.9930   -0.9250   -1.7070 ha        1 17J      0.149000
     29 H11        -7.8100    0.6220   -2.3980 ha        1 17J      0.134500
     30 H12        -7.8950    2.9470   -1.4930 ha        1 17J      0.132000
     31 H13        -6.1490    3.7220    0.1130 ha        1 17J      0.134500
     32 H14        -4.3230    2.1910    0.8150 ha        1 17J      0.149000
     33 C3          5.0710    0.8690   -0.3210 ca        1 17J     -0.056700
     34 N1          3.9670    0.7100    0.5340 n         1 17J     -0.446100
     35 C4          6.1180    1.7460    0.0470 ca        1 17J     -0.146000
     36 C1          7.1700    1.9550   -0.8400 ca        1 17J     -0.222300
     37 C5          7.1630    1.2840   -2.0740 ca        1 17J      0.372200
     38 N2          6.1820    0.4400   -2.4450 nb        1 17J     -0.644000
     39 C7          5.1650    0.2350   -1.5960 ca        1 17J      0.392200
     40 H1          3.9840    1.2900    1.3460 hn        1 17J      0.316500
     41 H15         6.1100    2.2640    1.0170 ha        1 17J      0.135000
     42 H16         7.9950    2.6320   -0.5780 ha        1 17J      0.144000
     43 H17         7.9800    1.4250   -2.8040 h4        1 17J      0.025100
     44 H18         4.3890   -0.4780   -1.9390 h4        1 17J      0.058100
@<TRIPOS>BOND
     1    1    2 2   
     2    1    3 1   
     3    1   34 1   
     4    3    4 1   
     5    3    8 1   
     6    4    5 1   
     7    4   20 1   
     8    4   21 1   
     9    5    6 1   
    10    5   22 1   
    11    5   23 1   
    12    6    7 1   
    13    6    9 1   
    14    7    8 1   
    15    7   24 1   
    16    7   25 1   
    17    8   26 1   
    18    8   27 1   
    19    9   10 1   
    20    9   13 2   
    21   10   11 1   
    22   11   12 2   
    23   12   13 1   
    24   12   14 1   
    25   14   15 ar  
    26   14   19 ar  
    27   15   16 ar  
    28   15   28 1   
    29   16   17 ar  
    30   16   29 1   
    31   17   18 ar  
    32   17   30 1   
    33   18   19 ar  
    34   18   31 1   
    35   19   32 1   
    36   33   34 1   
    37   33   35 ar  
    38   33   39 ar  
    39   34   40 1   
    40   35   36 ar  
    41   35   41 1   
    42   36   37 ar  
    43   36   42 1   
    44   37   38 ar  
    45   37   43 1   
    46   38   39 ar  
    47   39   44 1   
@<TRIPOS>SUBSTRUCTURE
     1 17J         1 TEMP              0 ****  ****    0 ROOT
