@<TRIPOS>MOLECULE
17J
   45    43     1     0     0
SMALL
bcc


@<TRIPOS>ATOM
      1 C2         -0.1490   -1.9080    1.1120 c2        1 17J      0.351000
      2 O1         -0.2080   -3.1340    0.9560 o         1 17J     -0.271000
      3 N10         0.9380   -1.1800    1.4810 n         1 17J     -0.374000
      4 C15        -0.8690    3.1940    6.0790 c1        1 17J     -0.173000
      5 C14        -0.9330    2.3220    5.2600 c1        1 17J     -0.091000
      6 N13        -0.9250    1.3190    4.3320 nh        1 17J      0.045000
      7 C12        -0.6090    1.6540    3.0490 c1        1 17J     -0.091000
      8 C11        -0.2650    1.8900    1.9240 c1        1 17J     -0.173000
      9 C16        -1.8130    0.2440    4.5460 c2        1 17J     -0.175000
     10 S20        -2.4720   -0.1910    6.0940 ss        1 17J      0.628000
     11 N19        -3.2050   -1.5160    5.5150 n2        1 17J     -0.318000
     12 C18        -2.9710   -1.6400    4.2000 c2        1 17J      0.007000
     13 N17        -2.1790   -0.6490    3.5910 n2        1 17J     -0.288000
     14 C21        -3.4930   -2.7580    3.3820 c2        1 17J     -0.050000
     15 C26        -3.1580   -4.1320    3.8610 c3        1 17J     -0.168000
     16 C25        -4.0550   -4.8150    4.7760 c1        1 17J     -0.026000
     17 C24        -5.2330   -4.2530    5.3030 c2        1 17J     -0.535000
     18 C23        -6.0090   -4.9370    6.1430 c1        1 17J      0.415000
     19 C22        -4.2130   -2.5110    2.2820 c2        1 17J     -0.232000
     20 H2         -0.8140    3.9580    6.8180 ha        1 17J      0.257000
     21 H3          1.7720   -1.6880    1.6920 hn        1 17J      0.276500
     22 H4         -0.3540   -4.8880   -0.7040 ha        1 17J      0.002000
     23 H5         -0.0210   -5.2290   -0.2230 ha        1 17J      0.002000
     24 H6         -2.5780   -4.0540    0.7960 ha        1 17J      0.002000
     25 H7         -2.2140   -4.6000    0.6220 ha        1 17J      0.002000
     26 H8          0.8970   -0.2090    1.6920 hn        1 17J      0.276500
     27 H9          0.0550    2.1910    0.9580 ha        1 17J      0.257000
     28 H10        -2.1520   -4.1280    4.3780 hc        1 17J      0.149000
     29 H11        -3.0520   -4.8180    2.9650 hc        1 17J      0.149000
     30 H12        -5.5420   -3.2110    5.0550 ha        1 17J      0.175000
     31 H13        -4.6110   -3.3270    1.6610 ha        1 17J      0.132000
     32 H14        -4.4990   -1.4980    1.9680 ha        1 17J      0.132000
     33 C3         -1.6280   -0.9420   -0.6120 c2        1 17J     -0.207000
     34 N1         -1.4580   -1.1630    0.8180 n4        1 17J     -0.027000
     35 C4         -1.7590    0.3640   -1.1270 c2        1 17J     -0.070000
     36 C1         -1.9490    0.5150   -2.4970 c2        1 17J     -0.159000
     37 C5         -2.0010   -0.6380   -3.3090 c2        1 17J     -0.009000
     38 N2         -1.8730   -1.8890   -2.8260 n2        1 17J     -0.099000
     39 C7         -1.6890   -2.0450   -1.5060 c2        1 17J     -0.017000
     40 H1         -2.2250   -1.7750    1.1630 hn        1 17J      0.277500
     41 H15        -1.7200    1.2500   -0.4710 ha        1 17J      0.156000
     42 H16        -2.0600    1.5150   -2.9440 ha        1 17J      0.179000
     43 H17        -2.1530   -0.5590   -4.4050 h4        1 17J      0.200000
     44 H18        -1.5750   -3.0910   -1.1460 h4        1 17J      0.207000
     45 H121       -1.5020   -0.2630    1.3180 hn        1 17J      0.277500
@<TRIPOS>BOND
     1    1    2 1   
     2    1    3 1   
     3    1   34 1   
     4    3   21 1   
     5    3   26 1   
     6    4    5 1   
     7    4   20 1   
     8    5    6 1   
     9    6    7 1   
    10    6    9 1   
    11    7    8 1   
    12    8   27 1   
    13    9   10 1   
    14    9   13 1   
    15   10   11 1   
    16   11   12 1   
    17   12   13 1   
    18   12   14 1   
    19   14   15 1   
    20   14   19 1   
    21   15   16 1   
    22   15   28 1   
    23   15   29 1   
    24   16   17 1   
    25   17   18 1   
    26   17   30 1   
    27   19   31 1   
    28   19   32 1   
    29   22   23 1   
    30   24   25 1   
    31   33   34 1   
    32   33   35 1   
    33   33   39 1   
    34   34   40 1   
    35   34   45 1   
    36   35   36 1   
    37   35   41 1   
    38   36   37 1   
    39   36   42 1   
    40   37   38 1   
    41   37   43 1   
    42   38   39 1   
    43   39   44 1   
@<TRIPOS>SUBSTRUCTURE
     1 17J         1 TEMP              0 ****  ****    0 ROOT
