@<TRIPOS>MOLECULE
17J
   44    39     1     0     0
SMALL
bcc


@<TRIPOS>ATOM
      1 C2          1.8590    1.7560   -2.4790 c1        1 17J      0.365000
      2 O1          3.0860    1.7510   -2.4520 o         1 17J     -0.368000
      3 N10         1.1300    1.7570   -1.2720 n2        1 17J     -0.283000
      4 C15         1.7560    1.7500    0.0160 c3        1 17J     -0.083000
      5 C14         1.2300    0.6530    0.8990 c3        1 17J     -0.093500
      6 N13        -0.2190    0.6510    0.9710 n3        1 17J     -0.182000
      7 C12        -0.8350    0.6530   -0.3330 c3        1 17J     -0.093500
      8 C11        -0.2880    1.7620   -1.2220 c3        1 17J     -0.083000
      9 C16        -0.6590   -0.4890    1.7100 c2        1 17J     -0.147000
     10 S20        -0.6390   -1.9390    1.2250 ss        1 17J      0.415000
     11 N19        -1.2420   -2.7640    2.2730 n2        1 17J     -0.324000
     12 C18        -1.6250   -1.8910    3.3640 c1        1 17J      0.025000
     13 N17        -1.2490   -0.4690    2.9890 n2        1 17J     -0.191000
     14 C21        -2.2890   -2.3330    4.6920 c1        1 17J     -0.020000
     15 C26        -3.6660   -2.5510    4.7430 c1        1 17J     -0.121750
     16 C25        -4.2450   -3.0420    5.8970 c1        1 17J     -0.121750
     17 C24        -3.4620   -3.3170    6.9970 c1        1 17J     -0.121750
     18 C23        -2.0930   -3.1000    6.9470 c1        1 17J     -0.121750
     19 C22        -1.5100   -2.6070    5.7890 c1        1 17J     -0.089000
     20 H2          1.6000    2.5840    0.4370 h1        1 17J      0.115750
     21 H3          2.7470    1.6240   -0.1030 h1        1 17J      0.115750
     22 H4          1.6060    0.7740    1.8340 h1        1 17J      0.120250
     23 H5          1.5390   -0.2280    0.5350 h1        1 17J      0.120250
     24 H6         -0.6710   -0.2080   -0.7660 h1        1 17J      0.120250
     25 H7         -1.8250    0.7780   -0.2240 h1        1 17J      0.120250
     26 H8         -0.6250    1.6500   -2.0960 h1        1 17J      0.115750
     27 H9         -0.5860    2.6190   -0.8770 h1        1 17J      0.115750
     28 H10        -4.2170   -2.3570    3.9680 ha        1 17J      0.138500
     29 H11        -5.2320   -3.1990    5.9340 ha        1 17J      0.138500
     30 H12        -3.8660   -3.6590    7.8020 ha        1 17J      0.138500
     31 H13        -1.5420   -3.2940    7.7220 ha        1 17J      0.138500
     32 H14        -0.5400   -2.4540    5.7540 ha        1 17J      0.148000
     33 C3          1.8730    1.5210   -4.9630 c1        1 17J      0.016000
     34 N1          1.1470    1.6370   -3.7720 n2        1 17J     -0.301000
     35 C4          2.1580    2.6360   -5.6950 c2        1 17J     -0.146000
     36 C1          2.7520    2.5170   -6.9140 c1        1 17J     -0.157000
     37 C5          3.0660    1.2670   -7.4100 c1        1 17J     -0.094000
     38 N2          2.7790    0.1410   -6.6730 n1        1 17J     -0.119000
     39 C7          2.1910    0.2570   -5.4660 c1        1 17J     -0.074000
     40 H1          0.2450    1.6650   -3.7950 hn        1 17J      0.229000
     41 H15         1.9220    3.5790   -5.3210 ha        1 17J      0.135000
     42 H16         2.9560    3.3170   -7.4390 ha        1 17J      0.144000
     43 H17         3.5030    1.1810   -8.3080 ha        1 17J      0.162000
     44 H18         1.9780   -0.5820   -4.9180 ha        1 17J      0.195000
@<TRIPOS>BOND
     1    1    2 1   
     2    1   34 1   
     3    3    4 1   
     4    3    8 1   
     5    4    5 1   
     6    4   20 1   
     7    4   21 1   
     8    5    6 1   
     9    5   22 1   
    10    5   23 1   
    11    6    7 1   
    12    6    9 1   
    13    7    8 1   
    14    7   24 1   
    15    7   25 1   
    16    8   26 1   
    17    8   27 1   
    18    9   10 1   
    19    9   13 1   
    20   10   11 1   
    21   11   12 1   
    22   12   13 1   
    23   14   19 1   
    24   15   16 1   
    25   15   28 1   
    26   16   29 1   
    27   17   18 1   
    28   17   30 1   
    29   18   31 1   
    30   19   32 1   
    31   33   35 1   
    32   33   39 1   
    33   34   40 1   
    34   35   36 1   
    35   35   41 1   
    36   36   42 1   
    37   37   38 1   
    38   37   43 1   
    39   39   44 1   
@<TRIPOS>SUBSTRUCTURE
     1 17J         1 TEMP              0 ****  ****    0 ROOT
