@<TRIPOS>MOLECULE
17K
   53    55     1     0     0
SMALL
bcc


@<TRIPOS>ATOM
      1 CAN        -0.2420    0.8090    0.1690 ca        1 17K     -0.118000
      2 CAJ         1.0640    1.2310    0.4100 ca        1 17K     -0.137000
      3 CAI         1.6860    0.9290    1.6210 ca        1 17K     -0.138000
      4 CAK         0.9970    0.2010    2.5900 ca        1 17K     -0.137000
      5 CAO        -0.3100   -0.2210    2.3550 ca        1 17K     -0.118000
      6 CAY        -0.9410    0.0820    1.1410 ca        1 17K     -0.072300
      7 CAS        -2.3490   -0.3170    0.8890 c3        1 17K     -0.091100
      8 CAX        -2.6530   -1.7480    1.2230 c         1 17K      0.681100
      9 OAD        -2.3370   -2.3930    2.2280 o         1 17K     -0.586000
     10 OAV        -3.3960   -2.3500    0.2480 os        1 17K     -0.436900
     11 CG1        -4.0580   -3.5870    0.5500 c3        1 17K      0.154400
     12 CB         -5.5260   -3.3430    0.9000 c3        1 17K     -0.058700
     13 SBE        -5.8250   -2.3950    2.3830 s4        1 17K      0.570700
     14 OAE        -4.9460   -1.2060    2.2950 o         1 17K     -0.578200
     15 OAF        -4.8970   -3.2400    3.5260 oh        1 17K     -0.591800
     16 CG2        -6.2150   -2.5820   -0.2140 c3        1 17K     -0.098100
     17 CA         -6.1620   -4.7410    1.1230 c3        1 17K      0.057500
     18 C          -5.9170   -5.6450   -0.1420 c         1 17K      0.897600
     19 OXT        -4.9810   -6.4850   -0.0380 o         1 17K     -0.812300
     20 O          -6.6660   -5.4910   -1.1390 o         1 17K     -0.812300
     21 N          -7.5640   -4.5980    1.4710 nh        1 17K     -0.700000
     22 CBA        -8.2710   -5.5640    2.1680 cc        1 17K      0.219900
     23 NBD        -7.8510   -6.8150    2.6550 na        1 17K     -0.002300
     24 CAQ        -6.6940   -7.5550    2.4650 cc        1 17K     -0.045300
     25 CAM        -6.5220   -8.7540    3.1070 cd        1 17K     -0.202000
     26 CAL        -7.5330   -9.2820    3.9730 cd        1 17K     -0.131000
     27 CAP        -8.7000   -8.6020    4.1440 cc        1 17K     -0.118000
     28 CBB        -8.9010   -7.3530    3.4740 cc        1 17K     -0.085300
     29 CAR        -9.9840   -6.4730    3.4480 cd        1 17K     -0.157000
     30 CAZ        -9.6170   -5.3540    2.6330 cd        1 17K     -0.309200
     31 CAH       -10.4640   -4.2350    2.3380 c         1 17K      0.610100
     32 OAB       -10.1760   -3.2780    1.6050 o         1 17K     -0.589100
     33 H1         -0.7260    1.0460   -0.7900 ha        1 17K      0.147000
     34 H2          1.6050    1.8000   -0.3590 ha        1 17K      0.124500
     35 H3          2.7160    1.2610    1.8090 ha        1 17K      0.121000
     36 H4          1.4860   -0.0460    3.5440 ha        1 17K      0.124500
     37 H5         -0.8530   -0.8130    3.1110 ha        1 17K      0.147000
     38 H6         -3.0490    0.2850    1.5410 hc        1 17K      0.097700
     39 H7         -2.6310   -0.1240   -0.1810 hc        1 17K      0.097700
     40 H8         -3.9800   -4.1770   -0.4060 h1        1 17K      0.095200
     41 H9         -3.5400   -4.1320    1.3810 h1        1 17K      0.095200
     42 H11        -3.9770   -2.9590    3.5340 ho        1 17K      0.458000
     43 H12        -5.5640   -1.7430   -0.5640 hc        1 17K      0.058367
     44 H13        -6.4170   -3.2700   -1.0770 hc        1 17K      0.058367
     45 H14        -7.1900   -2.1580    0.1330 hc        1 17K      0.058367
     46 H15        -5.6140   -5.1960    2.0010 h1        1 17K      0.069700
     47 H17        -8.1110   -4.2340    0.7040 hn        1 17K      0.443800
     48 H18        -5.9410   -7.1670    1.7400 h4        1 17K      0.230000
     49 H19        -5.6010   -9.3270    2.9380 ha        1 17K      0.145000
     50 H20        -7.3470  -10.2400    4.4760 ha        1 17K      0.121000
     51 H21        -9.5150   -8.9670    4.7810 ha        1 17K      0.129000
     52 H22       -10.9340   -6.6060    3.9550 ha        1 17K      0.141000
     53 H23       -11.4660   -4.2790    2.8310 h4        1 17K     -0.028800
@<TRIPOS>BOND
     1    1    2 ar  
     2    1    6 ar  
     3    1   33 1   
     4    2    3 ar  
     5    2   34 1   
     6    3    4 ar  
     7    3   35 1   
     8    4    5 ar  
     9    4   36 1   
    10    5    6 ar  
    11    5   37 1   
    12    6    7 1   
    13    7    8 1   
    14    7   38 1   
    15    7   39 1   
    16    8    9 2   
    17    8   10 1   
    18   10   11 1   
    19   11   12 1   
    20   11   40 1   
    21   11   41 1   
    22   12   13 1   
    23   12   16 1   
    24   12   17 1   
    25   13   14 2   
    26   13   15 1   
    27   15   42 1   
    28   16   43 1   
    29   16   44 1   
    30   16   45 1   
    31   17   18 1   
    32   17   21 1   
    33   17   46 1   
    34   18   19 1   
    35   18   20 1   
    36   21   22 1   
    37   21   47 1   
    38   22   23 1   
    39   22   30 2   
    40   23   24 1   
    41   23   28 1   
    42   24   25 2   
    43   24   48 1   
    44   25   26 1   
    45   25   49 1   
    46   26   27 2   
    47   26   50 1   
    48   27   28 1   
    49   27   51 1   
    50   28   29 2   
    51   29   30 1   
    52   29   52 1   
    53   30   31 1   
    54   31   32 2   
    55   31   53 1   
@<TRIPOS>SUBSTRUCTURE
     1 17K         1 TEMP              0 ****  ****    0 ROOT
