@<TRIPOS>MOLECULE
17K
   53    44     1     0     0
SMALL
bcc


@<TRIPOS>ATOM
      1 CAN         5.0800    3.7550   -2.2060 c1        1 17K     -0.109000
      2 CAJ         6.4570    3.7860   -2.4030 c1        1 17K     -0.124250
      3 CAI         7.3240    3.8560   -1.2950 c1        1 17K     -0.124250
      4 CAK         6.7910    3.8940    0.0080 c1        1 17K     -0.124250
      5 CAO         5.4240    3.8630    0.1940 c1        1 17K     -0.124250
      6 CAY         4.5590    3.7920   -0.9180 c1        1 17K     -0.077000
      7 CAS         3.0410    3.8090   -0.7050 c3        1 17K     -0.120000
      8 CAX         2.5270    2.4010   -0.5550 c1        1 17K      0.303000
      9 OAD         3.2920    1.4550   -0.6730 o         1 17K     -0.372000
     10 OAV         1.1020    2.1650   -0.3620 o         1 17K     -0.262000
     11 CG1         0.7650    0.7800   -0.1300 c3        1 17K     -0.015000
     12 CB         -0.7090    0.6430    0.0020 c3        1 17K     -0.488000
     13 SBE        -1.2540    1.4230    1.5330 ss        1 17K      1.454000
     14 OAE        -1.0710    0.7230    2.8270 o         1 17K     -0.799000
     15 OAF        -2.0160    2.7660    1.4830 o         1 17K     -0.611000
     16 CG2        -1.3940    1.3300   -1.2080 c3        1 17K     -0.203000
     17 CA         -1.0800   -0.8230    0.0280 c3        1 17K     -0.077000
     18 C          -1.0470   -1.3720   -1.3660 c2        1 17K      0.313000
     19 OXT         0.0400   -1.9650   -1.8150 o         1 17K     -0.552500
     20 O          -2.1070   -1.2950   -2.1220 o         1 17K     -0.552500
     21 N          -2.4280   -0.9830    0.5820 n3        1 17K     -0.256000
     22 CBA        -2.9330   -2.3250    0.8980 c2        1 17K      0.172000
     23 NBD        -2.9440   -3.6430    0.5140 n2        1 17K     -0.075000
     24 CAQ        -2.2010   -4.3340   -0.4150 c1        1 17K     -0.124250
     25 CAM        -2.4470   -5.6710   -0.6390 c1        1 17K     -0.124250
     26 CAL        -3.4520   -6.3250    0.0760 c1        1 17K     -0.124250
     27 CAP        -4.1830   -5.6430    0.9900 c1        1 17K     -0.124250
     28 CBB        -3.9290   -4.2810    1.2150 c1        1 17K     -0.060000
     29 CAR        -4.5400   -3.3440    2.0480 c1        1 17K     -0.158000
     30 CAZ        -3.9260   -2.1470    1.8510 c1        1 17K     -0.283000
     31 CAH        -4.8170   -1.2780    2.7360 c1        1 17K      0.260000
     32 OAB        -4.7170   -0.0700    2.6910 o         1 17K     -0.350000
     33 H1          4.4980    3.7090   -2.9460 ha        1 17K      0.168000
     34 H2          6.8270    3.7580   -3.3290 ha        1 17K      0.141250
     35 H3          8.2880    3.7850   -1.4240 ha        1 17K      0.141250
     36 H4          7.4190    3.9460    0.8230 ha        1 17K      0.141250
     37 H5          5.0550    3.9170    1.0910 ha        1 17K      0.141250
     38 H6          2.8370    4.3090    0.0890 hc        1 17K      0.119000
     39 H7          2.5870    4.2550   -1.5190 hc        1 17K      0.119000
     40 H8          1.0660    0.2530   -0.8640 h1        1 17K      0.138000
     41 H9          1.1930    0.4750    0.6830 h1        1 17K      0.138000
     42 H11        -2.4280    2.9010    2.2520 ho        1 17K      0.266000
     43 H12        -1.2150    2.2810   -1.1810 hc        1 17K      0.093667
     44 H13        -1.0420    0.9580   -2.0320 hc        1 17K      0.093667
     45 H14        -2.3110    1.1850   -1.1710 hc        1 17K      0.093667
     46 H15        -0.4130   -1.3320    0.6110 h1        1 17K      0.110000
     47 H17        -2.9620   -0.2740    0.6690 hn        1 17K      0.235000
     48 H18        -1.3010   -4.2730   -0.8060 ha        1 17K      0.141250
     49 H19        -1.9540   -6.2850   -1.2090 ha        1 17K      0.141250
     50 H20        -3.7240   -7.2890   -0.0500 ha        1 17K      0.141250
     51 H21        -4.8980   -6.0320    1.4340 ha        1 17K      0.141250
     52 H22        -5.3530   -3.4880    2.5690 DU        1 17K      0.141000
     53 H23        -5.3750   -1.7040    3.4460 ha        1 17K      0.064000
@<TRIPOS>BOND
     1    1    6 1   
     2    1   33 1   
     3    2    3 1   
     4    2   34 1   
     5    3   35 1   
     6    4    5 1   
     7    4   36 1   
     8    5   37 1   
     9    6    7 1   
    10    7    8 1   
    11    7   38 1   
    12    7   39 1   
    13    8    9 1   
    14   10   11 1   
    15   11   12 1   
    16   11   40 1   
    17   11   41 1   
    18   12   13 1   
    19   12   16 1   
    20   12   17 1   
    21   13   14 1   
    22   15   42 1   
    23   16   43 1   
    24   16   44 1   
    25   16   45 1   
    26   17   18 1   
    27   17   21 1   
    28   17   46 1   
    29   18   19 1   
    30   18   20 1   
    31   21   22 1   
    32   21   47 1   
    33   22   23 1   
    34   22   30 1   
    35   23   28 1   
    36   24   25 1   
    37   24   48 1   
    38   25   49 1   
    39   26   27 1   
    40   26   50 1   
    41   27   51 1   
    42   29   30 1   
    43   31   32 1   
    44   31   53 1   
@<TRIPOS>SUBSTRUCTURE
     1 17K         1 TEMP              0 ****  ****    0 ROOT
