@<TRIPOS>MOLECULE
17K
   53    55     1     0     0
SMALL
bcc


@<TRIPOS>ATOM
      1 CAN        -0.2570    0.8140    0.1660 ca        1 17K     -0.118000
      2 CAJ         1.0450    1.2460    0.4150 ca        1 17K     -0.137000
      3 CAI         1.6560    0.9600    1.6350 ca        1 17K     -0.138000
      4 CAK         0.9610    0.2380    2.6050 ca        1 17K     -0.137000
      5 CAO        -0.3410   -0.1940    2.3610 ca        1 17K     -0.118000
      6 CAY        -0.9610    0.0930    1.1380 ca        1 17K     -0.072300
      7 CAS        -2.3650   -0.3170    0.8760 c3        1 17K     -0.091100
      8 CAX        -2.6640   -1.7450    1.2210 c         1 17K      0.681100
      9 OAD        -2.3550   -2.3790    2.2360 o         1 17K     -0.586000
     10 OAV        -3.3950   -2.3620    0.2460 os        1 17K     -0.436900
     11 CG1        -4.0530   -3.5980    0.5540 c3        1 17K      0.154400
     12 CB         -5.5260   -3.3590    0.8880 c3        1 17K     -0.058700
     13 SBE        -5.8440   -2.3970    2.3580 s4        1 17K      0.570700
     14 OAE        -4.9690   -1.2050    2.2670 o         1 17K     -0.578200
     15 OAF        -4.9220   -3.2260    3.5190 oh        1 17K     -0.591800
     16 CG2        -6.2080   -2.6130   -0.2400 c3        1 17K     -0.098100
     17 CA         -6.1560   -4.7580    1.1190 c3        1 17K      0.057500
     18 C          -5.8960   -5.6740   -0.1340 c         1 17K      0.897600
     19 OXT        -4.9560   -6.5080   -0.0130 o         1 17K     -0.812300
     20 O          -6.6360   -5.5330   -1.1390 o         1 17K     -0.812300
     21 N          -7.5620   -4.6190    1.4530 nu        1 17K     -0.700000
     22 CBA        -8.2710   -5.5820    2.1540 cc        1 17K      0.219900
     23 NBD        -7.8490   -6.8250    2.6570 na        1 17K     -0.002300
     24 CAQ        -6.6860   -7.5610    2.4860 cc        1 17K     -0.045300
     25 CAM        -6.5140   -8.7520    3.1420 cd        1 17K     -0.202000
     26 CAL        -7.5300   -9.2760    4.0040 cd        1 17K     -0.131000
     27 CAP        -8.7020   -8.6000    4.1570 cc        1 17K     -0.118000
     28 CBB        -8.9030   -7.3590    3.4730 cc        1 17K     -0.085300
     29 CAR        -9.9910   -6.4860    3.4280 cd        1 17K     -0.157000
     30 CAZ        -9.6220   -5.3730    2.6050 cd        1 17K     -0.309200
     31 CAH       -10.4720   -4.2620    2.2910 c         1 17K      0.610100
     32 OAB       -10.1820   -3.3110    1.5500 o         1 17K     -0.589100
     33 H1         -0.7320    1.0390   -0.8010 ha        1 17K      0.147000
     34 H2          1.5900    1.8110   -0.3540 ha        1 17K      0.124500
     35 H3          2.6830    1.3000    1.8300 ha        1 17K      0.121000
     36 H4          1.4420    0.0030    3.5660 ha        1 17K      0.124500
     37 H5         -0.8890   -0.7820    3.1170 ha        1 17K      0.147000
     38 H6         -3.0740    0.2880    1.5140 hc        1 17K      0.097700
     39 H7         -2.6360   -0.1360   -0.2000 hc        1 17K      0.097700
     40 H8         -3.5400   -4.1330    1.3960 h1        1 17K      0.095200
     41 H9         -3.9630   -4.1980   -0.3950 h1        1 17K      0.095200
     42 H11        -4.0040   -2.9400    3.5320 ho        1 17K      0.458000
     43 H12        -6.3980   -3.3110   -1.0970 hc        1 17K      0.058367
     44 H13        -7.1890   -2.1900    0.0930 hc        1 17K      0.058367
     45 H14        -5.5580   -1.7740   -0.5930 hc        1 17K      0.058367
     46 H15        -5.6140   -5.2010    2.0070 h1        1 17K      0.069700
     47 H17        -8.1050   -4.2660    0.6770 hn        1 17K      0.443800
     48 H18        -5.9290   -7.1760    1.7630 h4        1 17K      0.230000
     49 H19        -5.5890   -9.3220    2.9870 ha        1 17K      0.145000
     50 H20        -7.3440  -10.2280    4.5190 ha        1 17K      0.121000
     51 H21        -9.5210   -8.9630    4.7910 ha        1 17K      0.129000
     52 H22       -10.9450   -6.6190    3.9280 ha        1 17K      0.141000
     53 H23       -11.4780   -4.3060    2.7750 h4        1 17K     -0.028800
@<TRIPOS>BOND
     1    1    2 ar  
     2    1    6 ar  
     3    1   33 1   
     4    2    3 ar  
     5    2   34 1   
     6    3    4 ar  
     7    3   35 1   
     8    4    5 ar  
     9    4   36 1   
    10    5    6 ar  
    11    5   37 1   
    12    6    7 1   
    13    7    8 1   
    14    7   38 1   
    15    7   39 1   
    16    8    9 2   
    17    8   10 1   
    18   10   11 1   
    19   11   12 1   
    20   11   40 1   
    21   11   41 1   
    22   12   13 1   
    23   12   16 1   
    24   12   17 1   
    25   13   14 2   
    26   13   15 1   
    27   15   42 1   
    28   16   43 1   
    29   16   44 1   
    30   16   45 1   
    31   17   18 1   
    32   17   21 1   
    33   17   46 1   
    34   18   19 1   
    35   18   20 1   
    36   21   22 1   
    37   21   47 1   
    38   22   23 1   
    39   22   30 2   
    40   23   24 1   
    41   23   28 1   
    42   24   25 2   
    43   24   48 1   
    44   25   26 1   
    45   25   49 1   
    46   26   27 2   
    47   26   50 1   
    48   27   28 1   
    49   27   51 1   
    50   28   29 2   
    51   29   30 1   
    52   29   52 1   
    53   30   31 1   
    54   31   32 2   
    55   31   53 1   
@<TRIPOS>SUBSTRUCTURE
     1 17K         1 TEMP              0 ****  ****    0 ROOT
