@<TRIPOS>MOLECULE
17K
   53    55     1     0     0
SMALL
bcc


@<TRIPOS>ATOM
      1 CAN        -6.8480    0.6980    0.6730 ca        1 17K     -0.118000
      2 CAJ        -8.1130    0.2390    0.3120 ca        1 17K     -0.137000
      3 CAI        -8.2900   -0.4620   -0.8800 ca        1 17K     -0.138000
      4 CAK        -7.1960   -0.7050   -1.7100 ca        1 17K     -0.137000
      5 CAO        -5.9300   -0.2450   -1.3540 ca        1 17K     -0.118000
      6 CAY        -5.7460    0.4620   -0.1590 ca        1 17K     -0.072300
      7 CAS        -4.4130    1.0000    0.2160 c3        1 17K     -0.091100
      8 CAX        -3.2910    0.0140    0.0850 c         1 17K      0.681100
      9 OAD        -3.0460   -0.7630   -0.8440 o         1 17K     -0.586000
     10 OAV        -2.4580    0.0450    1.1670 os        1 17K     -0.436900
     11 CG1        -1.1660   -0.5700    1.0620 c3        1 17K      0.154400
     12 CB         -0.0920    0.4750    0.7610 c3        1 17K     -0.058700
     13 SBE        -0.2330    1.3050   -0.8130 s4        1 17K      0.570700
     14 OAE        -1.6450    1.7370   -0.9250 o         1 17K     -0.578200
     15 OAF        -0.3440   -0.0070   -1.8860 oh        1 17K     -0.591800
     16 CG2        -0.1190    1.5750    1.8030 c3        1 17K     -0.098100
     17 CA          1.2640   -0.2800    0.7540 c3        1 17K      0.057500
     18 C           1.4490   -1.0570    2.1090 c         1 17K      0.897600
     19 OXT         1.2040   -2.2950    2.0650 o         1 17K     -0.812300
     20 O           1.8390   -0.4160    3.1170 o         1 17K     -0.812300
     21 N           2.3440    0.6460    0.4650 nh        1 17K     -0.700000
     22 CBA         3.5610    0.2450   -0.0640 cc        1 17K      0.219900
     23 NBD         4.0160   -1.0400   -0.4080 na        1 17K     -0.002300
     24 CAQ         3.5010   -2.3090   -0.1860 cc        1 17K     -0.045300
     25 CAM         4.1430   -3.4160   -0.6770 cd        1 17K     -0.202000
     26 CAL         5.3650   -3.2970   -1.4130 cd        1 17K     -0.131000
     27 CAP         5.9210   -2.0690   -1.6080 cc        1 17K     -0.118000
     28 CBB         5.2700   -0.9030   -1.0950 cc        1 17K     -0.085300
     29 CAR         5.6180    0.4480   -1.1250 cd        1 17K     -0.157000
     30 CAZ         4.5710    1.1820   -0.4810 cd        1 17K     -0.309200
     31 CAH         4.5580    2.6040   -0.2870 c         1 17K      0.610100
     32 OAB         3.6780    3.2500    0.3010 o         1 17K     -0.589100
     33 H1         -6.7130    1.2460    1.6180 ha        1 17K      0.147000
     34 H2         -8.9720    0.4280    0.9720 ha        1 17K      0.124500
     35 H3         -9.2890   -0.8240   -1.1630 ha        1 17K      0.121000
     36 H4         -7.3300   -1.2630   -2.6480 ha        1 17K      0.124500
     37 H5         -5.0570   -0.4510   -1.9980 ha        1 17K      0.147000
     38 H6         -4.1290    1.8520   -0.4710 hc        1 17K      0.097700
     39 H7         -4.4280    1.4000    1.2660 hc        1 17K      0.097700
     40 H8         -0.9960   -1.0200    2.0800 h1        1 17K      0.095200
     41 H9         -1.1630   -1.3750    0.2810 h1        1 17K      0.095200
     42 H11        -1.2450   -0.3310   -1.9780 ho        1 17K      0.458000
     43 H12         0.3440    1.2070    2.7560 hc        1 17K      0.058367
     44 H13         0.4540    2.4700    1.4560 hc        1 17K      0.058367
     45 H14        -1.1740    1.8820    2.0080 hc        1 17K      0.058367
     46 H15         1.1960   -1.0330   -0.0870 h1        1 17K      0.069700
     47 H17         2.4780    1.3190    1.2060 hn        1 17K      0.443800
     48 H18         2.5840   -2.3950    0.4420 h4        1 17K      0.230000
     49 H19         3.7220   -4.4110   -0.4850 ha        1 17K      0.145000
     50 H20         5.8380   -4.2100   -1.7990 ha        1 17K      0.121000
     51 H21         6.8640   -1.9210   -2.1500 ha        1 17K      0.129000
     52 H22         6.5180    0.8720   -1.5590 ha        1 17K      0.141000
     53 H23         5.4450    3.1300   -0.7170 h4        1 17K     -0.028800
@<TRIPOS>BOND
     1    1    2 ar  
     2    1    6 ar  
     3    1   33 1   
     4    2    3 ar  
     5    2   34 1   
     6    3    4 ar  
     7    3   35 1   
     8    4    5 ar  
     9    4   36 1   
    10    5    6 ar  
    11    5   37 1   
    12    6    7 1   
    13    7    8 1   
    14    7   38 1   
    15    7   39 1   
    16    8    9 2   
    17    8   10 1   
    18   10   11 1   
    19   11   12 1   
    20   11   40 1   
    21   11   41 1   
    22   12   13 1   
    23   12   16 1   
    24   12   17 1   
    25   13   14 2   
    26   13   15 1   
    27   15   42 1   
    28   16   43 1   
    29   16   44 1   
    30   16   45 1   
    31   17   18 1   
    32   17   21 1   
    33   17   46 1   
    34   18   19 1   
    35   18   20 1   
    36   21   22 1   
    37   21   47 1   
    38   22   23 1   
    39   22   30 2   
    40   23   24 1   
    41   23   28 1   
    42   24   25 2   
    43   24   48 1   
    44   25   26 1   
    45   25   49 1   
    46   26   27 2   
    47   26   50 1   
    48   27   28 1   
    49   27   51 1   
    50   28   29 2   
    51   29   30 1   
    52   29   52 1   
    53   30   31 1   
    54   31   32 2   
    55   31   53 1   
@<TRIPOS>SUBSTRUCTURE
     1 17K         1 TEMP              0 ****  ****    0 ROOT
