@<TRIPOS>MOLECULE
17K
   54    56     1     0     0
SMALL
bcc


@<TRIPOS>ATOM
      1 CAN        -0.9100    0.9500    0.1800 ca        1 17K     -0.115500
      2 CAJ         0.2380    0.9560   -0.6120 ca        1 17K     -0.128000
      3 CAI         1.3610    0.2280   -0.2220 ca        1 17K     -0.121000
      4 CAK         1.3360   -0.5090    0.9630 ca        1 17K     -0.128000
      5 CAO         0.1920   -0.5150    1.7580 ca        1 17K     -0.115500
      6 CAY        -0.9370    0.2160    1.3710 ca        1 17K     -0.096300
      7 CAS        -2.1510    0.2480    2.2320 c3        1 17K     -0.077100
      8 CAX        -2.5880   -1.1280    2.6420 c         1 17K      0.642100
      9 OAD        -2.0520   -1.9120    3.4240 o         1 17K     -0.520000
     10 OAV        -3.7800   -1.4920    2.0700 os        1 17K     -0.468900
     11 CG1        -4.2300   -2.8360    2.3210 c3        1 17K      0.141400
     12 CB         -5.5030   -3.0490    1.4870 c3        1 17K     -0.042700
     13 SBE        -6.6490   -1.7900    2.0590 s4        1 17K      0.564700
     14 OAE        -7.5600   -2.4650    2.9960 o         1 17K     -0.553200
     15 OAF        -7.7220   -1.8090    0.7300 oh        1 17K     -0.610800
     16 CG2        -5.2200   -2.7820    0.0220 c3        1 17K     -0.088100
     17 CA         -5.9140   -4.5110    1.7140 c3        1 17K     -0.016500
     18 C          -4.8610   -5.4780    1.0020 c         1 17K      0.921600
     19 OXT        -3.8030   -5.6890    1.6210 o         1 17K     -0.769300
     20 O          -5.2310   -5.9600   -0.1060 o         1 17K     -0.769300
     21 N          -7.2900   -4.8270    1.1790 n4        1 17K     -0.598800
     22 CBA        -8.0390   -5.7330    2.0220 cc        1 17K     -0.081100
     23 NBD        -7.7540   -7.0890    2.2430 na        1 17K      0.081700
     24 CAQ        -6.8230   -7.9440    1.6790 cc        1 17K     -0.088300
     25 CAM        -6.7830   -9.2630    2.0710 cd        1 17K     -0.143000
     26 CAL        -7.6920   -9.7700    3.0420 cd        1 17K     -0.105000
     27 CAP        -8.6330   -8.9430    3.5950 cc        1 17K     -0.115000
     28 CBB        -8.6870   -7.5770    3.1970 cc        1 17K     -0.029300
     29 CAR        -9.5510   -6.5150    3.5700 cd        1 17K     -0.170000
     30 CAZ        -9.1590   -5.3720    2.8360 cd        1 17K     -0.155200
     31 CAH        -9.8170   -4.0720    2.8550 c         1 17K      0.639100
     32 OAB        -9.7850   -3.3000    1.8900 o         1 17K     -0.575100
     33 H1         -1.7950    1.5230   -0.1360 ha        1 17K      0.143000
     34 H2          0.2540    1.5340   -1.5470 ha        1 17K      0.135500
     35 H3          2.2650    0.2310   -0.8490 ha        1 17K      0.134000
     36 H4          2.2180   -1.0890    1.2700 ha        1 17K      0.135500
     37 H5          0.1630   -1.1070    2.6890 ha        1 17K      0.143000
     38 H6         -1.9250    0.8190    3.1750 hc        1 17K      0.082200
     39 H7         -2.9970    0.7650    1.7030 hc        1 17K      0.082200
     40 H8         -3.4250   -3.5650    2.0230 h1        1 17K      0.095200
     41 H9         -4.4420   -2.9450    3.4170 h1        1 17K      0.095200
     42 H11        -8.6410   -1.7680    1.0080 ho        1 17K      0.470000
     43 H12        -6.1480   -2.8990   -0.5900 hc        1 17K      0.065033
     44 H13        -4.4520   -3.5010   -0.3630 hc        1 17K      0.065033
     45 H14        -4.8290   -1.7430   -0.1080 hc        1 17K      0.065033
     46 H15        -5.9120   -4.7280    2.8190 hx        1 17K      0.110700
     47 H17        -7.1380   -5.2570    0.2390 hn        1 17K      0.478800
     48 H18        -6.1270   -7.5220    0.9200 h4        1 17K      0.236000
     49 H19        -6.0310   -9.9290    1.6220 ha        1 17K      0.169000
     50 H20        -7.6240  -10.8290    3.3330 ha        1 17K      0.150000
     51 H21        -9.3610   -9.2860    4.3430 ha        1 17K      0.158000
     52 H22       -10.3670   -6.5850    4.2850 ha        1 17K      0.171000
     53 H23       -10.3740   -3.8290    3.7850 h4        1 17K      0.028200
     54 H24        -7.8620   -3.9710    1.0790 hn        1 17K      0.478800
@<TRIPOS>BOND
     1    1    2 ar  
     2    1    6 ar  
     3    1   33 1   
     4    2    3 ar  
     5    2   34 1   
     6    3    4 ar  
     7    3   35 1   
     8    4    5 ar  
     9    4   36 1   
    10    5    6 ar  
    11    5   37 1   
    12    6    7 1   
    13    7    8 1   
    14    7   38 1   
    15    7   39 1   
    16    8    9 2   
    17    8   10 1   
    18   10   11 1   
    19   11   12 1   
    20   11   40 1   
    21   11   41 1   
    22   12   13 1   
    23   12   16 1   
    24   12   17 1   
    25   13   14 2   
    26   13   15 1   
    27   15   42 1   
    28   16   43 1   
    29   16   44 1   
    30   16   45 1   
    31   17   18 1   
    32   17   21 1   
    33   17   46 1   
    34   18   19 1   
    35   18   20 1   
    36   21   22 1   
    37   21   47 1   
    38   21   54 1   
    39   22   23 1   
    40   22   30 2   
    41   23   24 1   
    42   23   28 1   
    43   24   25 2   
    44   24   48 1   
    45   25   26 1   
    46   25   49 1   
    47   26   27 2   
    48   26   50 1   
    49   27   28 1   
    50   27   51 1   
    51   28   29 2   
    52   29   30 1   
    53   29   52 1   
    54   30   31 1   
    55   31   32 2   
    56   31   53 1   
@<TRIPOS>SUBSTRUCTURE
     1 17K         1 TEMP              0 ****  ****    0 ROOT
