@<TRIPOS>MOLECULE
17L
   67    71     1     0     0
SMALL
bcc


@<TRIPOS>ATOM
      1 C1         -0.2390   -1.5570   -0.0570 ce        1 17L     -0.339400
      2 C2          1.0950   -1.8580   -0.0110 cf        1 17L      0.225100
      3 C3          1.8190   -1.9390    1.2600 cf        1 17L     -0.195000
      4 C4          1.2100   -1.3890    2.3210 c2        1 17L      0.093900
      5 C5         -0.0800   -0.5860    2.2620 c3        1 17L     -0.059500
      6 C6         -0.9680   -1.1790    1.1680 c         1 17L      0.611300
      7 O7          1.6000   -1.6280    3.6580 os        1 17L     -0.274200
      8 C8          0.4950   -1.2790    4.4490 ca        1 17L      0.205100
      9 C9         -0.5350   -0.6910    3.6930 ca        1 17L     -0.200300
     10 C10         0.4330   -1.4910    5.8310 ca        1 17L     -0.294600
     11 C11        -0.7880   -1.0790    6.4610 ca        1 17L      0.283100
     12 C12        -1.8240   -0.4840    5.7380 ca        1 17L     -0.337000
     13 C13        -1.6990   -0.2640    4.3500 ca        1 17L      0.304100
     14 O14        -2.1870   -1.2750    1.3040 o         1 17L     -0.485100
     15 C15        -1.0130   -1.6760   -1.3210 c         1 17L      0.602300
     16 C16        -1.8830   -0.5120   -1.6620 c3        1 17L     -0.198100
     17 O17        -0.9280   -2.6830   -2.0270 o         1 17L     -0.497100
     18 O18         1.7510   -2.1350   -1.1730 oh        1 17L     -0.445100
     19 C19         0.1830    0.8740    1.9020 c3        1 17L     -0.083100
     20 O20        -2.6450    0.3730    3.6180 oh        1 17L     -0.437100
     21 C21         1.4950   -2.0440    6.6480 c         1 17L      0.593700
     22 O22         1.6810   -1.9220    7.8520 o         1 17L     -0.422100
     23 N23         2.5090   -2.8990    5.9090 ny        1 17L     -0.674800
     24 C24         3.3190   -3.7790    6.8110 c3        1 17L      0.173100
     25 C25         4.3090   -4.5710    6.0230 ca        1 17L     -0.149300
     26 C26         4.0630   -5.9090    5.8120 ca        1 17L     -0.089000
     27 C27         5.0000   -6.6960    5.0790 ca        1 17L      0.129100
     28 C28         6.1490   -6.1260    4.5680 ca        1 17L     -0.166000
     29 C29         6.4100   -4.7470    4.7840 ca        1 17L     -0.005000
     30 C30         5.4950   -3.9520    5.5250 ca        1 17L     -0.050000
     31 C31         7.5950   -4.1500    4.2680 ca        1 17L     -0.107000
     32 C32         7.8620   -2.8210    4.4870 ca        1 17L     -0.114000
     33 C33         6.9610   -2.0320    5.2410 ca        1 17L     -0.096000
     34 C34         5.8080   -2.5830    5.7460 ca        1 17L     -0.162000
     35 O35        -0.8400   -1.3320    7.7990 os        1 17L     -0.302900
     36 C36        -2.0160   -0.9190    8.5050 c3        1 17L      0.106700
     37 O37         4.6250   -8.0100    4.9390 os        1 17L     -0.324900
     38 C38         5.5780   -8.8770    4.2980 c3        1 17L      0.127400
     39 C39         4.9710  -10.2590    4.3420 c3        1 17L     -0.103100
     40 H3          2.7650   -2.4930    1.3080 ha        1 17L      0.168000
     41 H12        -2.7490   -0.1740    6.2460 ha        1 17L      0.172000
     42 H16        -2.3260   -0.6440   -2.6790 hc        1 17L      0.073700
     43 H16A       -1.2870    0.4320   -1.6430 hc        1 17L      0.073700
     44 H16B       -2.7100   -0.4360   -0.9120 hc        1 17L      0.073700
     45 HO18        2.6430   -2.4570   -0.9660 ho        1 17L      0.436000
     46 H19        -0.7770    1.4430    1.9770 hc        1 17L      0.065700
     47 H19A        0.9260    1.3190    2.6060 hc        1 17L      0.065700
     48 H19B        0.5760    0.9520    0.8600 hc        1 17L      0.065700
     49 HO20       -3.4320    0.5220    4.1710 ho        1 17L      0.451000
     50 HN23        2.0140   -3.4750    5.2180 hn        1 17L      0.461800
     51 H24         3.8330   -3.1220    7.5720 hx        1 17L      0.115200
     52 H24A        2.6000   -4.4500    7.3630 hx        1 17L      0.115200
     53 H26         3.1630   -6.4090    6.2030 ha        1 17L      0.159000
     54 H28         6.8810   -6.7170    3.9970 ha        1 17L      0.159000
     55 H31         8.2950   -4.7790    3.6950 ha        1 17L      0.150000
     56 H32         8.7790   -2.3580    4.0910 ha        1 17L      0.154000
     57 H33         7.2040   -0.9740    5.4260 ha        1 17L      0.148000
     58 H34         5.1440   -1.9610    6.3630 ha        1 17L      0.113000
     59 H36        -2.1480    0.1870    8.4280 h1        1 17L      0.069367
     60 H36A       -1.7860   -1.2220    9.5600 h1        1 17L      0.069367
     61 H36B       -2.9100   -1.4640    8.1180 h1        1 17L      0.069367
     62 H38         6.5490   -8.8370    4.8580 h1        1 17L      0.045700
     63 H38A        5.7330   -8.5310    3.2420 h1        1 17L      0.045700
     64 H39         3.9910  -10.2750    3.8070 hc        1 17L      0.058033
     65 H39A        4.8000  -10.5800    5.3980 hc        1 17L      0.058033
     66 H39B        5.6690  -10.9770    3.8490 hc        1 17L      0.058033
     67 H232        3.1420   -2.2790    5.3840 hn        1 17L      0.461800
@<TRIPOS>BOND
     1    1    2 2   
     2    1    6 1   
     3    1   15 1   
     4    2    3 1   
     5    2   18 1   
     6    3    4 2   
     7    3   40 1   
     8    4    5 1   
     9    4    7 1   
    10    5    6 1   
    11    5    9 1   
    12    5   19 1   
    13    6   14 2   
    14    7    8 1   
    15    8    9 ar  
    16    8   10 ar  
    17    9   13 ar  
    18   10   11 ar  
    19   10   21 1   
    20   11   12 ar  
    21   11   35 1   
    22   12   13 ar  
    23   12   41 1   
    24   13   20 1   
    25   15   16 1   
    26   15   17 2   
    27   16   42 1   
    28   16   43 1   
    29   16   44 1   
    30   18   45 1   
    31   19   46 1   
    32   19   47 1   
    33   19   48 1   
    34   20   49 1   
    35   21   22 2   
    36   21   23 1   
    37   23   24 1   
    38   23   50 1   
    39   23   67 1   
    40   24   25 1   
    41   24   51 1   
    42   24   52 1   
    43   25   26 ar  
    44   25   30 ar  
    45   26   27 ar  
    46   26   53 1   
    47   27   28 ar  
    48   27   37 1   
    49   28   29 ar  
    50   28   54 1   
    51   29   30 ar  
    52   29   31 ar  
    53   30   34 ar  
    54   31   32 ar  
    55   31   55 1   
    56   32   33 ar  
    57   32   56 1   
    58   33   34 ar  
    59   33   57 1   
    60   34   58 1   
    61   35   36 1   
    62   36   59 1   
    63   36   60 1   
    64   36   61 1   
    65   37   38 1   
    66   38   39 1   
    67   38   62 1   
    68   38   63 1   
    69   39   64 1   
    70   39   65 1   
    71   39   66 1   
@<TRIPOS>SUBSTRUCTURE
     1 17L         1 TEMP              0 ****  ****    0 ROOT
