@<TRIPOS>MOLECULE
17L
   67    71     1     0     0
SMALL
bcc


@<TRIPOS>ATOM
      1 C1         -0.2870   -1.5420   -0.0320 ce        1 17L     -0.339400
      2 C2          1.0460   -1.8510   -0.0040 cf        1 17L      0.225100
      3 C3          1.7870   -1.9300    1.2570 cf        1 17L     -0.195000
      4 C4          1.1970   -1.3700    2.3230 c2        1 17L      0.093900
      5 C5         -0.0890   -0.5590    2.2780 c3        1 17L     -0.059500
      6 C6         -0.9960   -1.1530    1.2000 c         1 17L      0.611300
      7 O7          1.6050   -1.6040    3.6560 os        1 17L     -0.273200
      8 C8          0.5140   -1.2430    4.4600 ca        1 17L      0.205100
      9 C9         -0.5230   -0.6520    3.7160 ca        1 17L     -0.200300
     10 C10         0.4710   -1.4470    5.8440 ca        1 17L     -0.294600
     11 C11        -0.7380   -1.0230    6.4890 ca        1 17L      0.283100
     12 C12        -1.7810   -0.4250    5.7790 ca        1 17L     -0.337000
     13 C13        -1.6740   -0.2150    4.3880 ca        1 17L      0.304100
     14 O14        -2.2130   -1.2400    1.3550 o         1 17L     -0.485100
     15 C15        -1.0800   -1.6630   -1.2840 c         1 17L      0.601300
     16 C16        -1.9480   -0.4960   -1.6200 c3        1 17L     -0.198100
     17 O17        -1.0120   -2.6750   -1.9860 o         1 17L     -0.497100
     18 O18         1.6830   -2.1390   -1.1750 oh        1 17L     -0.445100
     19 C19         0.1780    0.8970    1.9060 c3        1 17L     -0.083100
     20 O20        -2.6270    0.4250    3.6660 oh        1 17L     -0.437100
     21 C21         1.5410   -2.0010    6.6490 c         1 17L      0.593700
     22 O22         1.7460   -1.8730    7.8490 o         1 17L     -0.422100
     23 N23         2.5380   -2.8680    5.9000 n4        1 17L     -0.674800
     24 C24         3.3570   -3.7460    6.7960 c3        1 17L      0.173100
     25 C25         4.3290   -4.5520    5.9990 ca        1 17L     -0.149300
     26 C26         4.0700   -5.8890    5.8030 ca        1 17L     -0.089000
     27 C27         4.9890   -6.6890    5.0610 ca        1 17L      0.129100
     28 C28         6.1330   -6.1310    4.5260 ca        1 17L     -0.166000
     29 C29         6.4070   -4.7530    4.7260 ca        1 17L     -0.005000
     30 C30         5.5100   -3.9450    5.4750 ca        1 17L     -0.050000
     31 C31         7.5870   -4.1680    4.1840 ca        1 17L     -0.107000
     32 C32         7.8660   -2.8390    4.3880 ca        1 17L     -0.114000
     33 C33         6.9840   -2.0380    5.1510 ca        1 17L     -0.096000
     34 C34         5.8360   -2.5760    5.6800 ca        1 17L     -0.162000
     35 O35        -0.7720   -1.2670    7.8300 os        1 17L     -0.302900
     36 C36        -1.9350   -0.8430    8.5510 c3        1 17L      0.106700
     37 O37         4.6030   -8.0020    4.9390 os        1 17L     -0.324900
     38 C38         5.5400   -8.8810    4.2900 c3        1 17L      0.127400
     39 C39         4.9240  -10.2580    4.3560 c3        1 17L     -0.103100
     40 H3          2.7310   -2.4890    1.2940 ha        1 17L      0.168000
     41 H12        -2.6970   -0.1070    6.2980 ha        1 17L      0.172000
     42 H16        -2.4070   -0.6310   -2.6300 hc        1 17L      0.073700
     43 H16A       -1.3460    0.4450   -1.6150 hc        1 17L      0.073700
     44 H16B       -2.7640   -0.4100   -0.8580 hc        1 17L      0.073700
     45 HO18        2.5750   -2.4660   -0.9780 ho        1 17L      0.436000
     46 H19         0.5570    0.9660    0.8580 hc        1 17L      0.065700
     47 H19A       -0.7760    1.4740    1.9910 hc        1 17L      0.065700
     48 H19B        0.9340    1.3410    2.5960 hc        1 17L      0.065700
     49 HO20       -3.4050    0.5820    4.2290 ho        1 17L      0.451000
     50 HN23        2.0290   -3.4470    5.2220 hn        1 17L      0.461800
     51 H24         2.6430   -4.4080    7.3660 hx        1 17L      0.115200
     52 H24A        3.8880   -3.0860    7.5430 hx        1 17L      0.115200
     53 H26         3.1730   -6.3800    6.2140 ha        1 17L      0.159000
     54 H28         6.8510   -6.7320    3.9480 ha        1 17L      0.159000
     55 H31         8.2730   -4.8060    3.6050 ha        1 17L      0.150000
     56 H32         8.7800   -2.3860    3.9730 ha        1 17L      0.154000
     57 H33         7.2370   -0.9790    5.3220 ha        1 17L      0.148000
     58 H34         5.1860   -1.9450    6.3030 ha        1 17L      0.113000
     59 H36        -2.8380   -1.3840    8.1810 h1        1 17L      0.069367
     60 H36A       -2.0610    0.2630    8.4690 h1        1 17L      0.069367
     61 H36B       -1.6910   -1.1410    9.6040 h1        1 17L      0.069367
     62 H38         6.5200   -8.8420    4.8330 h1        1 17L      0.045700
     63 H38A        5.6790   -8.5450    3.2290 h1        1 17L      0.045700
     64 H39         3.9350  -10.2730    3.8380 hc        1 17L      0.058033
     65 H39A        5.6090  -10.9860    3.8580 hc        1 17L      0.058033
     66 H39B        4.7700  -10.5680    5.4180 hc        1 17L      0.058033
     67 H232        3.1660   -2.2560    5.3610 hn        1 17L      0.461800
@<TRIPOS>BOND
     1    1    2 2   
     2    1    6 1   
     3    1   15 1   
     4    2    3 1   
     5    2   18 1   
     6    3    4 2   
     7    3   40 1   
     8    4    5 1   
     9    4    7 1   
    10    5    6 1   
    11    5    9 1   
    12    5   19 1   
    13    6   14 2   
    14    7    8 1   
    15    8    9 ar  
    16    8   10 ar  
    17    9   13 ar  
    18   10   11 ar  
    19   10   21 1   
    20   11   12 ar  
    21   11   35 1   
    22   12   13 ar  
    23   12   41 1   
    24   13   20 1   
    25   15   16 1   
    26   15   17 2   
    27   16   42 1   
    28   16   43 1   
    29   16   44 1   
    30   18   45 1   
    31   19   46 1   
    32   19   47 1   
    33   19   48 1   
    34   20   49 1   
    35   21   22 2   
    36   21   23 1   
    37   23   24 1   
    38   23   50 1   
    39   23   67 1   
    40   24   25 1   
    41   24   51 1   
    42   24   52 1   
    43   25   26 ar  
    44   25   30 ar  
    45   26   27 ar  
    46   26   53 1   
    47   27   28 ar  
    48   27   37 1   
    49   28   29 ar  
    50   28   54 1   
    51   29   30 ar  
    52   29   31 ar  
    53   30   34 ar  
    54   31   32 ar  
    55   31   55 1   
    56   32   33 ar  
    57   32   56 1   
    58   33   34 ar  
    59   33   57 1   
    60   34   58 1   
    61   35   36 1   
    62   36   59 1   
    63   36   60 1   
    64   36   61 1   
    65   37   38 1   
    66   38   39 1   
    67   38   62 1   
    68   38   63 1   
    69   39   64 1   
    70   39   65 1   
    71   39   66 1   
@<TRIPOS>SUBSTRUCTURE
     1 17L         1 TEMP              0 ****  ****    0 ROOT
