@<TRIPOS>MOLECULE
17L
   67    71     1     0     0
SMALL
bcc


@<TRIPOS>ATOM
      1 C1         -0.2340   -1.5600   -0.0700 ce        1 17L     -0.339400
      2 C2          1.1000   -1.8610   -0.0200 cf        1 17L      0.225100
      3 C3          1.8210   -1.9340    1.2520 cf        1 17L     -0.195000
      4 C4          1.2110   -1.3780    2.3090 c2        1 17L      0.093900
      5 C5         -0.0790   -0.5760    2.2430 c3        1 17L     -0.059500
      6 C6         -0.9660   -1.1750    1.1510 c         1 17L      0.611300
      7 O7          1.5990   -1.6090    3.6480 os        1 17L     -0.274200
      8 C8          0.4920   -1.2560    4.4350 ca        1 17L      0.205100
      9 C9         -0.5360   -0.6720    3.6740 ca        1 17L     -0.200300
     10 C10         0.4280   -1.4600    5.8180 ca        1 17L     -0.294600
     11 C11        -0.7940   -1.0440    6.4430 ca        1 17L      0.283100
     12 C12        -1.8290   -0.4530    5.7150 ca        1 17L     -0.337000
     13 C13        -1.7010   -0.2410    4.3270 ca        1 17L      0.304100
     14 O14        -2.1850   -1.2700    1.2860 o         1 17L     -0.485100
     15 C15        -1.0060   -1.6870   -1.3350 c         1 17L      0.602300
     16 C16        -1.8750   -0.5250   -1.6850 c3        1 17L     -0.198100
     17 O17        -0.9210   -2.6980   -2.0350 o         1 17L     -0.497100
     18 O18         1.7580   -2.1450   -1.1800 oh        1 17L     -0.445100
     19 C19         0.1840    0.8830    1.8750 c3        1 17L     -0.083100
     20 O20        -2.6460    0.3920    3.5900 oh        1 17L     -0.437100
     21 C21         1.4880   -2.0080    6.6400 c         1 17L      0.593700
     22 O22         1.6720   -1.8790    7.8430 o         1 17L     -0.422100
     23 N23         2.5040   -2.8670    5.9070 n4        1 17L     -0.674800
     24 C24         3.3120   -3.7430    6.8160 c3        1 17L      0.173100
     25 C25         4.3050   -4.5380    6.0350 ca        1 17L     -0.149300
     26 C26         4.0590   -5.8770    5.8280 ca        1 17L     -0.089000
     27 C27         4.9980   -6.6670    5.1010 ca        1 17L      0.129100
     28 C28         6.1490   -6.0980    4.5920 ca        1 17L     -0.166000
     29 C29         6.4100   -4.7190    4.8040 ca        1 17L     -0.005000
     30 C30         5.4920   -3.9210    5.5380 ca        1 17L     -0.050000
     31 C31         7.5960   -4.1230    4.2880 ca        1 17L     -0.107000
     32 C32         7.8620   -2.7940    4.5030 ca        1 17L     -0.114000
     33 C33         6.9580   -2.0020    5.2510 ca        1 17L     -0.096000
     34 C34         5.8040   -2.5510    5.7550 ca        1 17L     -0.162000
     35 O35        -0.8480   -1.2880    7.7840 os        1 17L     -0.302900
     36 C36        -2.0250   -0.8720    8.4850 c3        1 17L      0.106700
     37 O37         4.6240   -7.9810    4.9660 os        1 17L     -0.324900
     38 C38         5.5800   -8.8510    4.3320 c3        1 17L      0.127400
     39 C39         4.9720  -10.2330    4.3800 c3        1 17L     -0.103100
     40 H3          2.7680   -2.4880    1.3050 ha        1 17L      0.168000
     41 H12        -2.7550   -0.1400    6.2200 ha        1 17L      0.172000
     42 H16        -2.3170   -0.6630   -2.7020 hc        1 17L      0.073700
     43 H16A       -1.2800    0.4190   -1.6700 hc        1 17L      0.073700
     44 H16B       -2.7040   -0.4440   -0.9370 hc        1 17L      0.073700
     45 HO18        2.6490   -2.4660   -0.9690 ho        1 17L      0.436000
     46 H19        -0.7750    1.4520    1.9450 hc        1 17L      0.065700
     47 H19A        0.5790    0.9540    0.8330 hc        1 17L      0.065700
     48 H19B        0.9260    1.3310    2.5770 hc        1 17L      0.065700
     49 HO20       -3.4340    0.5440    4.1400 ho        1 17L      0.451000
     50 HN23        3.1380   -2.2490    5.3820 hn        1 17L      0.461800
     51 H24         3.8230   -3.0820    7.5760 hx        1 17L      0.115200
     52 H24A        2.5910   -4.4120    7.3690 hx        1 17L      0.115200
     53 H26         3.1580   -6.3750    6.2180 ha        1 17L      0.159000
     54 H28         6.8830   -6.6920    4.0260 ha        1 17L      0.159000
     55 H31         8.2980   -4.7540    3.7200 ha        1 17L      0.150000
     56 H32         8.7810   -2.3320    4.1090 ha        1 17L      0.154000
     57 H33         7.2000   -0.9420    5.4320 ha        1 17L      0.148000
     58 H34         5.1370   -1.9260    6.3670 ha        1 17L      0.113000
     59 H36        -2.9190   -1.4180    8.1000 h1        1 17L      0.069367
     60 H36A       -2.1570    0.2340    8.4010 h1        1 17L      0.069367
     61 H36B       -1.7970   -1.1680    9.5420 h1        1 17L      0.069367
     62 H38         5.7390   -8.5090    3.2750 h1        1 17L      0.045700
     63 H38A        6.5490   -8.8080    4.8950 h1        1 17L      0.045700
     64 H39         3.9950  -10.2510    3.8410 hc        1 17L      0.058033
     65 H39A        4.7990  -10.5490    5.4360 hc        1 17L      0.058033
     66 H39B        5.6730  -10.9530    3.8920 hc        1 17L      0.058033
     67 H232        2.0110   -3.4460    5.2180 hn        1 17L      0.461800
@<TRIPOS>BOND
     1    1    2 2   
     2    1    6 1   
     3    1   15 1   
     4    2    3 1   
     5    2   18 1   
     6    3    4 2   
     7    3   40 1   
     8    4    5 1   
     9    4    7 1   
    10    5    6 1   
    11    5    9 1   
    12    5   19 1   
    13    6   14 2   
    14    7    8 1   
    15    8    9 ar  
    16    8   10 ar  
    17    9   13 ar  
    18   10   11 ar  
    19   10   21 1   
    20   11   12 ar  
    21   11   35 1   
    22   12   13 ar  
    23   12   41 1   
    24   13   20 1   
    25   15   16 1   
    26   15   17 2   
    27   16   42 1   
    28   16   43 1   
    29   16   44 1   
    30   18   45 1   
    31   19   46 1   
    32   19   47 1   
    33   19   48 1   
    34   20   49 1   
    35   21   22 2   
    36   21   23 1   
    37   23   24 1   
    38   23   50 1   
    39   23   67 1   
    40   24   25 1   
    41   24   51 1   
    42   24   52 1   
    43   25   26 ar  
    44   25   30 ar  
    45   26   27 ar  
    46   26   53 1   
    47   27   28 ar  
    48   27   37 1   
    49   28   29 ar  
    50   28   54 1   
    51   29   30 ar  
    52   29   31 ar  
    53   30   34 ar  
    54   31   32 ar  
    55   31   55 1   
    56   32   33 ar  
    57   32   56 1   
    58   33   34 ar  
    59   33   57 1   
    60   34   58 1   
    61   35   36 1   
    62   36   59 1   
    63   36   60 1   
    64   36   61 1   
    65   37   38 1   
    66   38   39 1   
    67   38   62 1   
    68   38   63 1   
    69   39   64 1   
    70   39   65 1   
    71   39   66 1   
@<TRIPOS>SUBSTRUCTURE
     1 17L         1 TEMP              0 ****  ****    0 ROOT
