@<TRIPOS>MOLECULE
17L
   66    61     1     0     0
SMALL
bcc


@<TRIPOS>ATOM
      1 C1         -1.6440    0.2790   -5.2110 c1        1 17L     -0.316000
      2 C2         -0.1300    0.2830   -5.2130 c1        1 17L      0.179000
      3 C3          0.6390    0.2650   -3.8980 c1        1 17L     -0.241000
      4 C4         -0.1140    0.3550   -2.5650 c1        1 17L      0.085000
      5 C5         -1.6050    0.5400   -2.5660 c2        1 17L     -0.022000
      6 C6         -2.3910    0.3510   -3.9250 c1        1 17L      0.313000
      7 O7          0.2180   -0.5420   -1.4930 os        1 17L     -0.099000
      8 C8         -1.0800   -1.1510   -0.9660 c2        1 17L      0.157000
      9 C9         -2.1740   -0.4460   -1.5590 c2        1 17L     -0.200000
     10 C10        -1.3230   -2.1650   -0.0380 c1        1 17L     -0.183000
     11 C11        -2.6070   -2.4830    0.3040 c1        1 17L      0.172000
     12 C12        -3.7010   -1.7800   -0.2880 c1        1 17L     -0.322000
     13 C13        -3.4580   -0.7650   -1.2170 c1        1 17L      0.200000
     14 O14        -3.6360    0.2680   -3.9240 o         1 17L     -0.252000
     15 C15        -2.4050    0.3050   -6.5440 c2        1 17L      0.305000
     16 C16        -1.6220    0.3340   -7.8840 c3        1 17L     -0.263000
     17 O17        -3.5710    0.3670   -6.5490 o         1 17L     -0.282000
     18 O18         0.5680    0.3820   -6.4310 oh        1 17L     -0.240000
     19 C19        -1.8960    1.9390   -2.0600 c3        1 17L     -0.198000
     20 O20        -4.6480   -0.5650   -2.0300 oh        1 17L     -0.216000
     21 C21        -0.1660   -2.7810    0.7200 c2        1 17L      0.374000
     22 O22         0.3150   -3.8040    0.3470 o         1 17L     -0.354000
     23 N23         0.3640   -2.1150    1.9020 n         1 17L     -0.370000
     24 C24         1.7450   -2.0830    2.1320 c3        1 17L      0.006000
     25 C25         2.1030   -0.7870    2.8590 c2        1 17L     -0.047000
     26 C26         1.7260    0.3620    2.1710 c2        1 17L     -0.137000
     27 C27         1.9420    1.6280    2.7480 c1        1 17L      0.090000
     28 C28         2.5240    1.7300    3.9890 c1        1 17L     -0.171500
     29 C29         2.9060    0.5680    4.6880 c1        1 17L      0.001000
     30 C30         2.6990   -0.6790    4.1310 c1        1 17L     -0.059000
     31 C31         3.5210    0.6810    5.9480 c1        1 17L     -0.171500
     32 C32         3.9160   -0.4490    6.6260 c1        1 17L     -0.127500
     33 C33         3.7090   -1.7100    6.0660 c1        1 17L     -0.127500
     34 C34         3.1020   -1.8280    4.8230 c1        1 17L     -0.112000
     35 O35        -2.8570   -3.5810    1.2110 os        1 17L     -0.212000
     36 C36        -3.6380   -3.2310    2.3330 c3        1 17L     -0.076000
     37 O37         1.5190    2.7190    2.0040 os        1 17L     -0.215000
     38 C38         2.5900    3.6610    1.6680 c3        1 17L     -0.023000
     39 C39         2.1330    4.5570    0.5180 c3        1 17L     -0.218000
     40 H3          1.6310    0.2680   -3.9080 ha        1 17L      0.169000
     41 H12        -4.5890   -2.0000   -0.0520 ha        1 17L      0.148000
     42 H16        -1.0970   -0.5230   -7.9860 hc        1 17L      0.107333
     43 H16A       -1.0020    1.1040   -7.8860 hc        1 17L      0.107333
     44 H16B       -2.2510    0.4200   -8.6270 hc        1 17L      0.107333
     45 HO18        1.1160    1.0710   -6.3990 ho        1 17L      0.233000
     46 H19        -2.8790    2.0510   -1.9430 hc        1 17L      0.100000
     47 H19A       -1.4480    2.0770   -1.2040 hc        1 17L      0.100000
     48 H19B       -1.5630    2.6030   -2.7160 hc        1 17L      0.100000
     49 HO20       -5.2760   -0.1230   -1.5430 ho        1 17L      0.227000
     50 HN23       -0.2320   -1.7770    2.5630 hn        1 17L      0.233000
     51 H24         1.9910   -2.8150    2.6610 h1        1 17L      0.109500
     52 H24A        2.2090   -2.1210    1.2970 h1        1 17L      0.109500
     53 H26         1.3050    0.2910    1.2750 ha        1 17L      0.153000
     54 H28         2.6680    2.5920    4.3800 ha        1 17L      0.135000
     55 H31         3.6690    1.5840    6.3520 ha        1 17L      0.135000
     56 H32         4.3320   -0.3700    7.4730 ha        1 17L      0.132500
     57 H33         3.9850   -2.4960    6.5420 ha        1 17L      0.132500
     58 H34         2.9590   -2.6920    4.4430 ha        1 17L      0.135000
     59 H36        -3.8930   -4.0090    2.7910 h1        1 17L      0.092333
     60 H36A       -4.4360   -2.7520    2.0370 h1        1 17L      0.092333
     61 H36B       -3.0910   -2.6310    2.9550 h1        1 17L      0.092333
     62 H38         2.7980    4.2190    2.4580 h1        1 17L      0.079000
     63 H38A        3.4050    3.1540    1.3940 h1        1 17L      0.079000
     64 H39         2.8770    5.1480    0.2410 hc        1 17L      0.088667
     65 H39A        1.3820    5.1000    0.8110 hc        1 17L      0.088667
     66 H39B        1.8590    4.0000   -0.2410 hc        1 17L      0.088667
@<TRIPOS>BOND
     1    1    2 1   
     2    1   15 1   
     3    2   18 1   
     4    3    4 1   
     5    3   40 1   
     6    4    7 1   
     7    5    6 1   
     8    5    9 1   
     9    5   19 1   
    10    6   14 1   
    11    7    8 1   
    12    8    9 1   
    13    8   10 1   
    14    9   13 1   
    15   10   21 1   
    16   11   12 1   
    17   11   35 1   
    18   12   41 1   
    19   13   20 1   
    20   15   16 1   
    21   15   17 1   
    22   16   42 1   
    23   16   43 1   
    24   16   44 1   
    25   18   45 1   
    26   19   46 1   
    27   19   47 1   
    28   19   48 1   
    29   20   49 1   
    30   21   22 1   
    31   21   23 1   
    32   23   24 1   
    33   23   50 1   
    34   24   25 1   
    35   24   51 1   
    36   24   52 1   
    37   25   26 1   
    38   25   30 1   
    39   26   27 1   
    40   26   53 1   
    41   27   37 1   
    42   28   29 1   
    43   28   54 1   
    44   29   31 1   
    45   30   34 1   
    46   31   55 1   
    47   32   33 1   
    48   32   56 1   
    49   33   57 1   
    50   34   58 1   
    51   35   36 1   
    52   36   59 1   
    53   36   60 1   
    54   36   61 1   
    55   37   38 1   
    56   38   39 1   
    57   38   62 1   
    58   38   63 1   
    59   39   64 1   
    60   39   65 1   
    61   39   66 1   
@<TRIPOS>SUBSTRUCTURE
     1 17L         1 TEMP              0 ****  ****    0 ROOT
