@<TRIPOS>MOLECULE
17L
   66    70     1     0     0
SMALL
bcc


@<TRIPOS>ATOM
      1 C1         -4.8610   -1.7990    0.6830 ce        1 17L     -0.374400
      2 C2         -4.1430   -2.6280   -0.1390 cf        1 17L      0.257100
      3 C3         -2.9560   -2.1760   -0.8490 cf        1 17L     -0.256000
      4 C4         -2.7440   -0.8480   -0.8830 c2        1 17L      0.143900
      5 C5         -3.7240    0.1960   -0.3640 c3        1 17L     -0.074500
      6 C6         -4.5210   -0.3760    0.8000 c         1 17L      0.629300
      7 O7         -1.5380   -0.2660   -1.2800 os        1 17L     -0.186200
      8 C8         -1.5510    1.0400   -0.7560 ca        1 17L      0.203100
      9 C9         -2.7900    1.3540   -0.1330 ca        1 17L     -0.273300
     10 C10        -0.4690    1.9020   -0.8260 ca        1 17L     -0.203600
     11 C11        -0.6560    3.1700   -0.2040 ca        1 17L      0.212100
     12 C12        -1.8520    3.5170    0.4210 ca        1 17L     -0.273000
     13 C13        -2.9340    2.6050    0.4570 ca        1 17L      0.259100
     14 O14        -4.9250    0.3550    1.7140 o         1 17L     -0.555100
     15 C15        -6.0090   -2.3050    1.4760 c         1 17L      0.609300
     16 C16        -5.8510   -2.2390    2.9590 c3        1 17L     -0.197100
     17 O17        -7.0240   -2.7490    0.9320 o         1 17L     -0.520100
     18 O18        -4.4940   -3.9460   -0.2040 oh        1 17L     -0.464100
     19 C19        -4.7340    0.5620   -1.4560 c3        1 17L     -0.083100
     20 O20        -4.0650    3.0570    1.0690 oh        1 17L     -0.488100
     21 C21         0.7710    1.5110   -1.5530 c         1 17L      0.702700
     22 O22         0.7220    1.0070   -2.6940 o         1 17L     -0.608100
     23 N23         1.9680    1.7080   -0.9010 n         1 17L     -0.555900
     24 C24         3.2380    1.3790   -1.4860 c3        1 17L      0.133300
     25 C25         4.0160    0.3480   -0.7080 ca        1 17L     -0.068300
     26 C26         4.9920    0.7800    0.1580 ca        1 17L     -0.137000
     27 C27         5.7760   -0.1670    0.8810 ca        1 17L      0.129100
     28 C28         5.5710   -1.5200    0.7270 ca        1 17L     -0.205000
     29 C29         4.5610   -1.9790   -0.1620 ca        1 17L     -0.004000
     30 C30         3.7670   -1.0480   -0.8830 ca        1 17L     -0.048000
     31 C31         4.3350   -3.3720   -0.3370 ca        1 17L     -0.134000
     32 C32         3.3590   -3.8200   -1.1920 ca        1 17L     -0.118000
     33 C33         2.5630   -2.8950   -1.9060 ca        1 17L     -0.142000
     34 C34         2.7590   -1.5440   -1.7550 ca        1 17L     -0.107000
     35 O35         0.4310    4.0130   -0.2580 os        1 17L     -0.326900
     36 C36         0.2370    5.3410    0.2250 c3        1 17L      0.111700
     37 O37         6.7150    0.4110    1.7110 os        1 17L     -0.331900
     38 C38         7.5420   -0.5010    2.4480 c3        1 17L      0.127400
     39 C39         8.4830    0.3560    3.2630 c3        1 17L     -0.100100
     40 H3         -2.2510   -2.9090   -1.2620 ha        1 17L      0.171000
     41 H12        -1.9940    4.4960    0.8990 ha        1 17L      0.166000
     42 H16        -5.7330   -1.1710    3.2740 hc        1 17L      0.070700
     43 H16A       -6.7440   -2.6760    3.4680 hc        1 17L      0.070700
     44 H16B       -4.9390   -2.8060    3.2670 hc        1 17L      0.070700
     45 HO18       -3.9120   -4.3920   -0.8410 ho        1 17L      0.436000
     46 H19        -5.3700   -0.3200   -1.7080 hc        1 17L      0.061700
     47 H19A       -5.3850    1.3930   -1.0890 hc        1 17L      0.061700
     48 H19B       -4.1960    0.9010   -2.3730 hc        1 17L      0.061700
     49 HO20       -4.6940    2.3180    1.1590 ho        1 17L      0.459000
     50 HN23        1.9680    2.1390   -0.0080 hn        1 17L      0.322500
     51 H24         3.0780    1.0120   -2.5430 h1        1 17L      0.068200
     52 H24A        3.8560    2.3250   -1.5450 h1        1 17L      0.068200
     53 H26         5.2000    1.8500    0.3090 ha        1 17L      0.148000
     54 H28         6.1670   -2.2650    1.2720 ha        1 17L      0.139000
     55 H31         4.9600   -4.0810    0.2270 ha        1 17L      0.130000
     56 H32         3.1860   -4.8970   -1.3310 ha        1 17L      0.129000
     57 H33         1.7840   -3.2710   -2.5850 ha        1 17L      0.132000
     58 H34         2.1230   -0.8310   -2.3080 ha        1 17L      0.161000
     59 H36        -0.5960    5.8440   -0.3240 h1        1 17L      0.054367
     60 H36A        0.0390    5.3300    1.3240 h1        1 17L      0.054367
     61 H36B        1.2160    5.8370    0.0020 h1        1 17L      0.054367
     62 H38         6.8950   -1.1370    3.1090 h1        1 17L      0.039200
     63 H38A        8.1040   -1.1550    1.7320 h1        1 17L      0.039200
     64 H39         9.1530   -0.3060    3.8610 hc        1 17L      0.049367
     65 H39A        9.1030    0.9990    2.5950 hc        1 17L      0.049367
     66 H39B        7.9090    1.0180    3.9550 hc        1 17L      0.049367
@<TRIPOS>BOND
     1    1    2 2   
     2    1    6 1   
     3    1   15 1   
     4    2    3 1   
     5    2   18 1   
     6    3    4 2   
     7    3   40 1   
     8    4    5 1   
     9    4    7 1   
    10    5    6 1   
    11    5    9 1   
    12    5   19 1   
    13    6   14 2   
    14    7    8 1   
    15    8    9 ar  
    16    8   10 ar  
    17    9   13 ar  
    18   10   11 ar  
    19   10   21 1   
    20   11   12 ar  
    21   11   35 1   
    22   12   13 ar  
    23   12   41 1   
    24   13   20 1   
    25   15   16 1   
    26   15   17 2   
    27   16   42 1   
    28   16   43 1   
    29   16   44 1   
    30   18   45 1   
    31   19   46 1   
    32   19   47 1   
    33   19   48 1   
    34   20   49 1   
    35   21   22 2   
    36   21   23 1   
    37   23   24 1   
    38   23   50 1   
    39   24   25 1   
    40   24   51 1   
    41   24   52 1   
    42   25   26 ar  
    43   25   30 ar  
    44   26   27 ar  
    45   26   53 1   
    46   27   28 ar  
    47   27   37 1   
    48   28   29 ar  
    49   28   54 1   
    50   29   30 ar  
    51   29   31 ar  
    52   30   34 ar  
    53   31   32 ar  
    54   31   55 1   
    55   32   33 ar  
    56   32   56 1   
    57   33   34 ar  
    58   33   57 1   
    59   34   58 1   
    60   35   36 1   
    61   36   59 1   
    62   36   60 1   
    63   36   61 1   
    64   37   38 1   
    65   38   39 1   
    66   38   62 1   
    67   38   63 1   
    68   39   64 1   
    69   39   65 1   
    70   39   66 1   
@<TRIPOS>SUBSTRUCTURE
     1 17L         1 TEMP              0 ****  ****    0 ROOT
