@<TRIPOS>MOLECULE
17M
   43    46     1     0     0
SMALL
bcc


@<TRIPOS>ATOM
      1 CAR         1.9630    0.4850    1.7720 c3        1 17M     -0.088100
      2 CAB         2.2640    0.4640    0.2820 c3        1 17M     -0.032000
      3 CAP         1.6670    1.6850   -0.3910 c3        1 17M     -0.060400
      4 CAJ         0.1460    1.6810   -0.3070 c3        1 17M     -0.036100
      5 CAF        -0.5210    0.3450   -0.2300 ca        1 17M     -0.052300
      6 CAG        -1.9470    0.3030   -0.1260 ca        1 17M     -0.060000
      7 CAK        -2.7430    1.4830   -0.1280 ca        1 17M     -0.084000
      8 CAN        -4.1090    1.4230   -0.0280 ca        1 17M     -0.195000
      9 CAO        -4.7510    0.1590    0.0800 ca        1 17M      0.116100
     10 OAT        -6.1200    0.0470    0.1840 oh        1 17M     -0.498100
     11 CAL        -4.0160   -1.0120    0.0860 ca        1 17M     -0.157000
     12 CAH        -2.6030   -0.9530   -0.0170 ca        1 17M     -0.006000
     13 CAM        -1.8300   -2.1460   -0.0140 ca        1 17M     -0.130000
     14 CAI        -0.4650   -2.0880   -0.1210 ca        1 17M     -0.110000
     15 CAE         0.1980   -0.8410   -0.2320 ca        1 17M     -0.067300
     16 CAD         1.6660   -0.7770   -0.4230 c3        1 17M     -0.028400
     17 CAQ         2.5560   -1.9300    0.0230 c3        1 17M     -0.066400
     18 CAC         3.9500   -1.3110    0.1510 c3        1 17M     -0.106400
     19 CAA         3.7870    0.2310    0.0670 c3        1 17M      0.152800
     20 CAS         4.6800    0.9490    1.0620 c3        1 17M     -0.115100
     21 OAU         4.0880    0.6840   -1.2530 oh        1 17M     -0.597800
     22 HAR1        0.8590    0.4460    1.9420 hc        1 17M      0.040033
     23 HAR2        2.4290   -0.3930    2.2810 hc        1 17M      0.040033
     24 HAR3        2.3590    1.4230    2.2320 hc        1 17M      0.040033
     25 HAP1        1.9890    1.7040   -1.4660 hc        1 17M      0.054200
     26 HAP2        2.0620    2.6170    0.0890 hc        1 17M      0.054200
     27 HAJ1       -0.2550    2.2300   -1.2020 hc        1 17M      0.049200
     28 HAJ2       -0.1590    2.2640    0.6070 hc        1 17M      0.049200
     29 HAK        -2.2490    2.4630   -0.2130 ha        1 17M      0.135000
     30 HAN        -4.7180    2.3380   -0.0320 ha        1 17M      0.132000
     31 HAT        -6.4930    0.9400    0.1610 ho        1 17M      0.418000
     32 HAL        -4.5190   -1.9850    0.1700 ha        1 17M      0.150000
     33 HAM        -2.3500   -3.1120    0.0740 ha        1 17M      0.134000
     34 HAI         0.1400   -3.0090   -0.1230 ha        1 17M      0.134000
     35 HAD         1.8400   -0.6400   -1.5350 hc        1 17M      0.076700
     36 HAQ1        2.5480   -2.7610   -0.7230 hc        1 17M      0.045700
     37 HAQ2        2.2140   -2.3440    1.0040 hc        1 17M      0.045700
     38 HAC1        4.6150   -1.6650   -0.6740 hc        1 17M      0.047200
     39 HAC2        4.4180   -1.5970    1.1240 hc        1 17M      0.047200
     40 HAS1        4.4530    2.0420    1.0540 hc        1 17M      0.043700
     41 HAS2        4.5270    0.5540    2.0940 hc        1 17M      0.043700
     42 HAS3        5.7530    0.8050    0.7850 hc        1 17M      0.043700
     43 HAU         5.0240    0.5020   -1.4030 ho        1 17M      0.398000
@<TRIPOS>BOND
     1    1    2 1   
     2    1   22 1   
     3    1   23 1   
     4    1   24 1   
     5    2    3 1   
     6    2   16 1   
     7    2   19 1   
     8    3    4 1   
     9    3   25 1   
    10    3   26 1   
    11    4    5 1   
    12    4   27 1   
    13    4   28 1   
    14    5    6 ar  
    15    5   15 ar  
    16    6    7 ar  
    17    6   12 ar  
    18    7    8 ar  
    19    7   29 1   
    20    8    9 ar  
    21    8   30 1   
    22    9   10 1   
    23    9   11 ar  
    24   10   31 1   
    25   11   12 ar  
    26   11   32 1   
    27   12   13 ar  
    28   13   14 ar  
    29   13   33 1   
    30   14   15 ar  
    31   14   34 1   
    32   15   16 1   
    33   16   17 1   
    34   16   35 1   
    35   17   18 1   
    36   17   36 1   
    37   17   37 1   
    38   18   19 1   
    39   18   38 1   
    40   18   39 1   
    41   19   20 1   
    42   19   21 1   
    43   20   40 1   
    44   20   41 1   
    45   20   42 1   
    46   21   43 1   
@<TRIPOS>SUBSTRUCTURE
     1 17M         1 TEMP              0 ****  ****    0 ROOT
