@<TRIPOS>MOLECULE
17M
   43    43     1     0     0
SMALL
bcc


@<TRIPOS>ATOM
      1 CAR         1.6110    1.6270   -0.4040 c3        1 17M     -0.206000
      2 CAB         0.0570    1.6270   -0.4040 c3        1 17M     -0.032000
      3 CAP        -0.4190    1.6270    0.9750 c3        1 17M     -0.139000
      4 CAJ        -0.2640    0.5950    1.5670 c3        1 17M     -0.123000
      5 CAF        -0.1870   -0.6850    0.6630 c2        1 17M     -0.043000
      6 CAG        -0.1070   -1.9750    1.1710 c2        1 17M     -0.059000
      7 CAK         0.0170   -2.1810    2.5530 c2        1 17M     -0.093000
      8 CAN         0.1140   -3.4870    3.0640 c1        1 17M     -0.142000
      9 CAO         0.0870   -4.5990    2.1810 c1        1 17M      0.082000
     10 OAT         0.2360   -5.8980    2.7250 oh        1 17M     -0.252000
     11 CAL        -0.0360   -4.3960    0.7940 c1        1 17M     -0.218000
     12 CAH        -0.1340   -3.0960    0.2830 c1        1 17M     -0.001000
     13 CAM        -0.2510   -2.8810   -1.2350 c2        1 17M     -0.134000
     14 CAI        -0.3360   -1.5370   -1.7770 c1        1 17M     -0.109000
     15 CAE        -0.3110   -0.4560   -0.9360 c1        1 17M     -0.061000
     16 CAD        -0.4240    0.5430   -1.2730 c3        1 17M     -0.074000
     17 CAQ         0.0050    0.7080   -2.0580 c3        1 17M     -0.145000
     18 CAC        -0.1400    2.3790   -2.2200 c3        1 17M     -0.185000
     19 CAA        -0.3790    2.7000   -1.0660 c3        1 17M      0.081000
     20 CAS         0.5400    4.1310   -0.6140 c3        1 17M     -0.233000
     21 OAU        -1.7740    2.8960   -0.8660 oh        1 17M     -0.325000
     22 HAR1        1.9360    0.7150   -0.2820 hc        1 17M      0.079333
     23 HAR2        1.9360    1.9780   -1.2550 hc        1 17M      0.079333
     24 HAR3        1.9360    2.1890    0.3250 hc        1 17M      0.079333
     25 HAP1       -1.3720    1.8380    0.9700 hc        1 17M      0.093500
     26 HAP2        0.0500    2.3320    1.4610 hc        1 17M      0.093500
     27 HAJ1       -1.0060    0.4850    2.1920 hc        1 17M      0.089500
     28 HAJ2        0.5640    0.6570    2.0810 hc        1 17M      0.089500
     29 HAK         0.0350   -1.4170    3.1610 ha        1 17M      0.136000
     30 HAN         0.1980   -3.6300    4.0260 ha        1 17M      0.150000
     31 HAT        -0.5660   -6.2570    2.8570 ho        1 17M      0.218000
     32 HAL        -0.0550   -5.1610    0.1890 ha        1 17M      0.134000
     33 HAM        -0.2640   -3.6500   -1.8360 ha        1 17M      0.131000
     34 HAI        -0.3750   -1.4030   -2.7430 ha        1 17M      0.133000
     35 HAD        -1.3770    0.6900   -1.4230 hc        1 17M      0.116000
     36 HAQ1       -0.4390    0.2500   -2.7970 hc        1 17M      0.084500
     37 HAQ2        0.9430    0.4470   -2.0010 hc        1 17M      0.084500
     38 HAC1        0.6960    2.7760   -2.5300 hc        1 17M      0.086500
     39 HAC2       -0.8820    2.6120   -2.8110 hc        1 17M      0.086500
     40 HAS1        0.1690    4.9120   -1.0660 hc        1 17M      0.082667
     41 HAS2        0.4880    4.2590    0.3520 hc        1 17M      0.082667
     42 HAS3        1.4730    4.0150   -0.8780 hc        1 17M      0.082667
     43 HAU        -1.9960    3.7180   -1.1150 ho        1 17M      0.197000
@<TRIPOS>BOND
     1    1    2 1   
     2    1   22 1   
     3    1   23 1   
     4    1   24 1   
     5    2    3 1   
     6    2   16 1   
     7    2   19 1   
     8    3    4 1   
     9    3   25 1   
    10    3   26 1   
    11    4    5 1   
    12    4   27 1   
    13    4   28 1   
    14    5    6 1   
    15    5   15 1   
    16    6    7 1   
    17    6   12 1   
    18    7    8 1   
    19    7   29 1   
    20    8   30 1   
    21    9   10 1   
    22    9   11 1   
    23   10   31 1   
    24   11   32 1   
    25   12   13 1   
    26   13   14 1   
    27   13   33 1   
    28   14   34 1   
    29   15   16 1   
    30   16   17 1   
    31   16   35 1   
    32   17   18 1   
    33   17   36 1   
    34   17   37 1   
    35   18   19 1   
    36   18   38 1   
    37   18   39 1   
    38   19   20 1   
    39   19   21 1   
    40   20   40 1   
    41   20   41 1   
    42   20   42 1   
    43   21   43 1   
@<TRIPOS>SUBSTRUCTURE
     1 17M         1 TEMP              0 ****  ****    0 ROOT
