@<TRIPOS>MOLECULE
17M
   43    46     1     0     0
SMALL
bcc


@<TRIPOS>ATOM
      1 CAR         1.6730    0.1830   -0.1270 c3        1 17M     -0.088100
      2 CAB         0.1620    0.0490   -0.0320 c3        1 17M     -0.032000
      3 CAP        -0.2760    0.0590    1.4210 c3        1 17M     -0.060400
      4 CAJ         0.2650   -1.1490    2.1740 c3        1 17M     -0.036100
      5 CAF         0.5150   -2.3870    1.3740 ca        1 17M     -0.052300
      6 CAG         1.0450   -3.5340    2.0430 ca        1 17M     -0.060000
      7 CAK         1.3070   -3.5420    3.4420 ca        1 17M     -0.084000
      8 CAN         1.8150   -4.6530    4.0670 ca        1 17M     -0.195000
      9 CAO         2.0880   -5.8230    3.3080 ca        1 17M      0.116100
     10 OAT         2.5990   -6.9620    3.8910 oh        1 17M     -0.498100
     11 CAL         1.8480   -5.8580    1.9480 ca        1 17M     -0.157000
     12 CAH         1.3230   -4.7120    1.2980 ca        1 17M     -0.006000
     13 CAM         1.0690   -4.7290   -0.1010 ca        1 17M     -0.130000
     14 CAI         0.5550   -3.6230   -0.7260 ca        1 17M     -0.110000
     15 CAE         0.2730   -2.4450    0.0090 ca        1 17M     -0.067300
     16 CAD        -0.3530   -1.2740   -0.6480 c3        1 17M     -0.028400
     17 CAQ        -0.2200   -1.0660   -2.1510 c3        1 17M     -0.066400
     18 CAC        -0.5080    0.4220   -2.3600 c3        1 17M     -0.106400
     19 CAA        -0.5090    1.1000   -0.9630 c3        1 17M      0.152800
     20 CAS         0.1830    2.4500   -0.9880 c3        1 17M     -0.115100
     21 OAU        -1.8490    1.2620   -0.4980 oh        1 17M     -0.597800
     22 HAR1        2.0000    0.2120   -1.1940 hc        1 17M      0.040033
     23 HAR2        2.1690   -0.6860    0.3700 hc        1 17M      0.040033
     24 HAR3        2.0090    1.1190    0.3810 hc        1 17M      0.040033
     25 HAP1       -1.3970    0.0650    1.4650 hc        1 17M      0.054200
     26 HAP2        0.0810    0.9970    1.9200 hc        1 17M      0.054200
     27 HAJ1        1.2400   -0.8580    2.6580 hc        1 17M      0.049200
     28 HAJ2       -0.4560   -1.3970    3.0010 hc        1 17M      0.049200
     29 HAK         1.0950   -2.6380    4.0330 ha        1 17M      0.135000
     30 HAN         2.0140   -4.6520    5.1490 ha        1 17M      0.132000
     31 HAT         2.7070   -6.7880    4.8370 ho        1 17M      0.418000
     32 HAL         2.0610   -6.7670    1.3670 ha        1 17M      0.150000
     33 HAM         1.2910   -5.6460   -0.6660 ha        1 17M      0.134000
     34 HAI         0.3520   -3.6310   -1.8080 ha        1 17M      0.134000
     35 HAD        -1.4620   -1.3330   -0.4220 hc        1 17M      0.076700
     36 HAQ1       -0.9440   -1.7020   -2.7150 hc        1 17M      0.045700
     37 HAQ2        0.8100   -1.3240   -2.5020 hc        1 17M      0.045700
     38 HAC1       -1.5030    0.5660   -2.8490 hc        1 17M      0.047200
     39 HAC2        0.2710    0.8850   -3.0120 hc        1 17M      0.047200
     40 HAS1        0.2650    2.8530    0.0500 hc        1 17M      0.043700
     41 HAS2        1.2050    2.3670   -1.4280 hc        1 17M      0.043700
     42 HAS3       -0.4090    3.1700   -1.6040 hc        1 17M      0.043700
     43 HAU        -2.2790    1.8820   -1.1000 ho        1 17M      0.398000
@<TRIPOS>BOND
     1    1    2 1   
     2    1   22 1   
     3    1   23 1   
     4    1   24 1   
     5    2    3 1   
     6    2   16 1   
     7    2   19 1   
     8    3    4 1   
     9    3   25 1   
    10    3   26 1   
    11    4    5 1   
    12    4   27 1   
    13    4   28 1   
    14    5    6 ar  
    15    5   15 ar  
    16    6    7 ar  
    17    6   12 ar  
    18    7    8 ar  
    19    7   29 1   
    20    8    9 ar  
    21    8   30 1   
    22    9   10 1   
    23    9   11 ar  
    24   10   31 1   
    25   11   12 ar  
    26   11   32 1   
    27   12   13 ar  
    28   13   14 ar  
    29   13   33 1   
    30   14   15 ar  
    31   14   34 1   
    32   15   16 1   
    33   16   17 1   
    34   16   35 1   
    35   17   18 1   
    36   17   36 1   
    37   17   37 1   
    38   18   19 1   
    39   18   38 1   
    40   18   39 1   
    41   19   20 1   
    42   19   21 1   
    43   20   40 1   
    44   20   41 1   
    45   20   42 1   
    46   21   43 1   
@<TRIPOS>SUBSTRUCTURE
     1 17M         1 TEMP              0 ****  ****    0 ROOT
