@<TRIPOS>MOLECULE
17M
   43    46     1     0     0
SMALL
bcc


@<TRIPOS>ATOM
      1 CAR         1.6730    0.1720   -0.1340 c3        1 17M     -0.088100
      2 CAB         0.1620    0.0480   -0.0320 c3        1 17M     -0.032000
      3 CAP        -0.2690    0.0630    1.4230 c3        1 17M     -0.060400
      4 CAJ         0.2690   -1.1470    2.1760 c3        1 17M     -0.036100
      5 CAF         0.5080   -2.3880    1.3780 ca        1 17M     -0.052300
      6 CAG         1.0350   -3.5370    2.0470 ca        1 17M     -0.060000
      7 CAK         1.3030   -3.5430    3.4450 ca        1 17M     -0.084000
      8 CAN         1.8070   -4.6550    4.0700 ca        1 17M     -0.195000
      9 CAO         2.0700   -5.8280    3.3120 ca        1 17M      0.116100
     10 OAT         2.5780   -6.9690    3.8950 oh        1 17M     -0.498100
     11 CAL         1.8240   -5.8650    1.9530 ca        1 17M     -0.157000
     12 CAH         1.3020   -4.7170    1.3030 ca        1 17M     -0.006000
     13 CAM         1.0410   -4.7360   -0.0950 ca        1 17M     -0.130000
     14 CAI         0.5310   -3.6290   -0.7200 ca        1 17M     -0.110000
     15 CAE         0.2590   -2.4470    0.0140 ca        1 17M     -0.067300
     16 CAD        -0.3630   -1.2740   -0.6430 c3        1 17M     -0.028400
     17 CAQ        -0.2360   -1.0700   -2.1470 c3        1 17M     -0.066400
     18 CAC        -0.5170    0.4190   -2.3570 c3        1 17M     -0.106400
     19 CAA        -0.5070    1.1000   -0.9620 c3        1 17M      0.152800
     20 CAS         0.1920    2.4460   -0.9940 c3        1 17M     -0.115100
     21 OAU        -1.8440    1.2710   -0.4910 oh        1 17M     -0.597800
     22 HAR1        1.9950    0.1980   -1.2030 hc        1 17M      0.040033
     23 HAR2        2.0170    1.1080    0.3690 hc        1 17M      0.040033
     24 HAR3        2.1670   -0.6980    0.3620 hc        1 17M      0.040033
     25 HAP1       -1.3900    0.0750    1.4730 hc        1 17M      0.054200
     26 HAP2        0.0960    1.0000    1.9190 hc        1 17M      0.054200
     27 HAJ1       -0.4500   -1.3890    3.0070 hc        1 17M      0.049200
     28 HAJ2        1.2470   -0.8600    2.6550 hc        1 17M      0.049200
     29 HAK         1.0990   -2.6360    4.0350 ha        1 17M      0.135000
     30 HAN         2.0110   -4.6530    5.1500 ha        1 17M      0.132000
     31 HAT         2.6920   -6.7930    4.8400 ho        1 17M      0.418000
     32 HAL         2.0290   -6.7760    1.3740 ha        1 17M      0.150000
     33 HAM         1.2560   -5.6560   -0.6590 ha        1 17M      0.134000
     34 HAI         0.3230   -3.6380   -1.8010 ha        1 17M      0.134000
     35 HAD        -1.4720   -1.3260   -0.4120 hc        1 17M      0.076700
     36 HAQ1       -0.9670   -1.7040   -2.7050 hc        1 17M      0.045700
     37 HAQ2        0.7910   -1.3350   -2.5020 hc        1 17M      0.045700
     38 HAC1       -1.5130    0.5670   -2.8420 hc        1 17M      0.047200
     39 HAC2        0.2620    0.8760   -3.0150 hc        1 17M      0.047200
     40 HAS1       -0.3990    3.1680   -1.6090 hc        1 17M      0.043700
     41 HAS2        0.2810    2.8500    0.0430 hc        1 17M      0.043700
     42 HAS3        1.2120    2.3560   -1.4380 hc        1 17M      0.043700
     43 HAU        -2.2730    1.8920   -1.0920 ho        1 17M      0.398000
@<TRIPOS>BOND
     1    1    2 1   
     2    1   22 1   
     3    1   23 1   
     4    1   24 1   
     5    2    3 1   
     6    2   16 1   
     7    2   19 1   
     8    3    4 1   
     9    3   25 1   
    10    3   26 1   
    11    4    5 1   
    12    4   27 1   
    13    4   28 1   
    14    5    6 ar  
    15    5   15 ar  
    16    6    7 ar  
    17    6   12 ar  
    18    7    8 ar  
    19    7   29 1   
    20    8    9 ar  
    21    8   30 1   
    22    9   10 1   
    23    9   11 ar  
    24   10   31 1   
    25   11   12 ar  
    26   11   32 1   
    27   12   13 ar  
    28   13   14 ar  
    29   13   33 1   
    30   14   15 ar  
    31   14   34 1   
    32   15   16 1   
    33   16   17 1   
    34   16   35 1   
    35   17   18 1   
    36   17   36 1   
    37   17   37 1   
    38   18   19 1   
    39   18   38 1   
    40   18   39 1   
    41   19   20 1   
    42   19   21 1   
    43   20   40 1   
    44   20   41 1   
    45   20   42 1   
    46   21   43 1   
@<TRIPOS>SUBSTRUCTURE
     1 17M         1 TEMP              0 ****  ****    0 ROOT
