@<TRIPOS>MOLECULE
17N
   35    38     1     0     0
SMALL
bcc


@<TRIPOS>ATOM
      1 CAA         4.3710   -2.0420   -0.6980 c3        1 17N      0.114700
      2 OAB        -2.0310   -1.8500   -2.2190 o         1 17N     -0.817800
      3 OAC        -1.1730   -2.7240    1.8770 o         1 17N     -0.819300
      4 OAD        -3.7640   -1.7970   -0.8080 o         1 17N     -0.817800
      5 OAE         0.0160   -3.8300    0.3400 o         1 17N     -0.819300
      6 CAF         3.6000    2.3390    0.3850 ca        1 17N     -0.184000
      7 CAG         4.3410    1.1490    0.3810 ca        1 17N     -0.161000
      8 CAH         2.2180    2.3060    0.3550 ca        1 17N     -0.110000
      9 CAI        -2.7290    0.8640   -0.4140 ca        1 17N     -0.125000
     10 CAJ         1.5360   -1.3570    0.5010 ca        1 17N     -0.210000
     11 CAK        -1.6390    4.2400    0.3510 c3        1 17N      0.326200
     12 OAL         4.4430   -1.2200    0.4640 os        1 17N     -0.357900
     13 OAM        -2.7030    3.3320    0.0260 os        1 17N     -0.358900
     14 OAN        -0.4200    3.4890    0.4520 os        1 17N     -0.360900
     15 CAO        -2.6080   -1.4510   -1.1730 c         1 17N      0.933200
     16 CAP        -2.1240    2.0570   -0.0550 ca        1 17N      0.034100
     17 CAQ         3.6670   -0.0650    0.3830 ca        1 17N      0.074100
     18 CAR        -1.9310   -0.2890   -0.4210 ca        1 17N     -0.040600
     19 CAS         0.1720   -1.4330    0.3870 ca        1 17N     -0.009600
     20 CAT        -0.7520    2.1400    0.2140 ca        1 17N     -0.003900
     21 CAU         2.2470   -0.1300    0.3910 ca        1 17N     -0.006000
     22 CAV         1.5130    1.0830    0.3380 ca        1 17N     -0.033000
     23 CAW        -0.5890   -0.2540    0.0440 ca        1 17N      0.013000
     24 CAX         0.0760    1.0120    0.2220 ca        1 17N     -0.016000
     25 CAY        -0.4190   -2.7710    0.8680 c         1 17N      0.931200
     26 HAA         5.0230   -1.6080   -1.4970 h1        1 17N      0.037033
     27 HAAA        4.7710   -3.0300   -0.3600 h1        1 17N      0.037033
     28 HAAB        3.3230   -2.1480   -1.0690 h1        1 17N      0.037033
     29 HAF         4.1290    3.3010    0.3990 ha        1 17N      0.099000
     30 HAG         5.4380    1.1710    0.3860 ha        1 17N      0.111000
     31 HAH         1.6640    3.2560    0.3330 ha        1 17N      0.137000
     32 HAI        -3.7880    0.8000   -0.6950 ha        1 17N      0.158000
     33 HAJ         2.1040   -2.2720    0.7340 ha        1 17N      0.146000
     34 HAK        -1.5360    4.9880   -0.4750 h2        1 17N      0.030700
     35 HAKA       -1.8570    4.7140    1.3410 h2        1 17N      0.030700
@<TRIPOS>BOND
     1    1   12 1   
     2    1   26 1   
     3    1   27 1   
     4    1   28 1   
     5    2   15 1   
     6    3   25 1   
     7    4   15 1   
     8    5   25 1   
     9    6    7 ar  
    10    6    8 ar  
    11    6   29 1   
    12    7   17 ar  
    13    7   30 1   
    14    8   22 ar  
    15    8   31 1   
    16    9   16 ar  
    17    9   18 ar  
    18    9   32 1   
    19   10   19 ar  
    20   10   21 ar  
    21   10   33 1   
    22   11   13 1   
    23   11   14 1   
    24   11   34 1   
    25   11   35 1   
    26   12   17 1   
    27   13   16 1   
    28   14   20 1   
    29   15   18 1   
    30   16   20 ar  
    31   17   21 ar  
    32   18   23 ar  
    33   19   23 ar  
    34   19   25 1   
    35   20   24 ar  
    36   21   22 ar  
    37   22   24 ar  
    38   23   24 ar  
@<TRIPOS>SUBSTRUCTURE
     1 17N         1 TEMP              0 ****  ****    0 ROOT
