@<TRIPOS>MOLECULE
17N
   35    38     1     0     0
SMALL
bcc


@<TRIPOS>ATOM
      1 CAA         1.1760   -0.8570   -0.4650 c3        1 17N      0.114700
      2 OAB         7.6110   -2.1850   -0.0490 o         1 17N     -0.817800
      3 OAC         6.6620    1.8550   -1.0780 o         1 17N     -0.819300
      4 OAD         9.3010   -0.7230    0.0050 o         1 17N     -0.817800
      5 OAE         5.5490    0.2500   -2.1660 o         1 17N     -0.819300
      6 CAF         1.7930    0.3850    3.8980 ca        1 17N     -0.184000
      7 CAG         1.0860    0.3220    2.6890 ca        1 17N     -0.161000
      8 CAH         3.1750    0.3940    3.9040 ca        1 17N     -0.110000
      9 CAI         8.1810   -0.2760    2.6230 ca        1 17N     -0.125000
     10 CAJ         3.9560    0.4450    0.2580 ca        1 17N     -0.210000
     11 CAK         6.9750    0.5630    5.9420 c3        1 17N      0.326200
     12 OAL         1.0480    0.3280    0.3170 os        1 17N     -0.357900
     13 OAM         8.0730    0.2410    5.0740 os        1 17N     -0.358900
     14 OAN         5.7760    0.6050    5.1550 os        1 17N     -0.360900
     15 CAO         8.1470   -1.1100    0.3310 c         1 17N      0.933200
     16 CAP         7.5320    0.1030    3.7870 ca        1 17N      0.034100
     17 CAQ         1.7940    0.3060    1.4950 ca        1 17N      0.074100
     18 CAR         7.4160   -0.3430    1.4500 ca        1 17N     -0.040600
     19 CAS         5.3240    0.3680    0.2230 ca        1 17N     -0.009600
     20 CAT         6.1510    0.3350    3.8240 ca        1 17N     -0.003900
     21 CAU         3.2140    0.3530    1.4690 ca        1 17N     -0.006000
     22 CAV         3.9150    0.3600    2.7020 ca        1 17N     -0.033000
     23 CAW         6.0610    0.0840    1.4330 ca        1 17N      0.013000
     24 CAX         5.3560    0.2820    2.6740 ca        1 17N     -0.016000
     25 CAY         5.9390    0.8230   -1.1130 c         1 17N      0.931200
     26 HAA         0.5350   -1.6600   -0.0230 h1        1 17N      0.037033
     27 HAAA        0.7950   -0.5620   -1.4740 h1        1 17N      0.037033
     28 HAAB        2.2370   -1.2010   -0.5310 h1        1 17N      0.037033
     29 HAF         1.2370    0.4140    4.8450 ha        1 17N      0.099000
     30 HAG        -0.0110    0.2960    2.6810 ha        1 17N      0.111000
     31 HAH         3.7030    0.4180    4.8690 ha        1 17N      0.137000
     32 HAI         9.2490   -0.5280    2.5970 ha        1 17N      0.158000
     33 HAJ         3.4080    0.6320   -0.6790 ha        1 17N      0.146000
     34 HAK         6.8740   -0.2420    6.7120 h2        1 17N      0.030700
     35 HAKA        7.1510    1.5730    6.3890 h2        1 17N      0.030700
@<TRIPOS>BOND
     1    1   12 1   
     2    1   26 1   
     3    1   27 1   
     4    1   28 1   
     5    2   15 1   
     6    3   25 1   
     7    4   15 1   
     8    5   25 1   
     9    6    7 ar  
    10    6    8 ar  
    11    6   29 1   
    12    7   17 ar  
    13    7   30 1   
    14    8   22 ar  
    15    8   31 1   
    16    9   16 ar  
    17    9   18 ar  
    18    9   32 1   
    19   10   19 ar  
    20   10   21 ar  
    21   10   33 1   
    22   11   13 1   
    23   11   14 1   
    24   11   34 1   
    25   11   35 1   
    26   12   17 1   
    27   13   16 1   
    28   14   20 1   
    29   15   18 1   
    30   16   20 ar  
    31   17   21 ar  
    32   18   23 ar  
    33   19   23 ar  
    34   19   25 1   
    35   20   24 ar  
    36   21   22 ar  
    37   22   24 ar  
    38   23   24 ar  
@<TRIPOS>SUBSTRUCTURE
     1 17N         1 TEMP              0 ****  ****    0 ROOT
