@<TRIPOS>MOLECULE
17N
   35    33     1     0     0
SMALL
bcc


@<TRIPOS>ATOM
      1 CAA        -4.7910   -0.0070   -1.6960 c3        1 17N     -0.075000
      2 OAB         4.2080   -1.1110   -2.4120 o         1 17N     -0.553250
      3 OAC         1.1900    1.1920   -3.8750 o         1 17N     -0.553250
      4 OAD         4.3770    1.0590   -2.2750 o         1 17N     -0.553250
      5 OAE         1.0470   -0.9780   -4.0300 o         1 17N     -0.553250
      6 CAF        -2.6440   -0.0070    1.9910 c1        1 17N     -0.147000
      7 CAG        -3.4210   -0.0070    0.8360 c1        1 17N     -0.161000
      8 CAH        -1.2580   -0.0070    1.8960 c1        1 17N     -0.147000
      9 CAI         3.5810   -0.0070    0.3500 c1        1 17N     -0.125000
     10 CAJ        -0.7870   -0.0070   -1.7800 c1        1 17N     -0.210000
     11 CAK         2.4270   -0.0070    3.8360 c3        1 17N      0.104000
     12 OAL        -3.3810   -0.0070   -1.6960 os        1 17N     -0.241000
     13 OAM         3.5000   -0.0070    2.9360 os        1 17N     -0.242000
     14 OAN         1.2380   -0.0070    3.0960 os        1 17N     -0.244000
     15 CAO         3.8510   -0.0200   -1.8950 c2        1 17N      0.381000
     16 CAP         2.9660   -0.0070    1.6140 c2        1 17N     -0.011000
     17 CAQ        -2.8120   -0.0070   -0.4120 c2        1 17N      0.029000
     18 CAR         2.8020   -0.0070   -0.8050 c1        1 17N     -0.004500
     19 CAS         0.6010   -0.0070   -1.8770 c1        1 17N     -0.004500
     20 CAT         1.5810   -0.0070    1.7120 c2        1 17N     -0.049000
     21 CAU        -1.4080   -0.0070   -0.5100 c2        1 17N     -0.006000
     22 CAV        -0.6390   -0.0070    0.6330 c1        1 17N     -0.033000
     23 CAW         1.3910   -0.0070   -0.7060 c1        1 17N      0.013000
     24 CAX         0.7860   -0.0070    0.5340 c1        1 17N     -0.016000
     25 CAY         0.9720    0.0730   -3.3410 c2        1 17N      0.381000
     26 HAA        -5.1170    0.7900   -1.2360 h1        1 17N      0.076333
     27 HAAA       -5.1170   -0.8040   -1.2360 h1        1 17N      0.076333
     28 HAAB       -5.1170   -0.0070   -2.6160 h1        1 17N      0.076333
     29 HAF        -3.0730   -0.0070    2.8680 ha        1 17N      0.118000
     30 HAG        -4.3950   -0.0070    0.9030 ha        1 17N      0.111000
     31 HAH        -0.7130   -0.0070    2.7060 ha        1 17N      0.118000
     32 HAI         4.5550   -0.0100    0.2810 ha        1 17N      0.158000
     33 HAJ        -1.3320   -0.0090   -2.5900 ha        1 17N      0.146000
     34 HAK         2.4660   -0.8060    4.3970 h2        1 17N      0.070000
     35 HAKA        2.4660    0.7910    4.3970 h2        1 17N      0.070000
@<TRIPOS>BOND
     1    1   12 1   
     2    1   26 1   
     3    1   27 1   
     4    1   28 1   
     5    2   15 1   
     6    3   25 1   
     7    4   15 1   
     8    5   25 1   
     9    6    8 1   
    10    6   29 1   
    11    7   17 1   
    12    7   30 1   
    13    8   31 1   
    14    9   16 1   
    15    9   32 1   
    16   10   21 1   
    17   10   33 1   
    18   11   13 1   
    19   11   14 1   
    20   11   34 1   
    21   11   35 1   
    22   12   17 1   
    23   13   16 1   
    24   14   20 1   
    25   15   18 1   
    26   16   20 1   
    27   17   21 1   
    28   18   23 1   
    29   19   23 1   
    30   19   25 1   
    31   20   24 1   
    32   21   22 1   
    33   22   24 1   
@<TRIPOS>SUBSTRUCTURE
     1 17N         1 TEMP              0 ****  ****    0 ROOT
