@<TRIPOS>MOLECULE
17N
   35    38     1     0     0
SMALL
bcc


@<TRIPOS>ATOM
      1 CAA         1.1650   -0.8080   -0.4660 c3        1 17N      0.114700
      2 OAB         7.5840   -2.2100   -0.0590 o         1 17N     -0.817800
      3 OAC         6.6810    1.8440   -1.0720 o         1 17N     -0.819300
      4 OAD         9.2910   -0.7670    0.0000 o         1 17N     -0.817800
      5 OAE         5.5490    0.2560   -2.1660 o         1 17N     -0.819300
      6 CAF         1.7980    0.4110    3.9020 ca        1 17N     -0.184000
      7 CAG         1.0900    0.3600    2.6920 ca        1 17N     -0.161000
      8 CAH         3.1800    0.4050    3.9060 ca        1 17N     -0.110000
      9 CAI         8.1770   -0.3160    2.6200 ca        1 17N     -0.125000
     10 CAJ         3.9600    0.4600    0.2600 ca        1 17N     -0.210000
     11 CAK         6.9830    0.5250    5.9420 c3        1 17N      0.326200
     12 OAL         1.0500    0.3750    0.3200 os        1 17N     -0.357900
     13 OAM         8.0760    0.1930    5.0730 os        1 17N     -0.358900
     14 OAN         5.7830    0.5830    5.1560 os        1 17N     -0.360900
     15 CAO         8.1330   -1.1420    0.3260 c         1 17N      0.933200
     16 CAP         7.5340    0.0660    3.7850 ca        1 17N      0.034100
     17 CAQ         1.7960    0.3410    1.4980 ca        1 17N      0.074100
     18 CAR         7.4110   -0.3700    1.4470 ca        1 17N     -0.040600
     19 CAS         5.3260    0.3670    0.2240 ca        1 17N     -0.009600
     20 CAT         6.1550    0.3130    3.8240 ca        1 17N     -0.003900
     21 CAU         3.2170    0.3720    1.4710 ca        1 17N     -0.006000
     22 CAV         3.9190    0.3670    2.7040 ca        1 17N     -0.033000
     23 CAW         6.0610    0.0720    1.4330 ca        1 17N      0.013000
     24 CAX         5.3590    0.2730    2.6740 ca        1 17N     -0.016000
     25 CAY         5.9450    0.8210   -1.1110 c         1 17N      0.931200
     26 HAA         0.7860   -0.5050   -1.4740 h1        1 17N      0.037033
     27 HAAA        0.5150   -1.6060   -0.0270 h1        1 17N      0.037033
     28 HAAB        2.2220   -1.1640   -0.5330 h1        1 17N      0.037033
     29 HAF         1.2420    0.4440    4.8480 ha        1 17N      0.099000
     30 HAG        -0.0080    0.3470    2.6850 ha        1 17N      0.111000
     31 HAH         3.7080    0.4200    4.8710 ha        1 17N      0.137000
     32 HAI         9.2420   -0.5800    2.5930 ha        1 17N      0.158000
     33 HAJ         3.4130    0.6560   -0.6760 ha        1 17N      0.146000
     34 HAK         7.1700    1.5320    6.3930 h2        1 17N      0.030700
     35 HAKA        6.8730   -0.2820    6.7100 h2        1 17N      0.030700
@<TRIPOS>BOND
     1    1   12 1   
     2    1   26 1   
     3    1   27 1   
     4    1   28 1   
     5    2   15 1   
     6    3   25 1   
     7    4   15 1   
     8    5   25 1   
     9    6    7 ar  
    10    6    8 ar  
    11    6   29 1   
    12    7   17 ar  
    13    7   30 1   
    14    8   22 ar  
    15    8   31 1   
    16    9   16 ar  
    17    9   18 ar  
    18    9   32 1   
    19   10   19 ar  
    20   10   21 ar  
    21   10   33 1   
    22   11   13 1   
    23   11   14 1   
    24   11   34 1   
    25   11   35 1   
    26   12   17 1   
    27   13   16 1   
    28   14   20 1   
    29   15   18 1   
    30   16   20 ar  
    31   17   21 ar  
    32   18   23 ar  
    33   19   23 ar  
    34   19   25 1   
    35   20   24 ar  
    36   21   22 ar  
    37   22   24 ar  
    38   23   24 ar  
@<TRIPOS>SUBSTRUCTURE
     1 17N         1 TEMP              0 ****  ****    0 ROOT
