@<TRIPOS>MOLECULE
17O
   30    32     1     0     0
SMALL
bcc


@<TRIPOS>ATOM
      1 OAC         0.5020   -0.1540    0.6320 o         1 17O     -0.807300
      2 CAN         1.7110   -0.2700    0.2840 c         1 17O      0.919800
      3 OAB         2.6590   -0.6420    1.0150 o         1 17O     -0.807300
      4 CAP         2.0570    0.0850   -1.1980 ce        1 17O      0.024800
      5 NAK         1.0160    0.6910   -1.8990 nh        1 17O     -0.576800
      6 CAE         0.9710    1.3260   -3.0910 c2        1 17O      0.151000
      7 CAF         3.2740   -0.2390   -1.6890 c2        1 17O     -0.167400
      8 SAM         3.8720   -0.0790   -3.2380 ss        1 17O     -0.269700
      9 CAS         3.3920    1.6070   -3.6890 c3        1 17O      0.071300
     10 CAO         1.9530    1.7660   -3.9530 ce        1 17O     -0.365400
     11 CAD         1.4780    2.4670   -5.1390 c         1 17O      0.602100
     12 OAA         2.1020    3.2990   -5.8070 o         1 17O     -0.581100
     13 CAQ         4.3030    1.9400   -4.8080 cc        1 17O      0.351600
     14 NAJ         4.2910    1.3620   -6.0470 nd        1 17O     -0.449800
     15 NAT         5.3060    1.9140   -6.7160 na        1 17O      0.069400
     16 CAI         5.7170    1.7560   -8.0850 c3        1 17O      0.170400
     17 SAL         7.1300    2.8890   -8.3060 ss        1 17O     -0.371200
     18 CAH         7.1120    3.5740   -6.6350 c3        1 17O      0.104000
     19 CAR         6.0030    2.8900   -5.9540 cd        1 17O     -0.145600
     20 CAG         5.3810    2.9190   -4.7080 cc        1 17O     -0.230300
     21 H2          0.1520    0.6580   -1.3740 hn        1 17O      0.469800
     22 H5          3.9690   -0.7150   -0.9730 h4        1 17O      0.181000
     23 H6          3.6690    2.2570   -2.8100 h1        1 17O      0.079700
     24 H8          0.4230    2.2220   -5.4260 h4        1 17O     -0.042800
     25 H9          6.0520    0.7080   -8.2910 h2        1 17O      0.084700
     26 H10         6.9470    4.6760   -6.6920 h1        1 17O      0.084700
     27 H11         8.0930    3.3710   -6.1450 h1        1 17O      0.084700
     28 H12         5.6180    3.5210   -3.8400 ha        1 17O      0.166000
     29 H13         4.9010    2.0410   -8.7970 h2        1 17O      0.084700
     30 H3         -0.0810    1.5680   -3.3820 h4        1 17O      0.116000
@<TRIPOS>BOND
     1    1    2 1   
     2    2    3 1   
     3    2    4 1   
     4    4    5 1   
     5    4    7 2   
     6    5    6 1   
     7    5   21 1   
     8    6   10 2   
     9    6   30 1   
    10    7    8 1   
    11    7   22 1   
    12    8    9 1   
    13    9   10 1   
    14    9   13 1   
    15    9   23 1   
    16   10   11 1   
    17   11   12 2   
    18   11   24 1   
    19   13   14 2   
    20   13   20 1   
    21   14   15 1   
    22   15   16 1   
    23   15   19 1   
    24   16   17 1   
    25   16   25 1   
    26   16   29 1   
    27   17   18 1   
    28   18   19 1   
    29   18   26 1   
    30   18   27 1   
    31   19   20 2   
    32   20   28 1   
@<TRIPOS>SUBSTRUCTURE
     1 17O         1 TEMP              0 ****  ****    0 ROOT
