@<TRIPOS>MOLECULE
17O
   30    32     1     0     0
SMALL
bcc


@<TRIPOS>ATOM
      1 OAC         0.5300   -0.1060    0.6730 o         1 17O     -0.807300
      2 CAN         1.7330   -0.2360    0.3120 c         1 17O      0.919800
      3 OAB         2.6840   -0.6180    1.0340 o         1 17O     -0.807300
      4 CAP         2.0670    0.1100   -1.1750 ce        1 17O      0.024800
      5 NAK         1.0260    0.7270   -1.8660 nu        1 17O     -0.576800
      6 CAE         0.9760    1.3590   -3.0590 c2        1 17O      0.151000
      7 CAF         3.2750   -0.2290   -1.6770 c2        1 17O     -0.167400
      8 SAM         3.8600   -0.0810   -3.2330 ss        1 17O     -0.269700
      9 CAS         3.3950    1.6100   -3.6830 c3        1 17O      0.071300
     10 CAO         1.9550    1.7840   -3.9320 ce        1 17O     -0.365400
     11 CAD         1.4750    2.4880   -5.1160 c         1 17O      0.602100
     12 OAA         2.1030    3.3120   -5.7920 o         1 17O     -0.581100
     13 CAQ         4.2970    1.9290   -4.8120 cc        1 17O      0.351600
     14 NAJ         4.2660    1.3480   -6.0500 nd        1 17O     -0.449800
     15 NAT         5.2800    1.8860   -6.7300 na        1 17O      0.069400
     16 CAI         5.6760    1.7210   -8.1040 c3        1 17O      0.170400
     17 SAL         7.0990    2.8360   -8.3420 ss        1 17O     -0.371200
     18 CAH         7.1060    3.5260   -6.6720 c3        1 17O      0.104000
     19 CAR         5.9960    2.8570   -5.9780 cd        1 17O     -0.145600
     20 CAG         5.3880    2.8960   -4.7260 cc        1 17O     -0.230300
     21 H2          0.1680    0.7050   -1.3320 hn        1 17O      0.469800
     22 H5          3.9720   -0.7120   -0.9660 h4        1 17O      0.181000
     23 H6          3.6880    2.2590   -2.8090 h1        1 17O      0.079700
     24 H8          0.4150    2.2550   -5.3910 h4        1 17O     -0.042800
     25 H9          5.9960    0.6680   -8.3100 h2        1 17O      0.084700
     26 H10         6.9530    4.6300   -6.7310 h1        1 17O      0.084700
     27 H11         8.0900    3.3130   -6.1930 h1        1 17O      0.084700
     28 H12         5.6410    3.4980   -3.8620 ha        1 17O      0.166000
     29 H13         4.8550    2.0140   -8.8070 h2        1 17O      0.084700
     30 H3         -0.0760    1.6120   -3.3400 h4        1 17O      0.116000
@<TRIPOS>BOND
     1    1    2 1   
     2    2    3 1   
     3    2    4 1   
     4    4    5 1   
     5    4    7 2   
     6    5    6 1   
     7    5   21 1   
     8    6   10 2   
     9    6   30 1   
    10    7    8 1   
    11    7   22 1   
    12    8    9 1   
    13    9   10 1   
    14    9   13 1   
    15    9   23 1   
    16   10   11 1   
    17   11   12 2   
    18   11   24 1   
    19   13   14 2   
    20   13   20 1   
    21   14   15 1   
    22   15   16 1   
    23   15   19 1   
    24   16   17 1   
    25   16   25 1   
    26   16   29 1   
    27   17   18 1   
    28   18   19 1   
    29   18   26 1   
    30   18   27 1   
    31   19   20 2   
    32   20   28 1   
@<TRIPOS>SUBSTRUCTURE
     1 17O         1 TEMP              0 ****  ****    0 ROOT
