@<TRIPOS>MOLECULE
17O
   30    32     1     0     0
SMALL
bcc


@<TRIPOS>ATOM
      1 OAC        -5.8770   -0.2060   -0.1150 o         1 17O     -0.807300
      2 CAN        -5.0180    0.7150   -0.2020 c         1 17O      0.919800
      3 OAB        -5.2360    1.8990   -0.5500 o         1 17O     -0.807300
      4 CAP        -3.5430    0.3430    0.1570 ce        1 17O      0.024800
      5 NAK        -3.3240   -1.0230    0.3270 nh        1 17O     -0.576800
      6 CAE        -2.1930   -1.7560    0.4280 c2        1 17O      0.151000
      7 CAF        -2.6300    1.3280    0.3080 c2        1 17O     -0.167400
      8 SAM        -1.0340    1.2350    0.7850 ss        1 17O     -0.269700
      9 CAS        -0.3900   -0.1310   -0.2130 c3        1 17O      0.071300
     10 CAO        -0.8640   -1.4570    0.2170 ce        1 17O     -0.365400
     11 CAD         0.0640   -2.5680    0.3890 c         1 17O      0.602100
     12 OAA         1.1780   -2.6900   -0.1330 o         1 17O     -0.581100
     13 CAQ         1.0750    0.0800   -0.1860 cc        1 17O      0.351600
     14 NAJ         1.8800   -0.0420    0.9130 nd        1 17O     -0.449800
     15 NAT         3.1070    0.2900    0.5030 na        1 17O      0.069400
     16 CAI         4.3640    0.2610    1.2010 c3        1 17O      0.170400
     17 SAL         5.6170    0.7700   -0.0220 ss        1 17O     -0.371200
     18 CAH         4.4840    0.9530   -1.4180 c3        1 17O      0.104000
     19 CAR         3.1580    0.6150   -0.8800 cd        1 17O     -0.145600
     20 CAG         1.8520    0.4980   -1.3490 cc        1 17O     -0.230300
     21 H2         -4.1940   -1.5350    0.3440 hn        1 17O      0.469800
     22 H5         -2.9990    2.3550    0.1270 h4        1 17O      0.181000
     23 H6         -0.7490    0.0530   -1.2650 h1        1 17O      0.079700
     24 H8         -0.3220   -3.3920    1.0440 h4        1 17O     -0.042800
     25 H9          4.3710    0.9840    2.0560 h2        1 17O      0.084700
     26 H10         4.5290    2.0030   -1.7910 h1        1 17O      0.084700
     27 H11         4.7900    0.2570   -2.2330 h1        1 17O      0.084700
     28 H12         1.4670    0.6710   -2.3460 ha        1 17O      0.166000
     29 H13         4.6070   -0.7680    1.5710 h2        1 17O      0.084700
     30 H3         -2.4210   -2.8180    0.6900 h4        1 17O      0.116000
@<TRIPOS>BOND
     1    1    2 1   
     2    2    3 1   
     3    2    4 1   
     4    4    5 1   
     5    4    7 2   
     6    5    6 1   
     7    5   21 1   
     8    6   10 2   
     9    6   30 1   
    10    7    8 1   
    11    7   22 1   
    12    8    9 1   
    13    9   10 1   
    14    9   13 1   
    15    9   23 1   
    16   10   11 1   
    17   11   12 2   
    18   11   24 1   
    19   13   14 2   
    20   13   20 1   
    21   14   15 1   
    22   15   16 1   
    23   15   19 1   
    24   16   17 1   
    25   16   25 1   
    26   16   29 1   
    27   17   18 1   
    28   18   19 1   
    29   18   26 1   
    30   18   27 1   
    31   19   20 2   
    32   20   28 1   
@<TRIPOS>SUBSTRUCTURE
     1 17O         1 TEMP              0 ****  ****    0 ROOT
