@<TRIPOS>MOLECULE
17O
   30    28     1     0     0
SMALL
bcc


@<TRIPOS>ATOM
      1 OAC        -4.3080   -1.3190    3.8140 o         1 17O     -0.543000
      2 CAN        -3.0610   -1.1360    3.8300 c1        1 17O      0.371000
      3 OAB        -2.4650   -0.9540    4.9260 o         1 17O     -0.543000
      4 CAP        -2.2800   -1.1120    2.5280 c1        1 17O     -0.032000
      5 NAK        -2.4550   -0.0360    1.6180 n3        1 17O     -0.192000
      6 CAE        -1.2740    0.7630    1.5370 c2        1 17O      0.120000
      7 CAF        -1.4460   -2.3060    2.1290 c1        1 17O     -0.388000
      8 SAM        -0.4570   -2.2450    0.6630 s         1 17O      0.135000
      9 CAS         0.6530   -0.8520    0.6990 c3        1 17O     -0.062000
     10 CAO         0.0920    0.1270    1.7450 c2        1 17O     -0.379000
     11 CAD         0.9140    0.4780    2.9720 c2        1 17O      0.247000
     12 OAA         0.4790    1.2690    3.7910 o         1 17O     -0.384000
     13 CAQ         0.8600   -0.1980   -0.7040 c2        1 17O     -0.104000
     14 NAJ        -0.1290   -0.1010   -1.7400 n2        1 17O     -0.009000
     15 NAT         0.4590    0.4350   -2.8370 n2        1 17O     -0.138000
     16 CAI         0.2480    0.7180   -4.3410 c2        1 17O     -0.076000
     17 SAL         1.5520    1.4180   -4.8890 ss        1 17O     -0.002000
     18 CAH         2.5730    1.4490   -3.7330 c3        1 17O     -0.169000
     19 CAR         1.9080    0.7020   -2.5010 c2        1 17O     -0.114000
     20 CAG         2.1150    0.3160   -1.2270 c1        1 17O     -0.181000
     21 H2         -3.2300    0.1410    1.1710 hn        1 17O      0.267000
     22 H5         -1.4280   -3.1010    2.6970 ha        1 17O      0.183000
     23 H6          1.5650   -1.1270    0.9210 h1        1 17O      0.112000
     24 H8          1.8080    0.1000    3.0860 h4        1 17O      0.059000
     25 H9          0.0970   -0.1220   -4.8190 h4        1 17O      0.134500
     26 H10         3.3730    0.9500   -4.0070 h1        1 17O      0.122000
     27 H11         2.7350    2.3820   -3.4830 h1        1 17O      0.122000
     28 H12         2.9690    0.3280   -0.7560 DU        1 17O      0.162000
     29 H13        -0.5210    1.3100   -4.4620 h4        1 17O      0.134500
     30 H3         -1.3460    1.7240    1.3720 h4        1 17O      0.145000
@<TRIPOS>BOND
     1    1    2 1   
     2    2    3 1   
     3    4    5 1   
     4    4    7 1   
     5    5    6 1   
     6    5   21 1   
     7    6   10 1   
     8    6   30 1   
     9    7   22 1   
    10    8    9 1   
    11    9   10 1   
    12    9   13 1   
    13    9   23 1   
    14   10   11 1   
    15   11   12 1   
    16   11   24 1   
    17   13   14 1   
    18   13   20 1   
    19   14   15 1   
    20   15   19 1   
    21   16   17 1   
    22   16   25 1   
    23   16   29 1   
    24   17   18 1   
    25   18   19 1   
    26   18   26 1   
    27   18   27 1   
    28   19   20 1   
@<TRIPOS>SUBSTRUCTURE
     1 17O         1 TEMP              0 ****  ****    0 ROOT
