@<TRIPOS>MOLECULE
17O
   30    32     1     0     0
SMALL
bcc


@<TRIPOS>ATOM
      1 OAC         0.5230   -0.1120    0.6660 o         1 17O     -0.807300
      2 CAN         1.7200   -0.2650    0.2950 c         1 17O      0.919800
      3 OAB         2.6670   -0.6800    1.0040 o         1 17O     -0.807300
      4 CAP         2.0530    0.0990   -1.1880 ce        1 17O      0.024800
      5 NAK         1.0220    0.7500   -1.8620 nh        1 17O     -0.576800
      6 CAE         0.9790    1.4030   -3.0440 c2        1 17O      0.151000
      7 CAF         3.2490   -0.2600   -1.7050 c2        1 17O     -0.167400
      8 SAM         3.8260   -0.1000   -3.2620 ss        1 17O     -0.269700
      9 CAS         3.3980    1.6090   -3.6810 c3        1 17O      0.071300
     10 CAO         1.9610    1.8200   -3.9170 ce        1 17O     -0.365400
     11 CAD         1.4900    2.5540   -5.0850 c         1 17O      0.602100
     12 OAA         2.1310    3.3750   -5.7520 o         1 17O     -0.581100
     13 CAQ         4.3000    1.9240   -4.8120 cc        1 17O      0.351600
     14 NAJ         4.2450    1.3650   -6.0590 nd        1 17O     -0.449800
     15 NAT         5.2670    1.8890   -6.7380 na        1 17O      0.069400
     16 CAI         5.6480    1.7370   -8.1170 c3        1 17O      0.170400
     17 SAL         7.0970    2.8210   -8.3480 ss        1 17O     -0.371200
     18 CAH         7.1330    3.4830   -6.6670 c3        1 17O      0.104000
     19 CAR         6.0120    2.8300   -5.9760 cd        1 17O     -0.145600
     20 CAG         5.4140    2.8620   -4.7190 cc        1 17O     -0.230300
     21 H2          0.1670    0.7400   -1.3220 hn        1 17O      0.469800
     22 H5          3.9400   -0.7710   -1.0070 h4        1 17O      0.181000
     23 H6          3.7130    2.2360   -2.8000 h1        1 17O      0.079700
     24 H8          0.4220    2.3510   -5.3570 h4        1 17O     -0.042800
     25 H9          5.9420    0.6810   -8.3430 h2        1 17O      0.084700
     26 H10         8.1150    3.2380   -6.1990 h1        1 17O      0.084700
     27 H11         7.0070    4.5910   -6.7060 h1        1 17O      0.084700
     28 H12         5.6880    3.4430   -3.8470 ha        1 17O      0.166000
     29 H13         4.8300    2.0620   -8.8100 h2        1 17O      0.084700
     30 H3         -0.0690    1.6860   -3.3130 h4        1 17O      0.116000
@<TRIPOS>BOND
     1    1    2 1   
     2    2    3 1   
     3    2    4 1   
     4    4    5 1   
     5    4    7 2   
     6    5    6 1   
     7    5   21 1   
     8    6   10 2   
     9    6   30 1   
    10    7    8 1   
    11    7   22 1   
    12    8    9 1   
    13    9   10 1   
    14    9   13 1   
    15    9   23 1   
    16   10   11 1   
    17   11   12 2   
    18   11   24 1   
    19   13   14 2   
    20   13   20 1   
    21   14   15 1   
    22   15   16 1   
    23   15   19 1   
    24   16   17 1   
    25   16   25 1   
    26   16   29 1   
    27   17   18 1   
    28   18   19 1   
    29   18   26 1   
    30   18   27 1   
    31   19   20 2   
    32   20   28 1   
@<TRIPOS>SUBSTRUCTURE
     1 17O         1 TEMP              0 ****  ****    0 ROOT
