@<TRIPOS>MOLECULE
17P
   53    45     1     0     0
SMALL
bcc


@<TRIPOS>ATOM
      1 C           0.7700   -0.1120   -0.6580 c1        1 17P     -0.015000
      2 C1          2.1310   -0.2770   -0.6020 c1        1 17P     -0.015000
      3 N           2.4860   -0.4530    0.7220 n1        1 17P     -0.221000
      4 C2          1.3250   -0.3960    1.4920 c1        1 17P      0.133000
      5 C3          0.2710   -0.1880    0.6520 c1        1 17P     -0.211000
      6 C4          1.1140   -0.4690    2.8630 c1        1 17P     -0.272000
      7 C5         -0.1740   -0.3280    3.3790 c2        1 17P      0.052000
      8 N6         -1.2360   -0.1170    2.5310 n1        1 17P     -0.228000
      9 C7         -1.0320   -0.0450    1.1780 c1        1 17P      0.206000
     10 C8          0.1250    0.0100   -1.9070 c1        1 17P     -0.117000
     11 C9          0.8700   -0.0370   -3.0830 c1        1 17P     -0.117000
     12 C10         2.2510   -0.2050   -3.0250 c1        1 17P      0.034000
     13 C11         2.8860   -0.3240   -1.7940 c1        1 17P     -0.144000
     14 C12         1.8900   -1.7320    3.2320 c1        1 17P      0.351000
     15 N13        -2.2730    0.6150    0.8330 n3        1 17P     -0.278000
     16 C14        -3.4800    0.2960    1.5470 c3        1 17P      0.013000
     17 C15        -4.0750    1.5800    2.1060 c3        1 17P     -0.172000
     18 C16        -5.4510    1.3640    2.7230 c3        1 17P     -0.153500
     19 C17        -6.4060    0.6420    1.7790 c3        1 17P     -0.159000
     20 C18        -5.8110   -0.6430    1.2190 c3        1 17P     -0.153500
     21 C19        -4.4360   -0.4270    0.6020 c3        1 17P     -0.172000
     22 N20         3.0860   -1.6350    4.0130 n3        1 17P     -0.424000
     23 O           1.4960   -2.8230    2.8510 o         1 17P     -0.367000
     24 C21         3.6190   -0.2310   -3.7030 c2        1 17P     -0.150000
     25 C22         4.3860    0.8610   -4.0070 c1        1 17P     -0.128000
     26 N23         5.5760    0.4200   -4.4800 n2        1 17P     -0.100500
     27 N24         5.5520   -0.9560   -4.4720 n2        1 17P     -0.100500
     28 C25         4.3490   -1.3520   -3.9940 c1        1 17P     -0.128000
     29 C26         6.7030    1.2400   -4.8210 c2        1 17P     -0.059000
     30 HN          3.3390   -0.5620    1.0410 DU        1 17P      0.203000
     31 H5         -0.3230   -0.3790    4.3490 h4        1 17P      0.180000
     32 H8         -0.8450    0.1270   -1.9480 ha        1 17P      0.133000
     33 H9          0.4220    0.0470   -3.9510 ha        1 17P      0.133000
     34 H11         3.8580   -0.4420   -1.7540 ha        1 17P      0.135000
     35 HN13       -2.2920    1.2280    0.1510 hn        1 17P      0.213000
     36 H14        -3.2590   -0.3030    2.2930 h1        1 17P      0.129000
     37 H15        -3.4700    1.9370    2.7960 hc        1 17P      0.086000
     38 H15A       -4.1530    2.2390    1.3780 hc        1 17P      0.086000
     39 H16        -5.8360    2.2390    2.9570 hc        1 17P      0.083750
     40 H16A       -5.3510    0.8300    3.5440 hc        1 17P      0.083750
     41 H17        -6.6280    1.2420    1.0310 hc        1 17P      0.080000
     42 H17A       -7.2330    0.4230    2.2680 hc        1 17P      0.080000
     43 H18        -6.4170   -1.0000    0.5290 hc        1 17P      0.083750
     44 H18A       -5.7330   -1.3010    1.9470 hc        1 17P      0.083750
     45 H19        -4.0510   -1.3020    0.3680 hc        1 17P      0.086000
     46 H19A       -4.5360    0.1080   -0.2190 hc        1 17P      0.086000
     47 HN20        3.2660   -0.8700    4.4830 hn        1 17P      0.214500
     48 HN2A        3.6730   -2.3410    4.0430 hn        1 17P      0.214500
     49 H22         4.1210    1.7980   -3.9000 DU        1 17P      0.203000
     50 H25         4.0530   -2.2790   -3.8780 DU        1 17P      0.203000
     51 H26         6.6560    2.0860   -4.3220 ha        1 17P      0.098000
     52 H26A        6.6920    1.4280   -5.7860 ha        1 17P      0.098000
     53 H26B        7.5340    0.7680   -4.5890 ha        1 17P      0.098000
@<TRIPOS>BOND
     1    1    2 1   
     2    3    4 1   
     3    4    6 1   
     4    5    9 1   
     5    6    7 1   
     6    7    8 1   
     7    7   31 1   
     8    9   15 1   
     9   10   11 1   
    10   10   32 1   
    11   11   33 1   
    12   12   13 1   
    13   12   24 1   
    14   13   34 1   
    15   14   22 1   
    16   14   23 1   
    17   15   16 1   
    18   15   35 1   
    19   16   17 1   
    20   16   21 1   
    21   16   36 1   
    22   17   18 1   
    23   17   37 1   
    24   17   38 1   
    25   18   19 1   
    26   18   39 1   
    27   18   40 1   
    28   19   20 1   
    29   19   41 1   
    30   19   42 1   
    31   20   21 1   
    32   20   43 1   
    33   20   44 1   
    34   21   45 1   
    35   21   46 1   
    36   22   47 1   
    37   22   48 1   
    38   24   25 1   
    39   24   28 1   
    40   25   26 1   
    41   26   27 1   
    42   27   28 1   
    43   29   51 1   
    44   29   52 1   
    45   29   53 1   
@<TRIPOS>SUBSTRUCTURE
     1 17P         1 TEMP              0 ****  ****    0 ROOT
