@<TRIPOS>MOLECULE
17P
   55    59     1     0     0
SMALL
bcc


@<TRIPOS>ATOM
      1 C          -0.2390    0.3550    0.2780 cp        1 17P     -0.165000
      2 C1          1.1500   -0.0490    0.2070 ca        1 17P      0.017800
      3 N           1.6790   -0.1300    1.5250 na        1 17P     -0.135300
      4 C2          0.7000    0.2030    2.4170 ca        1 17P      0.134800
      5 C3         -0.5500    0.5290    1.6760 cp        1 17P     -0.103300
      6 C4          0.7160    0.2810    3.8260 ca        1 17P     -0.372900
      7 C5         -0.5060    0.6820    4.4490 ca        1 17P      0.485200
      8 N6         -1.6230    0.9880    3.8140 nb        1 17P     -0.665000
      9 C7         -1.6470    0.9190    2.4310 ca        1 17P      0.516200
     10 C8         -0.9470    0.4770   -0.9180 ca        1 17P     -0.049000
     11 C9         -0.3050    0.2310   -2.1220 ca        1 17P     -0.147000
     12 C10         1.0570   -0.1520   -2.1920 ca        1 17P      0.153000
     13 C11         1.7950   -0.2980   -0.9930 ca        1 17P     -0.143000
     14 C12         1.9350   -0.0340    4.5320 c         1 17P      0.585700
     15 N13        -2.9090    1.3150    1.7810 n4        1 17P     -0.749700
     16 C14        -4.0390    0.3170    1.9830 c3        1 17P      0.130500
     17 C15        -5.3770    0.9660    1.6050 c3        1 17P     -0.100900
     18 C16        -6.5000   -0.0190    1.8720 c3        1 17P     -0.078400
     19 C17        -6.2950   -1.3150    1.1170 c3        1 17P     -0.093400
     20 C18        -4.9490   -1.9300    1.4340 c3        1 17P     -0.078400
     21 C19        -3.8160   -0.9570    1.1650 c3        1 17P     -0.100900
     22 N20         1.9360    0.0780    6.0420 n4        1 17P     -0.751400
     23 O           3.0130   -0.3920    4.0660 o         1 17P     -0.442100
     24 C21         1.6840   -0.3930   -3.4440 cc        1 17P     -0.305300
     25 C22         1.1280   -0.2850   -4.7500 cd        1 17P     -0.069300
     26 N23         2.1320   -0.6200   -5.6410 na        1 17P      0.127400
     27 N24         3.2840   -0.9340   -5.0100 nd        1 17P     -0.471800
     28 C25         3.0580   -0.8100   -3.6850 cc        1 17P      0.345200
     29 C26         1.9880   -0.6380   -7.0840 c3        1 17P      0.021600
     30 HN          2.6130   -0.3930    1.7500 hn        1 17P      0.350700
     31 H5         -0.5920    0.7660    5.5510 h4        1 17P      0.036100
     32 H8         -2.0110    0.7540   -0.9330 ha        1 17P      0.123000
     33 H9         -0.8730    0.3340   -3.0620 ha        1 17P      0.162000
     34 H11         2.8530   -0.6010   -1.0290 ha        1 17P      0.173000
     35 HN13       -2.7320    1.4270    0.7750 hn        1 17P      0.466300
     36 H14        -4.0520    0.0610    3.0860 hx        1 17P      0.123700
     37 H15        -5.5510    1.8940    2.2110 hc        1 17P      0.063450
     38 H15A       -5.3790    1.2470    0.5190 hc        1 17P      0.063450
     39 H16        -6.5680   -0.2250    2.9730 hc        1 17P      0.072450
     40 H16A       -7.4710    0.4520    1.5590 hc        1 17P      0.072450
     41 H17        -7.1090   -2.0380    1.3930 hc        1 17P      0.072200
     42 H17A       -6.3770   -1.1280    0.0140 hc        1 17P      0.072200
     43 H18        -4.7940   -2.8450    0.8020 hc        1 17P      0.072450
     44 H18A       -4.9220   -2.2550    2.5070 hc        1 17P      0.072450
     45 H19        -2.8400   -1.4330    1.4440 hc        1 17P      0.063450
     46 H19A       -3.7860   -0.7130    0.0700 hc        1 17P      0.063450
     47 HN20        1.7150    1.0370    6.3270 hn        1 17P      0.477467
     48 HN2A        1.2460   -0.5620    6.4470 hn        1 17P      0.477467
     49 H22         0.1250   -0.0010   -5.0730 h4        1 17P      0.188000
     50 H25         3.8410   -1.0100   -2.9510 h4        1 17P      0.053100
     51 H26         0.9400   -0.3400   -7.3450 h1        1 17P      0.081367
     52 H26A        2.7160    0.0830   -7.5450 h1        1 17P      0.081367
     53 H26B        2.2000   -1.6720   -7.4720 h1        1 17P      0.081367
     54 H132       -3.2150    2.2220    2.1670 hn        1 17P      0.466300
     55 H203        2.8720   -0.1710    6.3990 hn        1 17P      0.477467
@<TRIPOS>BOND
     1    1    2 ar  
     2    1    5 1   
     3    1   10 ar  
     4    2    3 1   
     5    2   13 ar  
     6    3    4 1   
     7    3   30 1   
     8    4    5 ar  
     9    4    6 ar  
    10    5    9 ar  
    11    6    7 ar  
    12    6   14 1   
    13    7    8 ar  
    14    7   31 1   
    15    8    9 ar  
    16    9   15 1   
    17   10   11 ar  
    18   10   32 1   
    19   11   12 ar  
    20   11   33 1   
    21   12   13 ar  
    22   12   24 1   
    23   13   34 1   
    24   14   22 1   
    25   14   23 2   
    26   15   16 1   
    27   15   35 1   
    28   15   54 1   
    29   16   17 1   
    30   16   21 1   
    31   16   36 1   
    32   17   18 1   
    33   17   37 1   
    34   17   38 1   
    35   18   19 1   
    36   18   39 1   
    37   18   40 1   
    38   19   20 1   
    39   19   41 1   
    40   19   42 1   
    41   20   21 1   
    42   20   43 1   
    43   20   44 1   
    44   21   45 1   
    45   21   46 1   
    46   22   47 1   
    47   22   48 1   
    48   22   55 1   
    49   24   25 2   
    50   24   28 1   
    51   25   26 1   
    52   25   49 1   
    53   26   27 1   
    54   26   29 1   
    55   27   28 2   
    56   28   50 1   
    57   29   51 1   
    58   29   52 1   
    59   29   53 1   
@<TRIPOS>SUBSTRUCTURE
     1 17P         1 TEMP              0 ****  ****    0 ROOT
