@<TRIPOS>MOLECULE
17P
   53    57     1     0     0
SMALL
bcc


@<TRIPOS>ATOM
      1 C           0.4200    0.0700   -0.1640 cp        1 17P     -0.053000
      2 C1          1.3350    1.1850   -0.0080 ca        1 17P     -0.014200
      3 N           0.5990    2.3800    0.0680 na        1 17P     -0.169300
      4 C2         -0.7500    2.0680   -0.0060 ca        1 17P      0.114800
      5 C3         -0.9140    0.6360   -0.1510 cp        1 17P     -0.282300
      6 C4         -1.8740    2.9200    0.0290 ca        1 17P     -0.358900
      7 C5         -3.1220    2.2700   -0.0530 ca        1 17P      0.500200
      8 N6         -3.3230    0.9540   -0.1700 nb        1 17P     -0.765000
      9 C7         -2.2330    0.1090   -0.2370 ca        1 17P      0.731200
     10 C8          0.9490   -1.2080   -0.2940 ca        1 17P     -0.093000
     11 C9          2.3290   -1.3870   -0.2520 ca        1 17P     -0.150000
     12 C10         3.2160   -0.3050   -0.0860 ca        1 17P      0.034000
     13 C11         2.7160    0.9990    0.0350 ca        1 17P     -0.140000
     14 C12        -1.6990    4.3760    0.1650 c         1 17P      0.700700
     15 N13        -2.4100   -1.2530   -0.4520 nh        1 17P     -0.832900
     16 C14        -3.7040   -1.8980   -0.3160 c3        1 17P      0.210500
     17 C15        -3.6880   -3.2840   -0.9900 c3        1 17P     -0.093900
     18 C16        -5.0660   -3.9060   -0.9360 c3        1 17P     -0.074400
     19 C17        -5.5640   -4.0330    0.4880 c3        1 17P     -0.080400
     20 C18        -5.5420   -2.6930    1.1940 c3        1 17P     -0.074400
     21 C19        -4.1680   -2.0610    1.1430 c3        1 17P     -0.093900
     22 N20        -2.7600    5.2130   -0.0880 n         1 17P     -0.670000
     23 O          -0.6040    4.8870    0.5070 o         1 17P     -0.656100
     24 C21         4.6340   -0.5360   -0.0440 cc        1 17P     -0.213300
     25 C22         5.3160   -1.7530    0.1540 cd        1 17P     -0.128300
     26 N23         6.6830   -1.4620    0.1140 na        1 17P      0.086400
     27 N24         6.9080   -0.1520   -0.0980 nd        1 17P     -0.508800
     28 C25         5.6960    0.4440   -0.1980 cc        1 17P      0.313200
     29 C26         7.7310   -2.4380    0.2740 c3        1 17P      0.040600
     30 HN          0.9540    3.2880    0.2520 hn        1 17P      0.337700
     31 H5         -4.0650    2.8480    0.0010 h4        1 17P      0.015100
     32 H8          0.3050   -2.0850   -0.4440 ha        1 17P      0.127000
     33 H9          2.7410   -2.4010   -0.3600 ha        1 17P      0.128000
     34 H11         3.3990    1.8510    0.1620 ha        1 17P      0.143000
     35 HN13       -1.6350   -1.8150   -0.1700 hn        1 17P      0.417800
     36 H14        -4.4660   -1.2610   -0.8570 h1        1 17P      0.087700
     37 H15        -3.3650   -3.1830   -2.0590 hc        1 17P      0.046950
     38 H15A       -2.9520   -3.9520   -0.4710 hc        1 17P      0.046950
     39 H16        -5.7840   -3.2800   -1.5290 hc        1 17P      0.043950
     40 H16A       -5.0310   -4.9200   -1.4140 hc        1 17P      0.043950
     41 H17        -6.6080   -4.4410    0.4870 hc        1 17P      0.041200
     42 H17A       -4.9180   -4.7610    1.0470 hc        1 17P      0.041200
     43 H18        -6.2870   -2.0050    0.7140 hc        1 17P      0.043950
     44 H18A       -5.8480   -2.8270    2.2640 hc        1 17P      0.043950
     45 H19        -3.4380   -2.7010    1.7040 hc        1 17P      0.046950
     46 H19A       -4.2010   -1.0590    1.6440 hc        1 17P      0.046950
     47 HN20       -3.6090    4.8750   -0.4570 hn        1 17P      0.311500
     48 HN2A       -2.6230    6.1910   -0.0230 hn        1 17P      0.311500
     49 H22         4.9390   -2.7610    0.3200 h4        1 17P      0.176000
     50 H25         5.5920    1.5140   -0.3770 h4        1 17P      0.045100
     51 H26         8.3610   -2.4830   -0.6540 h1        1 17P      0.058367
     52 H26A        8.3860   -2.1620    1.1440 h1        1 17P      0.058367
     53 H26B        7.2640   -3.4400    0.4600 h1        1 17P      0.058367
@<TRIPOS>BOND
     1    1    2 ar  
     2    1    5 1   
     3    1   10 ar  
     4    2    3 1   
     5    2   13 ar  
     6    3    4 1   
     7    3   30 1   
     8    4    5 ar  
     9    4    6 ar  
    10    5    9 ar  
    11    6    7 ar  
    12    6   14 1   
    13    7    8 ar  
    14    7   31 1   
    15    8    9 ar  
    16    9   15 1   
    17   10   11 ar  
    18   10   32 1   
    19   11   12 ar  
    20   11   33 1   
    21   12   13 ar  
    22   12   24 1   
    23   13   34 1   
    24   14   22 1   
    25   14   23 2   
    26   15   16 1   
    27   15   35 1   
    28   16   17 1   
    29   16   21 1   
    30   16   36 1   
    31   17   18 1   
    32   17   37 1   
    33   17   38 1   
    34   18   19 1   
    35   18   39 1   
    36   18   40 1   
    37   19   20 1   
    38   19   41 1   
    39   19   42 1   
    40   20   21 1   
    41   20   43 1   
    42   20   44 1   
    43   21   45 1   
    44   21   46 1   
    45   22   47 1   
    46   22   48 1   
    47   24   25 2   
    48   24   28 1   
    49   25   26 1   
    50   25   49 1   
    51   26   27 1   
    52   26   29 1   
    53   27   28 2   
    54   28   50 1   
    55   29   51 1   
    56   29   52 1   
    57   29   53 1   
@<TRIPOS>SUBSTRUCTURE
     1 17P         1 TEMP              0 ****  ****    0 ROOT
