@<TRIPOS>MOLECULE
17P
   54    58     1     0     0
SMALL
bcc


@<TRIPOS>ATOM
      1 C          -0.0750    0.0330   -0.0080 cp        1 17P     -0.054000
      2 C1          1.3710    0.0360   -0.0380 ca        1 17P     -0.032200
      3 N           1.8580    0.0150    1.2900 na        1 17P     -0.146300
      4 C2          0.7820   -0.0010    2.1460 ca        1 17P      0.133800
      5 C3         -0.4510    0.0080    1.3930 cp        1 17P     -0.300300
      6 C4          0.7600   -0.0250    3.5750 ca        1 17P     -0.448900
      7 C5         -0.5510   -0.0410    4.1490 ca        1 17P      0.531200
      8 N6         -1.6910   -0.0360    3.5010 nb        1 17P     -0.729000
      9 C7         -1.6920   -0.0060    2.0920 ca        1 17P      0.789200
     10 C8         -0.7590    0.0530   -1.2200 ca        1 17P     -0.093000
     11 C9         -0.0410    0.0750   -2.4090 ca        1 17P     -0.128000
     12 C10         1.3710    0.0780   -2.4360 ca        1 17P      0.065000
     13 C11         2.0900    0.0570   -1.2310 ca        1 17P     -0.128000
     14 C12         1.9820   -0.0290    4.2890 c         1 17P      0.590700
     15 N13        -2.8700    0.0310    1.4190 nh        1 17P     -0.803900
     16 C14        -4.1920   -0.0240    2.0310 c3        1 17P      0.213500
     17 C15        -5.2450    0.6080    1.1020 c3        1 17P     -0.091900
     18 C16        -6.5960    0.6170    1.7880 c3        1 17P     -0.076900
     19 C17        -7.0240   -0.7780    2.1910 c3        1 17P     -0.084400
     20 C18        -5.9760   -1.4420    3.0600 c3        1 17P     -0.076900
     21 C19        -4.6210   -1.4580    2.3840 c3        1 17P     -0.091900
     22 N20         1.8970   -0.0460    5.8170 n4        1 17P     -0.758400
     23 O           3.1500   -0.0210    3.8930 o         1 17P     -0.510100
     24 C21         2.0720    0.1020   -3.6870 cc        1 17P     -0.249300
     25 C22         1.5580   -0.1140   -4.9850 cd        1 17P     -0.109300
     26 N23         2.6290    0.0130   -5.8680 na        1 17P      0.102400
     27 N24         3.7760    0.2970   -5.2240 nd        1 17P     -0.493800
     28 C25         3.4850    0.3580   -3.9040 cc        1 17P      0.319200
     29 C26         2.5320   -0.1350   -7.3020 c3        1 17P      0.033600
     30 HN          2.8130    0.0120    1.5550 hn        1 17P      0.330700
     31 H5         -0.6780   -0.0650    5.2510 h4        1 17P      0.002100
     32 H8         -1.8570    0.0560   -1.2650 ha        1 17P      0.129000
     33 H9         -0.5880    0.0970   -3.3650 ha        1 17P      0.143000
     34 H11         3.1890    0.0540   -1.2360 ha        1 17P      0.152000
     35 HN13       -2.8310   -0.0060    0.4240 hn        1 17P      0.456800
     36 H14        -4.1640    0.5820    2.9860 h1        1 17P      0.087700
     37 H15        -4.9520    1.6590    0.8440 hc        1 17P      0.051950
     38 H15A       -5.3140    0.0230    0.1470 hc        1 17P      0.051950
     39 H16        -7.3560    1.0570    1.0900 hc        1 17P      0.052450
     40 H16A       -6.5520    1.2750    2.6950 hc        1 17P      0.052450
     41 H17        -7.9950   -0.7260    2.7480 hc        1 17P      0.052700
     42 H17A       -7.1970   -1.3990    1.2720 hc        1 17P      0.052700
     43 H18        -5.9010   -0.8980    4.0390 hc        1 17P      0.052450
     44 H18A       -6.2860   -2.4960    3.2840 hc        1 17P      0.052450
     45 H19        -4.6730   -2.0810    1.4520 hc        1 17P      0.051950
     46 H19A       -3.8670   -1.9250    3.0690 hc        1 17P      0.051950
     47 HN20        2.8480   -0.0440    6.2050 hn        1 17P      0.459133
     48 HN2A        1.3960    0.7800    6.1470 hn        1 17P      0.459133
     49 H22         0.5480   -0.3470   -5.3220 h4        1 17P      0.180000
     50 H25         4.2470    0.5820   -3.1580 h4        1 17P      0.045100
     51 H26         3.2100   -0.9610   -7.6480 h1        1 17P      0.067367
     52 H26A        2.8350    0.8220   -7.8060 h1        1 17P      0.067367
     53 H26B        1.4710   -0.3810   -7.5670 h1        1 17P      0.067367
     54 H203        1.4060   -0.8850    6.1300 hn        1 17P      0.459133
@<TRIPOS>BOND
     1    1    2 ar  
     2    1    5 1   
     3    1   10 ar  
     4    2    3 1   
     5    2   13 ar  
     6    3    4 1   
     7    3   30 1   
     8    4    5 ar  
     9    4    6 ar  
    10    5    9 ar  
    11    6    7 ar  
    12    6   14 1   
    13    7    8 ar  
    14    7   31 1   
    15    8    9 ar  
    16    9   15 1   
    17   10   11 ar  
    18   10   32 1   
    19   11   12 ar  
    20   11   33 1   
    21   12   13 ar  
    22   12   24 1   
    23   13   34 1   
    24   14   22 1   
    25   14   23 2   
    26   15   16 1   
    27   15   35 1   
    28   16   17 1   
    29   16   21 1   
    30   16   36 1   
    31   17   18 1   
    32   17   37 1   
    33   17   38 1   
    34   18   19 1   
    35   18   39 1   
    36   18   40 1   
    37   19   20 1   
    38   19   41 1   
    39   19   42 1   
    40   20   21 1   
    41   20   43 1   
    42   20   44 1   
    43   21   45 1   
    44   21   46 1   
    45   22   47 1   
    46   22   48 1   
    47   22   54 1   
    48   24   25 2   
    49   24   28 1   
    50   25   26 1   
    51   25   49 1   
    52   26   27 1   
    53   26   29 1   
    54   27   28 2   
    55   28   50 1   
    56   29   51 1   
    57   29   52 1   
    58   29   53 1   
@<TRIPOS>SUBSTRUCTURE
     1 17P         1 TEMP              0 ****  ****    0 ROOT
