@<TRIPOS>MOLECULE
17P
   54    58     1     0     0
SMALL
bcc


@<TRIPOS>ATOM
      1 C          -0.0750   -0.0190   -0.0120 cp        1 17P     -0.054000
      2 C1          1.3710   -0.0210   -0.0410 ca        1 17P     -0.032200
      3 N           1.8570   -0.0020    1.2870 na        1 17P     -0.146300
      4 C2          0.7800    0.0100    2.1430 ca        1 17P      0.133800
      5 C3         -0.4520   -0.0020    1.3890 cp        1 17P     -0.300300
      6 C4          0.7580    0.0310    3.5710 ca        1 17P     -0.448900
      7 C5         -0.5530    0.0340    4.1460 ca        1 17P      0.531200
      8 N6         -1.6940    0.0190    3.4970 nb        1 17P     -0.729000
      9 C7         -1.6940    0.0050    2.0870 ca        1 17P      0.788200
     10 C8         -0.7590   -0.0320   -1.2240 ca        1 17P     -0.093000
     11 C9         -0.0390   -0.0500   -2.4130 ca        1 17P     -0.128000
     12 C10         1.3720   -0.0540   -2.4390 ca        1 17P      0.065000
     13 C11         2.0910   -0.0370   -1.2340 ca        1 17P     -0.128000
     14 C12         1.9800    0.0450    4.2860 c         1 17P      0.590700
     15 N13        -2.8710    0.0190    1.4130 nu        1 17P     -0.803900
     16 C14        -4.1930   -0.0180    2.0250 c3        1 17P      0.213500
     17 C15        -5.2470    0.5810    1.0760 c3        1 17P     -0.091900
     18 C16        -6.5980    0.6090    1.7600 c3        1 17P     -0.076900
     19 C17        -7.0240   -0.7730    2.2080 c3        1 17P     -0.084400
     20 C18        -5.9750   -1.4060    3.0990 c3        1 17P     -0.076900
     21 C19        -4.6200   -1.4420    2.4240 c3        1 17P     -0.091900
     22 N20         1.8940    0.0730    5.8140 nz        1 17P     -0.758400
     23 O           3.1470    0.0400    3.8910 o         1 17P     -0.510100
     24 C21         2.0740   -0.0740   -3.6900 cc        1 17P     -0.249300
     25 C22         1.5620    0.1510   -4.9870 cd        1 17P     -0.109300
     26 N23         2.6330    0.0240   -5.8700 na        1 17P      0.102400
     27 N24         3.7790   -0.2670   -5.2270 nd        1 17P     -0.493800
     28 C25         3.4860   -0.3340   -3.9070 cc        1 17P      0.319200
     29 C26         2.5380    0.1800   -7.3030 c3        1 17P      0.033600
     30 HN          2.8120    0.0040    1.5530 hn        1 17P      0.330700
     31 H5         -0.6810    0.0460    5.2470 h4        1 17P      0.003100
     32 H8         -1.8560   -0.0290   -1.2700 ha        1 17P      0.129000
     33 H9         -0.5860   -0.0670   -3.3690 ha        1 17P      0.143000
     34 H11         3.1900   -0.0330   -1.2380 ha        1 17P      0.152000
     35 HN13       -2.8320   -0.0520    0.4190 hn        1 17P      0.456800
     36 H14        -4.1670    0.6180    2.9610 h1        1 17P      0.087700
     37 H15        -5.3140   -0.0350    0.1410 hc        1 17P      0.051950
     38 H15A       -4.9550    1.6230    0.7840 hc        1 17P      0.051950
     39 H16        -7.3580    1.0250    1.0480 hc        1 17P      0.052450
     40 H16A       -6.5560    1.2960    2.6460 hc        1 17P      0.052450
     41 H17        -7.1950   -1.4230    1.3100 hc        1 17P      0.052700
     42 H17A       -7.9950   -0.7040    2.7630 hc        1 17P      0.052700
     43 H18        -6.2830   -2.4530    3.3570 hc        1 17P      0.052450
     44 H18A       -5.9010   -0.8310    4.0600 hc        1 17P      0.052450
     45 H19        -4.6700   -2.0940    1.5130 hc        1 17P      0.051950
     46 H19A       -3.8650   -1.8850    3.1240 hc        1 17P      0.051950
     47 HN20        2.8440    0.0830    6.2030 hn        1 17P      0.459133
     48 HN2A        1.3940    0.9090    6.1200 hn        1 17P      0.459133
     49 H22         0.5530    0.3890   -5.3230 h4        1 17P      0.180000
     50 H25         4.2470   -0.5640   -3.1620 h4        1 17P      0.045100
     51 H26         3.2250    0.9990   -7.6460 h1        1 17P      0.067700
     52 H26A        2.8290   -0.7780   -7.8120 h1        1 17P      0.067700
     53 H26B        1.4800    0.4410   -7.5670 h1        1 17P      0.067700
     54 H203        1.4000   -0.7560    6.1510 hn        1 17P      0.459133
@<TRIPOS>BOND
     1    1    2 ar  
     2    1    5 1   
     3    1   10 ar  
     4    2    3 1   
     5    2   13 ar  
     6    3    4 1   
     7    3   30 1   
     8    4    5 ar  
     9    4    6 ar  
    10    5    9 ar  
    11    6    7 ar  
    12    6   14 1   
    13    7    8 ar  
    14    7   31 1   
    15    8    9 ar  
    16    9   15 1   
    17   10   11 ar  
    18   10   32 1   
    19   11   12 ar  
    20   11   33 1   
    21   12   13 ar  
    22   12   24 1   
    23   13   34 1   
    24   14   22 1   
    25   14   23 2   
    26   15   16 1   
    27   15   35 1   
    28   16   17 1   
    29   16   21 1   
    30   16   36 1   
    31   17   18 1   
    32   17   37 1   
    33   17   38 1   
    34   18   19 1   
    35   18   39 1   
    36   18   40 1   
    37   19   20 1   
    38   19   41 1   
    39   19   42 1   
    40   20   21 1   
    41   20   43 1   
    42   20   44 1   
    43   21   45 1   
    44   21   46 1   
    45   22   47 1   
    46   22   48 1   
    47   22   54 1   
    48   24   25 2   
    49   24   28 1   
    50   25   26 1   
    51   25   49 1   
    52   26   27 1   
    53   26   29 1   
    54   27   28 2   
    55   28   50 1   
    56   29   51 1   
    57   29   52 1   
    58   29   53 1   
@<TRIPOS>SUBSTRUCTURE
     1 17P         1 TEMP              0 ****  ****    0 ROOT
