@<TRIPOS>MOLECULE
17Q
   61    61     1     0     0
SMALL
bcc


@<TRIPOS>ATOM
      1 C15         0.1640   -0.2240    0.7310 c3        1 17Q      0.081600
      2 N           1.5820   -0.0050    0.3430 nx        1 17Q     -0.680400
      3 C14         2.4410    0.1160    1.5500 c3        1 17Q      0.081600
      4 C13         2.0820   -1.1020   -0.5560 c3        1 17Q      0.103800
      5 C12         1.5640   -0.9920   -1.9840 c3        1 17Q     -0.107400
      6 C11         2.1890   -2.0880   -2.8280 c3        1 17Q     -0.077400
      7 C10         1.6790   -2.0080   -4.2490 c3        1 17Q     -0.088400
      8 C9          2.3050   -3.1000   -5.1030 c3        1 17Q      0.132400
      9 O           1.7900   -2.9130   -6.4150 os        1 17Q     -0.418600
     10 C8          2.2110   -3.9320   -7.3330 c3        1 17Q      0.145100
     11 C16         1.9940   -3.3840   -8.7410 c3        1 17Q     -0.095900
     12 C17         2.6280   -2.0270   -8.9650 c3        1 17Q     -0.072400
     13 C18         1.8970   -1.2260  -10.0270 c3        1 17Q     -0.076400
     14 C19         0.4960   -0.8240   -9.5970 c3        1 17Q     -0.082400
     15 C1         -0.5850   -1.5950  -10.3320 c3        1 17Q     -0.078900
     16 C7          1.4460   -5.2370   -7.1140 c3        1 17Q     -0.095900
     17 C6         -0.0030   -5.0880   -6.6920 c3        1 17Q     -0.072400
     18 C5         -0.9670   -4.7860   -7.8250 c3        1 17Q     -0.076400
     19 C4         -1.4600   -3.3520   -7.7910 c3        1 17Q     -0.082400
     20 C3         -2.2530   -2.9900   -9.0320 c3        1 17Q     -0.078900
     21 C2         -1.9060   -1.6190   -9.5840 c3        1 17Q     -0.076400
     22 H151       -0.4660   -0.3130   -0.1950 hx        1 17Q      0.106533
     23 H152        0.0800   -1.1680    1.3330 hx        1 17Q      0.106533
     24 H153       -0.1920    0.6450    1.3470 hx        1 17Q      0.106533
     25 H141        3.4880    0.3790    1.2400 hx        1 17Q      0.106533
     26 H142        2.4480   -0.8600    2.1040 hx        1 17Q      0.106533
     27 H143        2.0340    0.9230    2.2170 hx        1 17Q      0.106533
     28 H131        3.2100   -1.0480   -0.5620 hx        1 17Q      0.104700
     29 H132        1.7730   -2.0870   -0.1030 hx        1 17Q      0.104700
     30 H121        1.8250    0.0070   -2.4230 hc        1 17Q      0.067700
     31 H122        0.4470   -1.0970   -2.0100 hc        1 17Q      0.067700
     32 H111        3.3070   -1.9840   -2.8210 hc        1 17Q      0.055700
     33 H112        1.9410   -3.0920   -2.3920 hc        1 17Q      0.055700
     34 H101        0.5630   -2.1220   -4.2720 hc        1 17Q      0.062700
     35 H102        1.9220   -1.0080   -4.6960 hc        1 17Q      0.062700
     36 H91C        2.0270   -4.1170   -4.7180 h1        1 17Q      0.030700
     37 H92C        3.4240   -3.0060   -5.1180 h1        1 17Q      0.030700
     38 H8          3.3120   -4.1240   -7.1800 h1        1 17Q      0.034700
     39 H161        0.8910   -3.3200   -8.9310 hc        1 17Q      0.052700
     40 H162        2.4180   -4.1280   -9.4650 hc        1 17Q      0.052700
     41 H71C        1.5070   -5.8410   -8.0580 hc        1 17Q      0.052700
     42 H72C        1.9800   -5.8200   -6.3160 hc        1 17Q      0.052700
     43 H171        2.6310   -1.4460   -8.0050 hc        1 17Q      0.040200
     44 H172        3.6980   -2.1600   -9.2760 hc        1 17Q      0.040200
     45 H181        1.8570   -1.8170  -10.9790 hc        1 17Q      0.042200
     46 H182        2.4960   -0.3010  -10.2420 hc        1 17Q      0.042200
     47 H191        0.3480    0.2720   -9.7860 hc        1 17Q      0.041450
     48 H192        0.3880   -0.9760   -8.4900 hc        1 17Q      0.041450
     49 H11C       -0.2410   -2.6460  -10.5240 hc        1 17Q      0.040950
     50 H12C       -0.7380   -1.1240  -11.3400 hc        1 17Q      0.040950
     51 H21C       -1.8960   -0.8710   -8.7480 hc        1 17Q      0.039200
     52 H22C       -2.7260   -1.3090  -10.2860 hc        1 17Q      0.039200
     53 H61C       -0.0750   -4.2880   -5.9070 hc        1 17Q      0.040200
     54 H62C       -0.3140   -6.0530   -6.2070 hc        1 17Q      0.040200
     55 H51C       -0.4760   -4.9950   -8.8130 hc        1 17Q      0.042200
     56 H52C       -1.8500   -5.4740   -7.7540 hc        1 17Q      0.042200
     57 H41C       -2.1010   -3.2060   -6.8820 hc        1 17Q      0.041450
     58 H42C       -0.5800   -2.6630   -7.6730 hc        1 17Q      0.041450
     59 H31C       -2.0920   -3.7590   -9.8340 hc        1 17Q      0.040950
     60 H32C       -3.3480   -3.0100   -8.7850 hc        1 17Q      0.040950
     61 HN1         1.6350    0.8800   -0.1820 hn        1 17Q      0.451800
@<TRIPOS>BOND
     1    1    2 1   
     2    1   22 1   
     3    1   23 1   
     4    1   24 1   
     5    2    3 1   
     6    2    4 1   
     7    2   61 1   
     8    3   25 1   
     9    3   26 1   
    10    3   27 1   
    11    4    5 1   
    12    4   28 1   
    13    4   29 1   
    14    5    6 1   
    15    5   30 1   
    16    5   31 1   
    17    6    7 1   
    18    6   32 1   
    19    6   33 1   
    20    7    8 1   
    21    7   34 1   
    22    7   35 1   
    23    8    9 1   
    24    8   36 1   
    25    8   37 1   
    26    9   10 1   
    27   10   11 1   
    28   10   16 1   
    29   10   38 1   
    30   11   12 1   
    31   11   39 1   
    32   11   40 1   
    33   12   13 1   
    34   12   43 1   
    35   12   44 1   
    36   13   14 1   
    37   13   45 1   
    38   13   46 1   
    39   14   15 1   
    40   14   47 1   
    41   14   48 1   
    42   15   21 1   
    43   15   49 1   
    44   15   50 1   
    45   16   17 1   
    46   16   41 1   
    47   16   42 1   
    48   17   18 1   
    49   17   53 1   
    50   17   54 1   
    51   18   19 1   
    52   18   55 1   
    53   18   56 1   
    54   19   20 1   
    55   19   57 1   
    56   19   58 1   
    57   20   21 1   
    58   20   59 1   
    59   20   60 1   
    60   21   51 1   
    61   21   52 1   
@<TRIPOS>SUBSTRUCTURE
     1 17Q         1 TEMP              0 ****  ****    0 ROOT
