@<TRIPOS>MOLECULE
17Q
   61    61     1     0     0
SMALL
bcc


@<TRIPOS>ATOM
      1 C15         0.9900    0.4230    1.1130 c3        1 17Q      0.081600
      2 N           2.4040    0.0620    0.8330 n4        1 17Q     -0.680400
      3 C14         3.1430   -0.1810    2.1000 c3        1 17Q      0.081600
      4 C13         2.4970   -1.1350   -0.0730 c3        1 17Q      0.103800
      5 C12         2.1810   -0.8140   -1.5280 c3        1 17Q     -0.107400
      6 C11         2.3790   -2.0610   -2.3690 c3        1 17Q     -0.077400
      7 C10         2.0550   -1.7710   -3.8180 c3        1 17Q     -0.087400
      8 C9          2.2530   -3.0180   -4.6670 c3        1 17Q      0.134400
      9 O           1.9020   -2.6440   -5.9940 os        1 17Q     -0.419600
     10 C8          2.1250   -3.6820   -6.9570 c3        1 17Q      0.146100
     11 C16         2.2600   -3.0320   -8.3360 c3        1 17Q     -0.089900
     12 C17         1.8820   -1.5650   -8.4150 c3        1 17Q     -0.071900
     13 C18         1.2790   -1.2090   -9.7640 c3        1 17Q     -0.080900
     14 C19        -0.2250   -1.4120   -9.7840 c3        1 17Q     -0.080900
     15 C1         -0.7080   -2.1870  -10.9930 c3        1 17Q     -0.076400
     16 C7          1.0190   -4.7360   -6.9000 c3        1 17Q     -0.089900
     17 C6         -0.3770   -4.2000   -7.1540 c3        1 17Q     -0.071900
     18 C5         -0.9110   -4.6140   -8.5110 c3        1 17Q     -0.080900
     19 C4         -2.2560   -3.9860   -8.8180 c3        1 17Q     -0.080900
     20 C3         -2.5060   -3.8720  -10.3110 c3        1 17Q     -0.076400
     21 C2         -2.1870   -2.5130  -10.9020 c3        1 17Q     -0.077400
     22 H151        0.4910   -0.4140    1.6700 hx        1 17Q      0.106367
     23 H152        0.4520    0.6020    0.1440 hx        1 17Q      0.106367
     24 H153        0.9610    1.3570    1.7380 hx        1 17Q      0.106367
     25 H141        3.0390    0.7150    2.7690 hx        1 17Q      0.106367
     26 H142        2.7170   -1.0850    2.6140 hx        1 17Q      0.106367
     27 H143        4.2290   -0.3550    1.8730 hx        1 17Q      0.106367
     28 H131        3.5490   -1.5370    0.0010 hx        1 17Q      0.104700
     29 H132        1.7860   -1.9180    0.3170 hx        1 17Q      0.104700
     30 H121        2.8540    0.0000   -1.9080 hc        1 17Q      0.067700
     31 H122        1.1210   -0.4600   -1.6350 hc        1 17Q      0.067700
     32 H111        3.4410   -2.4150   -2.2820 hc        1 17Q      0.055700
     33 H112        1.7170   -2.8840   -1.9910 hc        1 17Q      0.055700
     34 H101        2.7130   -0.9520   -4.2090 hc        1 17Q      0.062700
     35 H102        0.9940   -1.4230   -3.9190 hc        1 17Q      0.062700
     36 H91C        3.3210   -3.3610   -4.6300 h1        1 17Q      0.029700
     37 H92C        1.5890   -3.8500   -4.3130 h1        1 17Q      0.029700
     38 H8          3.0990   -4.1980   -6.7090 h1        1 17Q      0.030700
     39 H161        1.6320   -3.6180   -9.0590 hc        1 17Q      0.046700
     40 H162        3.3260   -3.1450   -8.6690 hc        1 17Q      0.046700
     41 H71C        1.0480   -5.2170   -5.8870 hc        1 17Q      0.046700
     42 H72C        1.2710   -5.5340   -7.6490 hc        1 17Q      0.046700
     43 H171        2.7990   -0.9440   -8.2400 hc        1 17Q      0.044950
     44 H172        1.1540   -1.3000   -7.6030 hc        1 17Q      0.044950
     45 H181        1.7680   -1.8180  -10.5700 hc        1 17Q      0.042200
     46 H182        1.5090   -0.1350   -9.9910 hc        1 17Q      0.042200
     47 H191       -0.7360   -0.4130   -9.7600 hc        1 17Q      0.039950
     48 H192       -0.5460   -1.9620   -8.8590 hc        1 17Q      0.039950
     49 H11C       -0.5210   -1.5750  -11.9150 hc        1 17Q      0.040950
     50 H12C       -0.1130   -3.1310  -11.1040 hc        1 17Q      0.040950
     51 H21C       -2.7130   -1.7170  -10.3110 hc        1 17Q      0.040200
     52 H22C       -2.6180   -2.4860  -11.9400 hc        1 17Q      0.040200
     53 H61C       -1.0730   -4.5790   -6.3610 hc        1 17Q      0.044950
     54 H62C       -0.3630   -3.0800   -7.0720 hc        1 17Q      0.044950
     55 H51C       -0.1760   -4.3190   -9.3070 hc        1 17Q      0.042200
     56 H52C       -1.0030   -5.7310   -8.5530 hc        1 17Q      0.042200
     57 H41C       -3.0630   -4.6150   -8.3560 hc        1 17Q      0.039950
     58 H42C       -2.3310   -2.9720   -8.3430 hc        1 17Q      0.039950
     59 H31C       -3.5940   -4.0790  -10.5040 hc        1 17Q      0.040950
     60 H32C       -1.9240   -4.6620  -10.8550 hc        1 17Q      0.040950
     61 HN1         2.8460    0.8570    0.3480 hn        1 17Q      0.451800
@<TRIPOS>BOND
     1    1    2 1   
     2    1   22 1   
     3    1   23 1   
     4    1   24 1   
     5    2    3 1   
     6    2    4 1   
     7    2   61 1   
     8    3   25 1   
     9    3   26 1   
    10    3   27 1   
    11    4    5 1   
    12    4   28 1   
    13    4   29 1   
    14    5    6 1   
    15    5   30 1   
    16    5   31 1   
    17    6    7 1   
    18    6   32 1   
    19    6   33 1   
    20    7    8 1   
    21    7   34 1   
    22    7   35 1   
    23    8    9 1   
    24    8   36 1   
    25    8   37 1   
    26    9   10 1   
    27   10   11 1   
    28   10   16 1   
    29   10   38 1   
    30   11   12 1   
    31   11   39 1   
    32   11   40 1   
    33   12   13 1   
    34   12   43 1   
    35   12   44 1   
    36   13   14 1   
    37   13   45 1   
    38   13   46 1   
    39   14   15 1   
    40   14   47 1   
    41   14   48 1   
    42   15   21 1   
    43   15   49 1   
    44   15   50 1   
    45   16   17 1   
    46   16   41 1   
    47   16   42 1   
    48   17   18 1   
    49   17   53 1   
    50   17   54 1   
    51   18   19 1   
    52   18   55 1   
    53   18   56 1   
    54   19   20 1   
    55   19   57 1   
    56   19   58 1   
    57   20   21 1   
    58   20   59 1   
    59   20   60 1   
    60   21   51 1   
    61   21   52 1   
@<TRIPOS>SUBSTRUCTURE
     1 17Q         1 TEMP              0 ****  ****    0 ROOT
