@<TRIPOS>MOLECULE
17Q
   61    61     1     0     0
SMALL
bcc


@<TRIPOS>ATOM
      1 C15         1.0200    0.4530    1.0930 c3        1 17Q      0.081600
      2 N           2.4210    0.0280    0.8430 n4        1 17Q     -0.680400
      3 C14         3.1170   -0.2590    2.1250 c3        1 17Q      0.081600
      4 C13         2.4790   -1.1660   -0.0700 c3        1 17Q      0.103800
      5 C12         2.2090   -0.8220   -1.5290 c3        1 17Q     -0.107400
      6 C11         2.3720   -2.0700   -2.3750 c3        1 17Q     -0.077400
      7 C10         2.0860   -1.7580   -3.8280 c3        1 17Q     -0.087400
      8 C9          2.2510   -3.0060   -4.6820 c3        1 17Q      0.134400
      9 O           1.9150   -2.6160   -6.0080 os        1 17Q     -0.419600
     10 C8          2.1540   -3.6390   -6.9830 c3        1 17Q      0.146100
     11 C16         2.2610   -2.9730   -8.3560 c3        1 17Q     -0.089900
     12 C17         1.8480   -1.5150   -8.4180 c3        1 17Q     -0.071900
     13 C18         1.2230   -1.1610   -9.7580 c3        1 17Q     -0.080900
     14 C19        -0.2760   -1.3990   -9.7630 c3        1 17Q     -0.080900
     15 C1         -0.7540   -2.1710  -10.9760 c3        1 17Q     -0.076400
     16 C7          1.0750   -4.7210   -6.9280 c3        1 17Q     -0.089900
     17 C6         -0.3370   -4.2170   -7.1620 c3        1 17Q     -0.071900
     18 C5         -0.8740   -4.6280   -8.5180 c3        1 17Q     -0.080900
     19 C4         -2.2380   -4.0290   -8.8040 c3        1 17Q     -0.080900
     20 C3         -2.5050   -3.9050  -10.2930 c3        1 17Q     -0.076400
     21 C2         -2.2240   -2.5330  -10.8730 c3        1 17Q     -0.077400
     22 H151        0.4680   -0.3640    1.6310 hx        1 17Q      0.106367
     23 H152        0.5140    0.6640    0.1130 hx        1 17Q      0.106367
     24 H153        1.0200    1.3820    1.7250 hx        1 17Q      0.106367
     25 H141        4.1990   -0.4830    1.9220 hx        1 17Q      0.106367
     26 H142        3.0400    0.6360    2.7990 hx        1 17Q      0.106367
     27 H143        2.6370   -1.1440    2.6220 hx        1 17Q      0.106367
     28 H131        3.5100   -1.6160    0.0240 hx        1 17Q      0.104700
     29 H132        1.7250   -1.9190    0.2990 hx        1 17Q      0.104700
     30 H121        2.9260   -0.0350   -1.8880 hc        1 17Q      0.067700
     31 H122        1.1690   -0.4210   -1.6560 hc        1 17Q      0.067700
     32 H111        1.6700   -2.8680   -2.0140 hc        1 17Q      0.055700
     33 H112        3.4170   -2.4670   -2.2720 hc        1 17Q      0.055700
     34 H101        2.7820   -0.9620   -4.2010 hc        1 17Q      0.062700
     35 H102        1.0400   -1.3690   -3.9450 hc        1 17Q      0.062700
     36 H91C        1.5600   -3.8200   -4.3350 h1        1 17Q      0.029700
     37 H92C        3.3080   -3.3810   -4.6410 h1        1 17Q      0.029700
     38 H8          3.1420   -4.1340   -6.7470 h1        1 17Q      0.030700
     39 H161        1.6420   -3.5670   -9.0790 hc        1 17Q      0.046700
     40 H162        3.3270   -3.0570   -8.6990 hc        1 17Q      0.046700
     41 H71C        1.1270   -5.2150   -5.9220 hc        1 17Q      0.046700
     42 H72C        1.3380   -5.5030   -7.6890 hc        1 17Q      0.046700
     43 H171        1.1230   -1.2750   -7.5970 hc        1 17Q      0.044950
     44 H172        2.7520   -0.8740   -8.2460 hc        1 17Q      0.044950
     45 H181        1.4250   -0.0800   -9.9770 hc        1 17Q      0.042200
     46 H182        1.7170   -1.7520  -10.5730 hc        1 17Q      0.042200
     47 H191       -0.8100   -0.4130   -9.7220 hc        1 17Q      0.039950
     48 H192       -0.5740   -1.9670   -8.8410 hc        1 17Q      0.039950
     49 H11C       -0.1390   -3.1010  -11.1040 hc        1 17Q      0.040950
     50 H12C       -0.5920   -1.5440  -11.8930 hc        1 17Q      0.040950
     51 H21C       -2.6670   -2.5050  -11.9060 hc        1 17Q      0.040200
     52 H22C       -2.7620   -1.7560  -10.2670 hc        1 17Q      0.040200
     53 H61C       -0.3490   -3.0980   -7.0660 hc        1 17Q      0.044950
     54 H62C       -1.0150   -4.6220   -6.3650 hc        1 17Q      0.044950
     55 H51C       -0.9400   -5.7470   -8.5720 hc        1 17Q      0.042200
     56 H52C       -0.1550   -4.3060   -9.3170 hc        1 17Q      0.042200
     57 H41C       -3.0240   -4.6820   -8.3410 hc        1 17Q      0.039950
     58 H42C       -2.3310   -3.0220   -8.3170 hc        1 17Q      0.039950
     59 H31C       -3.5900   -4.1360  -10.4770 hc        1 17Q      0.040950
     60 H32C       -1.9110   -4.6760  -10.8510 hc        1 17Q      0.040950
     61 HN1         2.9110    0.8040    0.3750 hn        1 17Q      0.451800
@<TRIPOS>BOND
     1    1    2 1   
     2    1   22 1   
     3    1   23 1   
     4    1   24 1   
     5    2    3 1   
     6    2    4 1   
     7    2   61 1   
     8    3   25 1   
     9    3   26 1   
    10    3   27 1   
    11    4    5 1   
    12    4   28 1   
    13    4   29 1   
    14    5    6 1   
    15    5   30 1   
    16    5   31 1   
    17    6    7 1   
    18    6   32 1   
    19    6   33 1   
    20    7    8 1   
    21    7   34 1   
    22    7   35 1   
    23    8    9 1   
    24    8   36 1   
    25    8   37 1   
    26    9   10 1   
    27   10   11 1   
    28   10   16 1   
    29   10   38 1   
    30   11   12 1   
    31   11   39 1   
    32   11   40 1   
    33   12   13 1   
    34   12   43 1   
    35   12   44 1   
    36   13   14 1   
    37   13   45 1   
    38   13   46 1   
    39   14   15 1   
    40   14   47 1   
    41   14   48 1   
    42   15   21 1   
    43   15   49 1   
    44   15   50 1   
    45   16   17 1   
    46   16   41 1   
    47   16   42 1   
    48   17   18 1   
    49   17   53 1   
    50   17   54 1   
    51   18   19 1   
    52   18   55 1   
    53   18   56 1   
    54   19   20 1   
    55   19   57 1   
    56   19   58 1   
    57   20   21 1   
    58   20   59 1   
    59   20   60 1   
    60   21   51 1   
    61   21   52 1   
@<TRIPOS>SUBSTRUCTURE
     1 17Q         1 TEMP              0 ****  ****    0 ROOT
