@<TRIPOS>MOLECULE
17R
   51    54     1     0     0
SMALL
bcc


@<TRIPOS>ATOM
      1 C1          0.1840   -0.2880   -0.2350 c3        1 17R     -0.113100
      2 C2          1.6770    0.0200   -0.1340 c3        1 17R      0.236500
      3 C3          2.1020    0.0020    1.3620 c3        1 17R      0.168800
      4 N1          1.6950    1.2060    2.0740 nh        1 17R     -0.631000
      5 C4          2.1130    2.4350    1.4080 c3        1 17R      0.163800
      6 C5          1.7050    2.4530   -0.0810 c3        1 17R      0.221800
      7 N2          2.0720    1.2530   -0.7880 n3        1 17R     -0.816500
      8 S1          2.8660    1.2820   -2.2040 sy        1 17R      1.504200
      9 O1          3.6210    2.4720   -2.3050 o         1 17R     -0.648300
     10 O2          3.5630    0.0690   -2.3900 o         1 17R     -0.648300
     11 C6          1.6230    1.3610   -3.3620 ca        1 17R     -0.352500
     12 C7          1.2850    2.5840   -3.9480 ca        1 17R     -0.025000
     13 C8          0.2860    2.6540   -4.9160 ca        1 17R     -0.138000
     14 C9         -0.3930    1.5060   -5.3130 ca        1 17R     -0.089000
     15 C10        -0.0530    0.2600   -4.7430 ca        1 17R     -0.000200
     16 C11         0.9580    0.2010   -3.7640 ca        1 17R     -0.010000
     17 N3         -0.7320   -0.9160   -5.1600 na        1 17R      0.003500
     18 C12        -1.3050   -1.1340   -6.4390 cc        1 17R      0.418400
     19 N4         -1.8590   -2.3600   -6.4710 nd        1 17R     -0.676000
     20 C13        -1.6040   -2.8750   -5.1830 cd        1 17R      0.513900
     21 N5         -0.9220   -2.0080   -4.3870 nc        1 17R     -0.511800
     22 C14         2.0270    1.1840    3.4660 ca        1 17R      0.129600
     23 C15         3.3310    0.9260    3.9380 ca        1 17R     -0.137000
     24 C16         3.6130    0.8880    5.2960 ca        1 17R     -0.131000
     25 C17         2.5830    1.1170    6.2270 ca        1 17R      0.121900
     26 C18         1.2780    1.3840    5.7800 ca        1 17R     -0.124000
     27 C19         1.0060    1.4160    4.4140 ca        1 17R     -0.125300
     28 C20        -0.4240    1.7140    3.9600 c3        1 17R      0.702200
     29 F1         -1.3150    1.9160    4.9890 f         1 17R     -0.234633
     30 F2         -0.5520    2.8500    3.1990 f         1 17R     -0.234633
     31 F3         -1.0120    0.7230    3.2160 f         1 17R     -0.234633
     32 F4          2.8470    1.0820    7.5530 f         1 17R     -0.129900
     33 H1         -0.0050   -1.3040    0.1890 hc        1 17R      0.051033
     34 H1A        -0.1520   -0.2810   -1.3010 hc        1 17R      0.051033
     35 H1B        -0.4210    0.4540    0.3400 hc        1 17R      0.051033
     36 H2          2.2460   -0.8260   -0.6330 h1        1 17R      0.076700
     37 H3          1.5990   -0.8760    1.8560 h1        1 17R      0.048700
     38 H3A         3.2180   -0.1590    1.4090 h1        1 17R      0.048700
     39 H4          3.2270    2.5940    1.4890 h1        1 17R      0.051700
     40 H4A         1.5910    3.2930    1.9190 h1        1 17R      0.051700
     41 H5          0.5880    2.5980   -0.1440 h1        1 17R      0.064200
     42 H5A         2.2130    3.3390   -0.5610 h1        1 17R      0.064200
     43 H7          1.8280    3.4990   -3.6480 ha        1 17R      0.164000
     44 H8          0.0270    3.6220   -5.3710 ha        1 17R      0.149000
     45 H9         -1.1920    1.5810   -6.0680 ha        1 17R      0.145000
     46 H11         1.2470   -0.7670   -3.3130 ha        1 17R      0.174000
     47 H12        -1.2700   -0.4010   -7.2500 h5        1 17R      0.075100
     48 H13        -1.9270   -3.8730   -4.8690 h5        1 17R      0.077100
     49 H15         4.1480    0.7500    3.2180 ha        1 17R      0.151000
     50 H16         4.6340    0.6830    5.6530 ha        1 17R      0.158000
     51 H18         0.4760    1.5650    6.5150 ha        1 17R      0.172000
@<TRIPOS>BOND
     1    1    2 1   
     2    1   33 1   
     3    1   34 1   
     4    1   35 1   
     5    2    3 1   
     6    2    7 1   
     7    2   36 1   
     8    3    4 1   
     9    3   37 1   
    10    3   38 1   
    11    4    5 1   
    12    4   22 1   
    13    5    6 1   
    14    5   39 1   
    15    5   40 1   
    16    6    7 1   
    17    6   41 1   
    18    6   42 1   
    19    7    8 1   
    20    8    9 2   
    21    8   10 2   
    22    8   11 1   
    23   11   12 ar  
    24   11   16 ar  
    25   12   13 ar  
    26   12   43 1   
    27   13   14 ar  
    28   13   44 1   
    29   14   15 ar  
    30   14   45 1   
    31   15   16 ar  
    32   15   17 1   
    33   16   46 1   
    34   17   18 1   
    35   17   21 1   
    36   18   19 2   
    37   18   47 1   
    38   19   20 1   
    39   20   21 2   
    40   20   48 1   
    41   22   23 ar  
    42   22   27 ar  
    43   23   24 ar  
    44   23   49 1   
    45   24   25 ar  
    46   24   50 1   
    47   25   26 ar  
    48   25   32 1   
    49   26   27 ar  
    50   26   51 1   
    51   27   28 1   
    52   28   29 1   
    53   28   30 1   
    54   28   31 1   
@<TRIPOS>SUBSTRUCTURE
     1 17R         1 TEMP              0 ****  ****    0 ROOT
