@<TRIPOS>MOLECULE
17R
   51    54     1     0     0
SMALL
bcc


@<TRIPOS>ATOM
      1 C1          0.1880   -0.2910   -0.2330 c3        1 17R     -0.113100
      2 C2          1.6800    0.0230   -0.1350 c3        1 17R      0.236500
      3 C3          2.1090    0.0070    1.3600 c3        1 17R      0.168800
      4 N1          1.6990    1.2090    2.0720 nh        1 17R     -0.631000
      5 C4          2.1100    2.4400    1.4050 c3        1 17R      0.163800
      6 C5          1.6990    2.4560   -0.0830 c3        1 17R      0.221800
      7 N2          2.0680    1.2570   -0.7910 n3        1 17R     -0.816500
      8 S1          2.8590    1.2880   -2.2090 sy        1 17R      1.504200
      9 O1          3.6090    2.4820   -2.3120 o         1 17R     -0.648300
     10 O2          3.5610    0.0780   -2.3950 o         1 17R     -0.648300
     11 C6          1.6130    1.3620   -3.3640 ca        1 17R     -0.352500
     12 C7          1.2680    2.5830   -3.9500 ca        1 17R     -0.025000
     13 C8          0.2670    2.6480   -4.9160 ca        1 17R     -0.138000
     14 C9         -0.4080    1.4960   -5.3100 ca        1 17R     -0.089000
     15 C10        -0.0620    0.2530   -4.7400 ca        1 17R     -0.000200
     16 C11         0.9520    0.1980   -3.7640 ca        1 17R     -0.010000
     17 N3         -0.7360   -0.9260   -5.1550 na        1 17R      0.003500
     18 C12        -1.3120   -1.1480   -6.4320 cc        1 17R      0.418400
     19 N4         -1.8600   -2.3760   -6.4620 nd        1 17R     -0.676000
     20 C13        -1.6000   -2.8890   -5.1740 cd        1 17R      0.513900
     21 N5         -0.9200   -2.0180   -4.3810 nc        1 17R     -0.511800
     22 C14         2.0340    1.1900    3.4640 ca        1 17R      0.129600
     23 C15         3.3410    0.9360    3.9320 ca        1 17R     -0.137000
     24 C16         3.6260    0.9000    5.2900 ca        1 17R     -0.131000
     25 C17         2.5980    1.1260    6.2230 ca        1 17R      0.121900
     26 C18         1.2900    1.3880    5.7790 ca        1 17R     -0.124000
     27 C19         1.0150    1.4190    4.4140 ca        1 17R     -0.125300
     28 C20        -0.4170    1.7100    3.9630 c3        1 17R      0.702200
     29 F1         -1.3070    1.9100    4.9940 f         1 17R     -0.234633
     30 F2         -0.5510    2.8460    3.2020 f         1 17R     -0.234633
     31 F3         -1.0030    0.7170    3.2210 f         1 17R     -0.234633
     32 F4          2.8650    1.0930    7.5490 f         1 17R     -0.129900
     33 H1          0.0050   -1.3080    0.1920 hc        1 17R      0.051033
     34 H1A        -0.1510   -0.2860   -1.2970 hc        1 17R      0.051033
     35 H1B        -0.4180    0.4480    0.3440 hc        1 17R      0.051033
     36 H2          2.2510   -0.8210   -0.6360 h1        1 17R      0.076700
     37 H3          3.2260   -0.1490    1.4040 h1        1 17R      0.048700
     38 H3A         1.6110   -0.8730    1.8550 h1        1 17R      0.048700
     39 H4          3.2240    2.6030    1.4830 h1        1 17R      0.051700
     40 H4A         1.5870    3.2960    1.9160 h1        1 17R      0.051700
     41 H5          2.2020    3.3440   -0.5650 h1        1 17R      0.064200
     42 H5A         0.5810    2.5960   -0.1430 h1        1 17R      0.064200
     43 H7          1.8080    3.5010   -3.6520 ha        1 17R      0.164000
     44 H8          0.0030    3.6150   -5.3700 ha        1 17R      0.149000
     45 H9         -1.2080    1.5680   -6.0640 ha        1 17R      0.145000
     46 H11         1.2460   -0.7680   -3.3120 ha        1 17R      0.174000
     47 H12        -1.2820   -0.4150   -7.2440 h5        1 17R      0.075100
     48 H13        -1.9190   -3.8880   -4.8590 h5        1 17R      0.077100
     49 H15         4.1570    0.7630    3.2110 ha        1 17R      0.151000
     50 H16         4.6480    0.6990    5.6440 ha        1 17R      0.158000
     51 H18         0.4900    1.5670    6.5160 ha        1 17R      0.172000
@<TRIPOS>BOND
     1    1    2 1   
     2    1   33 1   
     3    1   34 1   
     4    1   35 1   
     5    2    3 1   
     6    2    7 1   
     7    2   36 1   
     8    3    4 1   
     9    3   37 1   
    10    3   38 1   
    11    4    5 1   
    12    4   22 1   
    13    5    6 1   
    14    5   39 1   
    15    5   40 1   
    16    6    7 1   
    17    6   41 1   
    18    6   42 1   
    19    7    8 1   
    20    8    9 2   
    21    8   10 2   
    22    8   11 1   
    23   11   12 ar  
    24   11   16 ar  
    25   12   13 ar  
    26   12   43 1   
    27   13   14 ar  
    28   13   44 1   
    29   14   15 ar  
    30   14   45 1   
    31   15   16 ar  
    32   15   17 1   
    33   16   46 1   
    34   17   18 1   
    35   17   21 1   
    36   18   19 2   
    37   18   47 1   
    38   19   20 1   
    39   20   21 2   
    40   20   48 1   
    41   22   23 ar  
    42   22   27 ar  
    43   23   24 ar  
    44   23   49 1   
    45   24   25 ar  
    46   24   50 1   
    47   25   26 ar  
    48   25   32 1   
    49   26   27 ar  
    50   26   51 1   
    51   27   28 1   
    52   28   29 1   
    53   28   30 1   
    54   28   31 1   
@<TRIPOS>SUBSTRUCTURE
     1 17R         1 TEMP              0 ****  ****    0 ROOT
