@<TRIPOS>MOLECULE
17R
   51    46     1     0     0
SMALL
bcc


@<TRIPOS>ATOM
      1 C1         -2.3110   -1.4420    0.8860 c3        1 17R     -0.231000
      2 C2         -0.8800   -1.5960    0.4960 c3        1 17R      0.016000
      3 C3         -0.0030   -1.7540    1.8160 c3        1 17R     -0.061000
      4 N1         -0.4140   -0.3920    2.4670 n3        1 17R     -0.241000
      5 C4         -0.0420    0.7330    1.6930 c3        1 17R     -0.067000
      6 C5          0.1960    0.3870    0.3940 c3        1 17R     -0.041000
      7 N2         -0.4980   -0.4800   -0.2930 n3        1 17R     -0.830000
      8 S1         -0.2190   -0.6670   -1.8970 s4        1 17R      2.060800
      9 O1         -0.5000   -2.0100   -2.3210 o         1 17R     -0.534400
     10 O2         -1.1650    0.0770   -2.6800 o         1 17R     -0.534400
     11 C6          1.4430   -0.2040   -2.2870 c1        1 17R     -0.798000
     12 C7          2.4790   -1.0970   -2.0620 c2        1 17R     -0.025000
     13 C8          3.7620   -0.7930   -2.4890 c1        1 17R     -0.140000
     14 C9          4.0100    0.4040   -3.1400 c1        1 17R     -0.058000
     15 C10         2.9750    1.2980   -3.3660 c1        1 17R      0.049000
     16 C11         1.6910    0.9940   -2.9390 c1        1 17R     -0.043000
     17 N3          3.1950    2.4090   -4.0800 n2        1 17R     -0.102500
     18 C12         3.4750    3.6220   -3.5820 c1        1 17R     -0.108500
     19 N4          3.7140    4.4480   -4.6120 n2        1 17R     -0.151000
     20 C13         3.5810    3.7450   -5.7470 c1        1 17R     -0.108500
     21 N5          3.2610    2.4860   -5.4200 n2        1 17R     -0.102500
     22 C14        -1.8220   -0.3730    2.6850 c2        1 17R      0.066000
     23 C15        -2.6230    0.4980    1.9600 c2        1 17R     -0.149000
     24 C16        -3.9750    0.5970    2.2470 c1        1 17R     -0.126000
     25 C17        -4.5280   -0.1750    3.2570 c1        1 17R      0.079000
     26 C18        -3.7280   -1.0460    3.9820 c1        1 17R     -0.118000
     27 C19        -2.3760   -1.1460    3.6960 c1        1 17R     -0.134000
     28 C20        -1.4860   -2.0230    4.5500 c3        1 17R      0.479000
     29 F1         -0.3680   -2.3120    3.8780 f         1 17R     -0.163333
     30 F2         -1.1730   -1.3760    5.6790 f         1 17R     -0.163333
     31 F3         -2.1330   -3.1570    4.8500 f         1 17R     -0.163333
     32 F4         -5.8180   -0.0220    3.5850 f         1 17R     -0.095000
     33 H1         -2.8750   -1.4910    0.0850 hc        1 17R      0.088333
     34 H1A        -2.4370   -0.5840    1.3170 hc        1 17R      0.088333
     35 H1B        -2.5600   -2.1590    1.5050 hc        1 17R      0.088333
     36 H2         -0.7860   -2.4070   -0.0420 h1        1 17R      0.102000
     37 H3          0.9540   -1.7870    1.6150 h1        1 17R      0.111000
     38 H3A        -0.2940   -2.5150    2.3550 h1        1 17R      0.111000
     39 H4         -0.7650    1.3940    1.7200 h1        1 17R      0.108000
     40 H4A         0.7710    1.1300    2.0730 h1        1 17R      0.108000
     41 H5          1.1250    0.0710    0.3660 h1        1 17R      0.096000
     42 H5A         0.1660    1.2240   -0.1180 h1        1 17R      0.096000
     43 H7          2.3050   -1.9410   -1.6030 ha        1 17R      0.156000
     44 H8          4.4910   -1.4210   -2.3300 ha        1 17R      0.151000
     45 H9          4.9130    0.6180   -3.4400 ha        1 17R      0.167000
     46 H11         0.9630    1.6230   -3.0980 ha        1 17R      0.159000
     47 H12         3.5010    3.8620   -2.6360 DU        1 17R      0.216000
     48 H13         3.6980    4.0900   -6.6530 DU        1 17R      0.216000
     49 H15        -2.2340    1.0410    1.2480 ha        1 17R      0.149000
     50 H16        -4.5380    1.2090    1.7370 ha        1 17R      0.158000
     51 H18        -4.1180   -1.5900    4.6940 ha        1 17R      0.172000
@<TRIPOS>BOND
     1    1    2 1   
     2    1   33 1   
     3    1   34 1   
     4    1   35 1   
     5    2    3 1   
     6    2    7 1   
     7    2   36 1   
     8    3    4 1   
     9    3   37 1   
    10    3   38 1   
    11    4    5 1   
    12    4   22 1   
    13    5    6 1   
    14    5   39 1   
    15    5   40 1   
    16    6    7 1   
    17    6   41 1   
    18    6   42 1   
    19    7    8 1   
    20    8    9 1   
    21    8   10 1   
    22   11   12 1   
    23   11   16 1   
    24   12   13 1   
    25   12   43 1   
    26   13   44 1   
    27   14   15 1   
    28   14   45 1   
    29   16   46 1   
    30   17   18 1   
    31   17   21 1   
    32   18   19 1   
    33   19   20 1   
    34   20   21 1   
    35   22   23 1   
    36   22   27 1   
    37   23   24 1   
    38   23   49 1   
    39   24   50 1   
    40   25   26 1   
    41   25   32 1   
    42   26   51 1   
    43   27   28 1   
    44   28   29 1   
    45   28   30 1   
    46   28   31 1   
@<TRIPOS>SUBSTRUCTURE
     1 17R         1 TEMP              0 ****  ****    0 ROOT
