@<TRIPOS>MOLECULE
17R
   51    54     1     0     0
SMALL
bcc


@<TRIPOS>ATOM
      1 C1          0.1820   -0.2860   -0.2320 c3        1 17R     -0.113100
      2 C2          1.6760    0.0210   -0.1340 c3        1 17R      0.236500
      3 C3          2.1050    0.0030    1.3600 c3        1 17R      0.168800
      4 N1          1.7010    1.2080    2.0720 nh        1 17R     -0.631000
      5 C4          2.1180    2.4360    1.4050 c3        1 17R      0.163800
      6 C5          1.7060    2.4540   -0.0830 c3        1 17R      0.221800
      7 N2          2.0690    1.2530   -0.7910 n3        1 17R     -0.816500
      8 S1          2.8600    1.2810   -2.2090 sy        1 17R      1.504200
      9 O1          3.6140    2.4720   -2.3130 o         1 17R     -0.648300
     10 O2          3.5560    0.0680   -2.3960 o         1 17R     -0.648300
     11 C6          1.6130    1.3590   -3.3630 ca        1 17R     -0.352500
     12 C7          1.2710    2.5820   -3.9480 ca        1 17R     -0.025000
     13 C8          0.2700    2.6500   -4.9130 ca        1 17R     -0.138000
     14 C9         -0.4080    1.5010   -5.3090 ca        1 17R     -0.089000
     15 C10        -0.0650    0.2560   -4.7410 ca        1 17R     -0.000200
     16 C11         0.9490    0.1980   -3.7640 ca        1 17R     -0.010000
     17 N3         -0.7430   -0.9200   -5.1560 na        1 17R      0.003500
     18 C12        -1.3190   -1.1390   -6.4340 cc        1 17R      0.418400
     19 N4         -1.8700   -2.3660   -6.4660 nd        1 17R     -0.676000
     20 C13        -1.6100   -2.8810   -5.1790 cd        1 17R      0.513900
     21 N5         -0.9280   -2.0140   -4.3840 nc        1 17R     -0.511800
     22 C14         2.0370    1.1870    3.4640 ca        1 17R      0.128600
     23 C15         3.3430    0.9270    3.9310 ca        1 17R     -0.137000
     24 C16         3.6290    0.8900    5.2890 ca        1 17R     -0.131000
     25 C17         2.6020    1.1200    6.2230 ca        1 17R      0.121900
     26 C18         1.2960    1.3880    5.7800 ca        1 17R     -0.124000
     27 C19         1.0200    1.4200    4.4150 ca        1 17R     -0.125300
     28 C20        -0.4110    1.7180    3.9650 c3        1 17R      0.702200
     29 F1         -1.3000    1.9210    4.9970 f         1 17R     -0.234633
     30 F2         -0.5420    2.8530    3.2040 f         1 17R     -0.234633
     31 F3         -1.0020    0.7270    3.2240 f         1 17R     -0.234633
     32 F4          2.8710    1.0860    7.5480 f         1 17R     -0.129900
     33 H1         -0.1570   -0.2800   -1.2960 hc        1 17R      0.051033
     34 H1A        -0.0060   -1.3020    0.1930 hc        1 17R      0.051033
     35 H1B        -0.4200    0.4560    0.3450 hc        1 17R      0.051033
     36 H2          2.2430   -0.8260   -0.6360 h1        1 17R      0.076700
     37 H3          3.2210   -0.1580    1.4040 h1        1 17R      0.048700
     38 H3A         1.6030   -0.8740    1.8550 h1        1 17R      0.048700
     39 H4          1.5980    3.2950    1.9170 h1        1 17R      0.051700
     40 H4A         3.2320    2.5950    1.4830 h1        1 17R      0.051700
     41 H5          2.2130    3.3390   -0.5650 h1        1 17R      0.064200
     42 H5A         0.5880    2.5990   -0.1420 h1        1 17R      0.064200
     43 H7          1.8130    3.4980   -3.6490 ha        1 17R      0.164000
     44 H8          0.0070    3.6190   -5.3660 ha        1 17R      0.149000
     45 H9         -1.2090    1.5760   -6.0620 ha        1 17R      0.145000
     46 H11         1.2400   -0.7700   -3.3140 ha        1 17R      0.174000
     47 H12        -1.2880   -0.4050   -7.2450 h5        1 17R      0.075100
     48 H13        -1.9310   -3.8810   -4.8650 h5        1 17R      0.077100
     49 H15         4.1570    0.7510    3.2090 ha        1 17R      0.151000
     50 H16         4.6510    0.6850    5.6420 ha        1 17R      0.158000
     51 H18         0.4970    1.5700    6.5180 ha        1 17R      0.172000
@<TRIPOS>BOND
     1    1    2 1   
     2    1   33 1   
     3    1   34 1   
     4    1   35 1   
     5    2    3 1   
     6    2    7 1   
     7    2   36 1   
     8    3    4 1   
     9    3   37 1   
    10    3   38 1   
    11    4    5 1   
    12    4   22 1   
    13    5    6 1   
    14    5   39 1   
    15    5   40 1   
    16    6    7 1   
    17    6   41 1   
    18    6   42 1   
    19    7    8 1   
    20    8    9 2   
    21    8   10 2   
    22    8   11 1   
    23   11   12 ar  
    24   11   16 ar  
    25   12   13 ar  
    26   12   43 1   
    27   13   14 ar  
    28   13   44 1   
    29   14   15 ar  
    30   14   45 1   
    31   15   16 ar  
    32   15   17 1   
    33   16   46 1   
    34   17   18 1   
    35   17   21 1   
    36   18   19 2   
    37   18   47 1   
    38   19   20 1   
    39   20   21 2   
    40   20   48 1   
    41   22   23 ar  
    42   22   27 ar  
    43   23   24 ar  
    44   23   49 1   
    45   24   25 ar  
    46   24   50 1   
    47   25   26 ar  
    48   25   32 1   
    49   26   27 ar  
    50   26   51 1   
    51   27   28 1   
    52   28   29 1   
    53   28   30 1   
    54   28   31 1   
@<TRIPOS>SUBSTRUCTURE
     1 17R         1 TEMP              0 ****  ****    0 ROOT
