@<TRIPOS>MOLECULE
17R
   51    54     1     0     0
SMALL
bcc


@<TRIPOS>ATOM
      1 C1         -0.4750    1.1820    0.6080 c3        1 17R     -0.113100
      2 C2         -0.0980   -0.2560    0.9600 c3        1 17R      0.236500
      3 C3          1.4190   -0.3200    1.2960 c3        1 17R      0.168800
      4 N1          2.2580   -0.2770    0.1050 nh        1 17R     -0.631000
      5 C4          1.8840   -1.2710   -0.8950 c3        1 17R      0.163800
      6 C5          0.3760   -1.2220   -1.2230 c3        1 17R      0.221800
      7 N2         -0.4640   -1.2280   -0.0530 n3        1 17R     -0.816500
      8 S1         -1.7180   -2.2460    0.1170 sy        1 17R      1.504200
      9 O1         -1.4980   -3.4090   -0.6540 o         1 17R     -0.648300
     10 O2         -2.0020   -2.4350    1.4860 o         1 17R     -0.648300
     11 C6         -3.0180   -1.4030   -0.5820 ca        1 17R     -0.352500
     12 C7         -3.4300   -1.7000   -1.8850 ca        1 17R     -0.025000
     13 C8         -4.5110   -1.0330   -2.4560 ca        1 17R     -0.138000
     14 C9         -5.1970   -0.0580   -1.7380 ca        1 17R     -0.089000
     15 C10        -4.8050    0.2430   -0.4160 ca        1 17R     -0.000200
     16 C11        -3.7090   -0.4360    0.1520 ca        1 17R     -0.010000
     17 N3         -5.5150    1.2260    0.3240 na        1 17R      0.003500
     18 C12        -6.8840    1.5590    0.1620 cc        1 17R      0.418400
     19 N4         -7.2090    2.5280    1.0360 nd        1 17R     -0.676000
     20 C13        -6.0050    2.7680    1.7310 cd        1 17R      0.513900
     21 N5         -4.9790    1.9830    1.3060 nc        1 17R     -0.511800
     22 C14         3.6590   -0.2770    0.3950 ca        1 17R      0.128600
     23 C15         4.2710   -1.2480    1.2170 ca        1 17R     -0.137000
     24 C16         5.6290   -1.2040    1.4970 ca        1 17R     -0.131000
     25 C17         6.4190   -0.1760    0.9500 ca        1 17R      0.121900
     26 C18         5.8340    0.7970    0.1230 ca        1 17R     -0.124000
     27 C19         4.4680    0.7440   -0.1490 ca        1 17R     -0.125300
     28 C20         3.8620    1.8160   -1.0560 c3        1 17R      0.702200
     29 F1          4.7640    2.7500   -1.5120 f         1 17R     -0.234633
     30 F2          3.2970    1.3290   -2.2090 f         1 17R     -0.234633
     31 F3          2.8790    2.5760   -0.4750 f         1 17R     -0.234633
     32 F4          7.7450   -0.1240    1.2180 f         1 17R     -0.129900
     33 H1          0.1210    1.5530   -0.2600 hc        1 17R      0.051033
     34 H1A        -1.5610    1.2590    0.3600 hc        1 17R      0.051033
     35 H1B        -0.2640    1.8360    1.4880 hc        1 17R      0.051033
     36 H2         -0.6440   -0.5400    1.9140 h1        1 17R      0.076700
     37 H3          1.6730    0.5770    1.9270 h1        1 17R      0.048700
     38 H3A         1.6060   -1.2480    1.9100 h1        1 17R      0.048700
     39 H4          2.4500   -1.0330   -1.8400 h1        1 17R      0.051700
     40 H4A         2.1580   -2.3150   -0.5680 h1        1 17R      0.051700
     41 H5          0.1710   -0.2890   -1.8250 h1        1 17R      0.064200
     42 H5A         0.1370   -2.1230   -1.8580 h1        1 17R      0.064200
     43 H7         -2.8980   -2.4820   -2.4580 ha        1 17R      0.164000
     44 H8         -4.8260   -1.2730   -3.4830 ha        1 17R      0.149000
     45 H9         -6.0390    0.4720   -2.2110 ha        1 17R      0.145000
     46 H11        -3.3930   -0.2230    1.1900 ha        1 17R      0.174000
     47 H12        -7.5420    1.0730   -0.5650 h5        1 17R      0.075100
     48 H13        -5.9200    3.5140    2.5280 h5        1 17R      0.077100
     49 H15         3.6630   -2.0620    1.6460 ha        1 17R      0.151000
     50 H16         6.0950   -1.9650    2.1410 ha        1 17R      0.158000
     51 H18         6.4600    1.5980   -0.3040 ha        1 17R      0.172000
@<TRIPOS>BOND
     1    1    2 1   
     2    1   33 1   
     3    1   34 1   
     4    1   35 1   
     5    2    3 1   
     6    2    7 1   
     7    2   36 1   
     8    3    4 1   
     9    3   37 1   
    10    3   38 1   
    11    4    5 1   
    12    4   22 1   
    13    5    6 1   
    14    5   39 1   
    15    5   40 1   
    16    6    7 1   
    17    6   41 1   
    18    6   42 1   
    19    7    8 1   
    20    8    9 2   
    21    8   10 2   
    22    8   11 1   
    23   11   12 ar  
    24   11   16 ar  
    25   12   13 ar  
    26   12   43 1   
    27   13   14 ar  
    28   13   44 1   
    29   14   15 ar  
    30   14   45 1   
    31   15   16 ar  
    32   15   17 1   
    33   16   46 1   
    34   17   18 1   
    35   17   21 1   
    36   18   19 2   
    37   18   47 1   
    38   19   20 1   
    39   20   21 2   
    40   20   48 1   
    41   22   23 ar  
    42   22   27 ar  
    43   23   24 ar  
    44   23   49 1   
    45   24   25 ar  
    46   24   50 1   
    47   25   26 ar  
    48   25   32 1   
    49   26   27 ar  
    50   26   51 1   
    51   27   28 1   
    52   28   29 1   
    53   28   30 1   
    54   28   31 1   
@<TRIPOS>SUBSTRUCTURE
     1 17R         1 TEMP              0 ****  ****    0 ROOT
