@<TRIPOS>MOLECULE
17S
   46    44     1     0     0
SMALL
bcc


@<TRIPOS>ATOM
      1 C1          1.4540   -1.0700    1.9240 c3        1 17S      0.090000
      2 N1          0.8400   -0.9350    0.6110 n         1 17S     -0.310000
      3 S1          0.2170    1.6990    0.9590 s         1 17S     -0.177000
      4 C2          2.4490   -2.0760    1.8550 c3        1 17S      0.019000
      5 N2         -1.2590   -0.1210   -0.4720 n         1 17S     -0.262000
      6 O2          1.7600   -3.4180    1.6120 oh        1 17S     -0.285000
      7 C3          3.2470   -2.1970    3.0260 c3        1 17S      0.005000
      8 N3         -2.5320   -0.0650    0.0800 n2        1 17S     -0.003000
      9 O3          4.3490   -3.1500    2.7430 oh        1 17S     -0.308000
     10 C4          3.8420   -0.8980    3.4830 c3        1 17S     -0.034000
     11 O4          4.5050   -1.1190    4.6840 oh        1 17S     -0.326000
     12 C5          2.7830    0.2590    3.7040 c3        1 17S     -0.037000
     13 O5          1.9720    0.2540    2.3350 os        1 17S     -0.311000
     14 C6          3.3920    1.4350    3.8930 c3        1 17S     -0.014000
     15 O6          2.4850    2.3490    4.4120 oh        1 17S     -0.317000
     16 C7         -0.0970    0.1210    0.3670 c2        1 17S      0.142000
     17 O7         -3.4420    1.5430   -6.3310 os        1 17S     -0.207000
     18 C8         -3.5710    0.2510   -0.6790 c1        1 17S     -0.109000
     19 C9         -3.3590    0.5750   -2.2560 c1        1 17S     -0.133000
     20 C10        -3.1550    1.8920   -2.6720 c2        1 17S     -0.091000
     21 C11        -3.1480    2.2030   -4.0330 c1        1 17S     -0.159000
     22 C12        -3.3430    1.2120   -4.9670 c1        1 17S      0.094000
     23 C13        -3.5470   -0.1070   -4.5530 c1        1 17S     -0.205000
     24 C14        -3.5540   -0.4190   -3.1950 c1        1 17S     -0.068000
     25 C15        -4.7950    1.8350   -6.7700 c3        1 17S     -0.078000
     26 H1          0.7610   -1.3520    2.5690 h2        1 17S      0.154000
     27 HN1         1.0560   -1.5420   -0.0770 hn        1 17S      0.219000
     28 H2          3.0660   -1.8740    1.0560 h1        1 17S      0.141000
     29 HN2        -1.1550   -0.2300   -1.3930 hn        1 17S      0.202000
     30 HO2         1.4240   -3.7180    2.3750 ho        1 17S      0.206000
     31 H3          2.6690   -2.5780    3.7810 h1        1 17S      0.095000
     32 HO3         5.0170   -3.0030    3.3040 ho        1 17S      0.218000
     33 H4          4.4890   -0.6030    2.8210 h1        1 17S      0.102000
     34 HO4         5.4140   -0.9890    4.5660 ho        1 17S      0.211000
     35 H5          2.1860    0.0450    4.4700 h1        1 17S      0.117000
     36 H6          3.7320    1.7640    3.0440 h1        1 17S      0.092000
     37 H6A         4.1630    1.3180    4.5430 h1        1 17S      0.092000
     38 HO6         2.8860    3.1510    4.5040 ho        1 17S      0.216000
     39 H8         -4.4960    0.2910   -0.2770 ha        1 17S      0.177000
     40 H10        -3.0220    2.5760   -2.0290 ha        1 17S      0.145000
     41 H11        -3.0090    3.1130   -4.3180 ha        1 17S      0.155000
     42 H13        -3.6840   -0.8110   -5.2160 ha        1 17S      0.143000
     43 H14        -3.6970   -1.3410   -2.9070 ha        1 17S      0.141000
     44 H15        -5.3570    2.0800   -5.9810 h1        1 17S      0.087000
     45 H15A       -4.7790    2.5770   -7.4010 h1        1 17S      0.087000
     46 H15B       -5.1600    1.0710   -7.1920 h1        1 17S      0.087000
@<TRIPOS>BOND
     1    1    2 1   
     2    1    4 1   
     3    1   13 1   
     4    1   26 1   
     5    2   16 1   
     6    2   27 1   
     7    3   16 1   
     8    4    6 1   
     9    4    7 1   
    10    4   28 1   
    11    5    8 1   
    12    5   16 1   
    13    5   29 1   
    14    6   30 1   
    15    7    9 1   
    16    7   10 1   
    17    7   31 1   
    18    8   18 1   
    19    9   32 1   
    20   10   11 1   
    21   10   12 1   
    22   10   33 1   
    23   11   34 1   
    24   12   13 1   
    25   12   14 1   
    26   12   35 1   
    27   14   15 1   
    28   14   36 1   
    29   14   37 1   
    30   15   38 1   
    31   17   22 1   
    32   17   25 1   
    33   18   39 1   
    34   19   20 1   
    35   19   24 1   
    36   20   21 1   
    37   20   40 1   
    38   21   41 1   
    39   22   23 1   
    40   23   42 1   
    41   24   43 1   
    42   25   44 1   
    43   25   45 1   
    44   25   46 1   
@<TRIPOS>SUBSTRUCTURE
     1 17S         1 TEMP              0 ****  ****    0 ROOT
