@<TRIPOS>MOLECULE
17S
   46    47     1     0     0
SMALL
bcc


@<TRIPOS>ATOM
      1 C1         -2.4530    0.1470   -0.6850 c3        1 17S      0.238500
      2 N1         -1.0520    0.4440   -0.9100 n         1 17S     -0.482900
      3 S1         -1.6360    2.9730   -1.4920 s         1 17S     -0.537400
      4 C2         -2.9160   -1.0950   -1.4970 c3        1 17S      0.090100
      5 N2          0.6960    2.1210   -0.8180 n         1 17S     -0.291900
      6 O2         -2.9350   -0.8350   -2.8880 oh        1 17S     -0.597800
      7 C3         -4.3730   -1.4170   -1.1220 c3        1 17S      0.108100
      8 N3          1.6490    1.2560   -0.4660 n2        1 17S     -0.489300
      9 O3         -4.7830   -2.6370   -1.7130 oh        1 17S     -0.605800
     10 C4         -4.4980   -1.6050    0.3980 c3        1 17S      0.122100
     11 O4         -5.8580   -1.7300    0.7730 oh        1 17S     -0.592800
     12 C5         -3.9410   -0.3660    1.1140 c3        1 17S      0.108100
     13 O5         -2.5850   -0.1490    0.7210 os        1 17S     -0.455600
     14 C6         -3.9030   -0.5820    2.6310 c3        1 17S      0.140400
     15 O6         -3.5620    0.6050    3.3090 oh        1 17S     -0.591800
     16 C7         -0.6520    1.7720   -1.0280 c         1 17S      0.582400
     17 O7          7.0540   -1.8290    1.1890 os        1 17S     -0.322900
     18 C8          2.8940    1.6420   -0.3570 ce        1 17S      0.411800
     19 C9          3.9630    0.7280    0.0460 ca        1 17S     -0.172900
     20 C10         3.7210   -0.5970    0.4430 ca        1 17S     -0.066500
     21 C11         4.7690   -1.4250    0.8180 ca        1 17S     -0.187000
     22 C12         6.0860   -0.9270    0.7990 ca        1 17S      0.143100
     23 C13         6.3430    0.3930    0.4070 ca        1 17S     -0.187000
     24 C14         5.2800    1.2100    0.0340 ca        1 17S     -0.066500
     25 C15         8.3960   -1.3550    1.1870 c3        1 17S      0.111700
     26 H1         -3.0900    1.0480   -0.9570 h2        1 17S      0.124700
     27 HN1        -0.4290   -0.2090   -0.4750 hn        1 17S      0.324500
     28 H2         -2.2590   -1.9810   -1.2770 h1        1 17S      0.061700
     29 HN2         0.9070    3.0810   -1.0580 hn        1 17S      0.339500
     30 HO2        -2.0420   -0.5810   -3.1520 ho        1 17S      0.424000
     31 H3         -5.0470   -0.5830   -1.4690 h1        1 17S      0.070700
     32 HO3        -4.6650   -2.5360   -2.6670 ho        1 17S      0.429000
     33 H4         -3.9310   -2.5270    0.7100 h1        1 17S      0.061700
     34 HO4        -6.2250   -2.4440    0.2340 ho        1 17S      0.426000
     35 H5         -4.5600    0.5390    0.8660 h1        1 17S      0.078700
     36 H6         -4.9350   -0.8470    2.9860 h1        1 17S      0.064700
     37 H6A        -3.1790   -1.4010    2.8820 h1        1 17S      0.064700
     38 HO6        -2.6960    0.8820    2.9810 ho        1 17S      0.410000
     39 H8          3.2380    2.6820   -0.5600 h4        1 17S     -0.006200
     40 H10         2.6930   -0.9930    0.4620 ha        1 17S      0.141000
     41 H11         4.5900   -2.4640    1.1310 ha        1 17S      0.148000
     42 H13         7.3670    0.7900    0.3890 ha        1 17S      0.148000
     43 H14         5.4830    2.2480   -0.2750 ha        1 17S      0.141000
     44 H15         8.9840   -2.2430    1.5340 h1        1 17S      0.047367
     45 H15A        8.7060   -1.0540    0.1570 h1        1 17S      0.047367
     46 H15B        8.5140   -0.5020    1.8980 h1        1 17S      0.047367
@<TRIPOS>BOND
     1    1    2 1   
     2    1    4 1   
     3    1   13 1   
     4    1   26 1   
     5    2   16 1   
     6    2   27 1   
     7    3   16 2   
     8    4    6 1   
     9    4    7 1   
    10    4   28 1   
    11    5    8 1   
    12    5   16 1   
    13    5   29 1   
    14    6   30 1   
    15    7    9 1   
    16    7   10 1   
    17    7   31 1   
    18    8   18 2   
    19    9   32 1   
    20   10   11 1   
    21   10   12 1   
    22   10   33 1   
    23   11   34 1   
    24   12   13 1   
    25   12   14 1   
    26   12   35 1   
    27   14   15 1   
    28   14   36 1   
    29   14   37 1   
    30   15   38 1   
    31   17   22 1   
    32   17   25 1   
    33   18   19 1   
    34   18   39 1   
    35   19   20 ar  
    36   19   24 ar  
    37   20   21 ar  
    38   20   40 1   
    39   21   22 ar  
    40   21   41 1   
    41   22   23 ar  
    42   23   24 ar  
    43   23   42 1   
    44   24   43 1   
    45   25   44 1   
    46   25   45 1   
    47   25   46 1   
@<TRIPOS>SUBSTRUCTURE
     1 17S         1 TEMP              0 ****  ****    0 ROOT
