@<TRIPOS>MOLECULE
17S
   48    48     1     0     0
SMALL
bcc


@<TRIPOS>ATOM
      1 C1         -7.4190 -302.2000  723.6690 c3        1 17S      0.051000
      2 N1         -7.5550 -300.7050  723.6270 n4        1 17S     -0.077000
      3 S1         -6.7860 -298.9180  725.3540 s         1 17S      0.082000
      4 C2         -8.7580 -302.9100  723.3360 c3        1 17S      0.001000
      5 N2         -5.1580 -300.2420  723.7400 n         1 17S     -0.325000
      6 O2         -9.6780 -302.4990  724.3240 oh        1 17S     -0.344000
      7 C3         -8.4910 -304.4240  723.3640 c3        1 17S     -0.031000
      8 N3         11.2520  510.0970-1215.2510 n1        1 17S      0.095000
      9 O3         -9.7080 -305.0290  722.9730 oh        1 17S     -0.319000
     10 C4         -7.3640 -304.7720  722.3700 c3        1 17S     -0.025000
     11 O4         -6.9930 -306.1260  722.5500 oh        1 17S     -0.311000
     12 C5         -6.1170 -303.9310  722.6810 c3        1 17S      0.003000
     13 O5         -6.4630 -302.5330  722.6700 os        1 17S     -0.296000
     14 C6         -5.0320 -304.0630  721.6040 c3        1 17S     -0.016000
     15 O6         -3.8730 -303.3760  722.0200 oh        1 17S     -0.324000
     16 C7         -6.3780 -299.9430  724.2460 c2        1 17S     -0.022000
     17 O7         12.8230  507.1180-1209.8630 os        1 17S     -0.113000
     18 C8         11.2480  509.1850-1214.5320 c1        1 17S     -0.186000
     19 C9         11.2390  508.0380-1213.6430 c3        1 17S     -0.027000
     20 C10        12.6180  507.5190-1213.4170 c2        1 17S      0.035000
     21 C11        13.0850  507.2120-1212.1850 c2        1 17S     -0.243500
     22 C12        12.2680  507.4490-1211.0200 c2        1 17S      0.323000
     23 C13        10.9590  508.0220-1211.1640 c2        1 17S     -0.243500
     24 C14        10.4810  508.3330-1212.3940 c2        1 17S      0.035000
     25 C15        12.0970  507.3300-1208.6300 c3        1 17S     -0.096000
     26 H1         -7.0570 -302.4910  724.7010 hx        1 17S      0.157000
     27 HN1        -7.6830 -300.4130  722.6500 hn        1 17S      0.275000
     28 H2         -9.1320 -302.6130  722.3160 h1        1 17S      0.125000
     29 HN2        -4.9910 -300.9620  723.0640 hn        1 17S      0.285000
     30 HO2       -10.4370 -303.1030  724.2830 ho        1 17S      0.265000
     31 H3         -8.2030 -304.7540  724.4010 h1        1 17S      0.118000
     32 HO3        -9.6460 -305.9670  723.2010 ho        1 17S      0.235000
     33 H4         -7.7140 -304.5780  721.3190 h1        1 17S      0.120000
     34 HO4        -7.5540 -306.6570  721.9670 ho        1 17S      0.230000
     35 H5         -5.7050 -304.2040  723.6910 h1        1 17S      0.118000
     36 H6         -4.8500 -305.1540  721.4200 h1        1 17S      0.124000
     37 H6A        -5.3590 -303.5540  720.6560 h1        1 17S      0.124000
     38 HO6        -3.3150 -304.0010  722.5010 ho        1 17S      0.218000
     39 H8         10.6620  507.1960-1214.1750 hc        1 17S      0.215000
     40 H10        13.2420  507.3720-1214.3200 ha        1 17S      0.198000
     41 H11        14.0970  506.7930-1212.0280 ha        1 17S      0.201000
     42 H13        10.3570  508.2190-1210.2590 ha        1 17S      0.201000
     43 H14         9.4860  508.8040-1212.5210 ha        1 17S      0.198000
     44 H15        12.8250  506.9500-1207.8640 h1        1 17S      0.136000
     45 H15A       11.1590  506.7260-1208.6360 h1        1 17S      0.136000
     46 H15B       11.8960  508.4200-1208.4950 h1        1 17S      0.136000
     47 H12        -8.4000 -300.4470  724.1780 hn        1 17S      0.275000
     48 H22        -4.3720 -299.7420  724.1010 hn        1 17S      0.285000
@<TRIPOS>BOND
     1    1    2 1   
     2    1    4 1   
     3    1   13 1   
     4    1   26 1   
     5    2   16 1   
     6    2   27 1   
     7    2   47 1   
     8    3   16 1   
     9    4    6 1   
    10    4    7 1   
    11    4   28 1   
    12    5   16 1   
    13    5   29 1   
    14    5   48 1   
    15    6   30 1   
    16    7    9 1   
    17    7   10 1   
    18    7   31 1   
    19    8   18 1   
    20    9   32 1   
    21   10   11 1   
    22   10   12 1   
    23   10   33 1   
    24   11   34 1   
    25   12   13 1   
    26   12   14 1   
    27   12   35 1   
    28   14   15 1   
    29   14   36 1   
    30   14   37 1   
    31   15   38 1   
    32   17   22 1   
    33   17   25 1   
    34   18   19 1   
    35   19   20 1   
    36   19   24 1   
    37   19   39 1   
    38   20   21 1   
    39   20   40 1   
    40   21   22 1   
    41   21   41 1   
    42   22   23 1   
    43   23   24 1   
    44   23   42 1   
    45   24   43 1   
    46   25   44 1   
    47   25   45 1   
    48   25   46 1   
@<TRIPOS>SUBSTRUCTURE
     1 17S         1 TEMP              0 ****  ****    0 ROOT
