@<TRIPOS>MOLECULE
17S
   48    49     1     0     0
SMALL
bcc


@<TRIPOS>ATOM
      1 C1          0.2190   -0.2230    0.0640 c3        1 17S      0.339300
      2 N1         -0.0260   -0.4400   -1.4270 ny        1 17S     -0.600800
      3 S1         -2.6100   -0.9000   -0.8430 s         1 17S      0.277600
      4 C2          1.7190   -0.4500    0.3950 c3        1 17S      0.111100
      5 N2         -1.5460   -1.2600   -3.2330 ny        1 17S     -0.293900
      6 O2          2.0010   -1.7850    0.0390 oh        1 17S     -0.634800
      7 C3          1.8790   -0.1750    1.9010 c3        1 17S      0.119100
      8 N3         -0.8940   -0.4070   -4.1270 n2        1 17S     -0.692400
      9 O3          3.2600   -0.3190    2.1530 oh        1 17S     -0.590800
     10 C4          1.3990    1.2570    2.2210 c3        1 17S      0.079100
     11 O4          1.4100    1.3360    3.6330 oh        1 17S     -0.575800
     12 C5         -0.0350    1.4720    1.7070 c3        1 17S      0.116100
     13 O5         -0.1180    1.1300    0.3000 os        1 17S     -0.427600
     14 C6         -0.4610    2.9420    1.7700 c3        1 17S      0.136400
     15 O6         -1.8330    2.9770    1.4280 oh        1 17S     -0.607800
     16 C7         -1.4130   -0.8540   -1.7570 c         1 17S      0.003400
     17 O7          0.7410    3.3890   -9.0450 os        1 17S     -0.278900
     18 C8         -1.5790    0.2010   -5.0940 ce        1 17S      0.605800
     19 C9         -0.9710    1.0240   -6.0840 ca        1 17S     -0.295900
     20 C10         0.4300    1.2450   -6.1600 ca        1 17S      0.004500
     21 C11         0.9680    2.0340   -7.1510 ca        1 17S     -0.210000
     22 C12         0.1140    2.6360   -8.1150 ca        1 17S      0.262100
     23 C13        -1.2840    2.4250   -8.0530 ca        1 17S     -0.210000
     24 C14        -1.8100    1.6310   -7.0560 ca        1 17S      0.004500
     25 C15        -0.0600    4.0110  -10.0620 c3        1 17S      0.098700
     26 H1         -0.4430   -0.9330    0.6450 hx        1 17S      0.120700
     27 HN1         0.1840    0.4530   -1.9120 hn        1 17S      0.497300
     28 H2          2.3790    0.2510   -0.1900 h1        1 17S      0.095700
     29 HN2        -2.5670   -1.3870   -3.3930 hn        1 17S      0.462800
     30 HO2         2.8020   -2.0570    0.5200 ho        1 17S      0.485000
     31 H3          1.2940   -0.9210    2.5080 h1        1 17S      0.083700
     32 HO3         3.3960   -0.1560    3.1010 ho        1 17S      0.459000
     33 H4          2.0990    2.0060    1.7580 h1        1 17S      0.083700
     34 HO4         1.5410    2.2620    3.8800 ho        1 17S      0.437000
     35 H5         -0.7620    0.8320    2.2790 h1        1 17S      0.095700
     36 H6          0.1250    3.5570    1.0360 h1        1 17S      0.063200
     37 H6A        -0.2840    3.3110    2.8160 h1        1 17S      0.063200
     38 HO6        -2.1970    3.7960    1.7900 ho        1 17S      0.437000
     39 H8         -2.6890    0.0830   -5.2000 h4        1 17S      0.021800
     40 H10         1.1040    0.7740   -5.4270 ha        1 17S      0.149000
     41 H11         2.0550    2.2090   -7.2240 ha        1 17S      0.182500
     42 H13        -1.9480    2.8880   -8.8000 ha        1 17S      0.182500
     43 H14        -2.9010    1.4670   -7.0170 ha        1 17S      0.149000
     44 H15        -0.5890    3.2340  -10.6640 h1        1 17S      0.076700
     45 H15A        0.7060    4.5470  -10.6810 h1        1 17S      0.076700
     46 H15B       -0.7780    4.7310   -9.6000 h1        1 17S      0.076700
     47 H12         0.6580   -1.1530   -1.7410 hn        1 17S      0.497300
     48 H22        -1.0850   -2.1850   -3.3480 hn        1 17S      0.462800
@<TRIPOS>BOND
     1    1    2 1   
     2    1    4 1   
     3    1   13 1   
     4    1   26 1   
     5    2   16 1   
     6    2   27 1   
     7    2   47 1   
     8    3   16 2   
     9    4    6 1   
    10    4    7 1   
    11    4   28 1   
    12    5    8 1   
    13    5   16 1   
    14    5   29 1   
    15    5   48 1   
    16    6   30 1   
    17    7    9 1   
    18    7   10 1   
    19    7   31 1   
    20    8   18 2   
    21    9   32 1   
    22   10   11 1   
    23   10   12 1   
    24   10   33 1   
    25   11   34 1   
    26   12   13 1   
    27   12   14 1   
    28   12   35 1   
    29   14   15 1   
    30   14   36 1   
    31   14   37 1   
    32   15   38 1   
    33   17   22 1   
    34   17   25 1   
    35   18   19 1   
    36   18   39 1   
    37   19   20 ar  
    38   19   24 ar  
    39   20   21 ar  
    40   20   40 1   
    41   21   22 ar  
    42   21   41 1   
    43   22   23 ar  
    44   23   24 ar  
    45   23   42 1   
    46   24   43 1   
    47   25   44 1   
    48   25   45 1   
    49   25   46 1   
@<TRIPOS>SUBSTRUCTURE
     1 17S         1 TEMP              0 ****  ****    0 ROOT
