@<TRIPOS>MOLECULE
17T
   42    43     1     0     0
SMALL
bcc


@<TRIPOS>ATOM
      1 C1         -2.4570    0.1440   -0.7350 c3        1 17T      0.236500
      2 N1         -1.0610    0.4680   -0.9680 n         1 17T     -0.479900
      3 S1         -1.6960    2.9550   -1.6640 s         1 17T     -0.525400
      4 CL1         7.3290   -1.5820    1.6020 cl        1 17T     -0.085400
      5 C2         -2.9110   -1.0880   -1.5680 c3        1 17T      0.090100
      6 N2          0.6430    2.1940   -0.9140 n         1 17T     -0.294900
      7 O2         -2.9600   -0.8000   -2.9520 oh        1 17T     -0.598800
      8 C3         -4.3540   -1.4450   -1.1730 c3        1 17T      0.109100
      9 N3          1.6030    1.3800   -0.4810 n2        1 17T     -0.474300
     10 O3         -4.7500   -2.6640   -1.7770 oh        1 17T     -0.606800
     11 C4         -4.4510   -1.6610    0.3460 c3        1 17T      0.117100
     12 O4         -5.8000   -1.8330    0.7390 oh        1 17T     -0.593800
     13 C5         -3.9150   -0.4130    1.0700 c3        1 17T      0.149100
     14 O5         -2.5640   -0.1870    0.6640 os        1 17T     -0.439600
     15 C6         -3.8730   -0.6380    2.5830 c3        1 17T      0.135400
     16 O6         -3.9700    0.6400    3.1900 oh        1 17T     -0.594800
     17 C7         -0.6960    1.8010   -1.1300 c         1 17T      0.581400
     18 C8          2.8320    1.8080   -0.3420 ce        1 17T      0.391800
     19 C9          3.9050    0.9390    0.1450 ca        1 17T     -0.129900
     20 C10         5.2250    1.4110    0.0530 ca        1 17T     -0.096000
     21 C11         6.2870    0.6330    0.5020 ca        1 17T     -0.129500
     22 C12         6.0350   -0.6290    1.0520 ca        1 17T      0.028400
     23 C13         4.7260   -1.1090    1.1510 ca        1 17T     -0.129500
     24 C14         3.6660   -0.3260    0.6980 ca        1 17T     -0.096000
     25 H1         -3.1110    1.0390   -0.9810 h2        1 17T      0.122700
     26 HN1        -0.4270   -0.1500   -0.4990 hn        1 17T      0.324500
     27 H2         -2.2330   -1.9660   -1.3790 h1        1 17T      0.060700
     28 HN2         0.8280    3.1550   -1.1700 hn        1 17T      0.340500
     29 HO2        -2.0830   -0.5010   -3.2220 ho        1 17T      0.424000
     30 H3         -5.0500   -0.6200   -1.4950 h1        1 17T      0.070700
     31 HO3        -4.6460   -2.5460   -2.7310 ho        1 17T      0.429000
     32 H4         -3.8520   -2.5690    0.6350 h1        1 17T      0.059700
     33 HO4        -6.1590   -2.5370    0.1800 ho        1 17T      0.426000
     34 H5         -4.5480    0.4850    0.8290 h1        1 17T      0.086700
     35 H6         -4.7520   -1.2710    2.8810 h1        1 17T      0.047200
     36 H6A        -2.9150   -1.1430    2.8760 h1        1 17T      0.047200
     37 HO6        -3.8360    0.5050    4.1350 ho        1 17T      0.404000
     38 H8          3.1580    2.8450   -0.5800 h4        1 17T     -0.002200
     39 H10         5.4260    2.4040   -0.3790 ha        1 17T      0.145000
     40 H11         7.3180    1.0100    0.4250 ha        1 17T      0.151000
     41 H13         4.5290   -2.1020    1.5850 ha        1 17T      0.151000
     42 H14         2.6390   -0.7130    0.7830 ha        1 17T      0.145000
@<TRIPOS>BOND
     1    1    2 1   
     2    1    5 1   
     3    1   14 1   
     4    1   25 1   
     5    2   17 1   
     6    2   26 1   
     7    3   17 2   
     8    4   22 1   
     9    5    7 1   
    10    5    8 1   
    11    5   27 1   
    12    6    9 1   
    13    6   17 1   
    14    6   28 1   
    15    7   29 1   
    16    8   10 1   
    17    8   11 1   
    18    8   30 1   
    19    9   18 2   
    20   10   31 1   
    21   11   12 1   
    22   11   13 1   
    23   11   32 1   
    24   12   33 1   
    25   13   14 1   
    26   13   15 1   
    27   13   34 1   
    28   15   16 1   
    29   15   35 1   
    30   15   36 1   
    31   16   37 1   
    32   18   19 1   
    33   18   38 1   
    34   19   20 ar  
    35   19   24 ar  
    36   20   21 ar  
    37   20   39 1   
    38   21   22 ar  
    39   21   40 1   
    40   22   23 ar  
    41   23   24 ar  
    42   23   41 1   
    43   24   42 1   
@<TRIPOS>SUBSTRUCTURE
     1 17T         1 TEMP              0 ****  ****    0 ROOT
