@<TRIPOS>MOLECULE
17T
   44    46     1     0     0
SMALL
bcc


@<TRIPOS>ATOM
      1 C1          0.0000    0.0000    0.0000 c3        1 17T     -0.137000
      2 N1         -0.4890    0.0590   -1.3790 ny        1 17T      0.842000
      3 S1         -2.4760   -1.4960   -0.5490 s         1 17T      0.444000
      4 Cl1         1.2100    3.3910   -9.2830 cl        1 17T      0.266000
      5 C2          1.5310    0.0000    0.0000 c3        1 17T      0.024000
      6 N2         -2.0660   -0.5410   -2.9930 ny        1 17T      0.880000
      7 O2          2.0090   -1.1660   -0.6730 oh        1 17T     -0.320000
      8 C3          2.0340    0.0000    1.4470 c3        1 17T      0.049000
      9 N3         -1.3620    0.1950   -3.9540 n2        1 17T     -0.519000
     10 O3          3.4610    0.0740    1.4570 oh        1 17T     -0.294000
     11 C4          1.4520    1.2130    2.1790 c3        1 17T      0.029000
     12 O4          1.8570    1.1830    3.5490 oh        1 17T     -0.283000
     13 C5         -0.0760    1.1660    2.0950 c3        1 17T      0.067000
     14 O5         -0.4750    1.1380    0.7230 os        1 17T     -0.247000
     15 C6         -0.6620    2.4070    2.7710 c3        1 17T      0.080000
     16 O6         -2.0880    2.3070    2.7960 oh        1 17T     -0.331000
     17 C7         -1.6160   -0.5950   -1.7240 c2        1 17T     -0.644000
     18 C8         -1.7940    0.2470   -5.1760 c2        1 17T     -0.171000
     19 C9         -1.0530    1.0220   -6.1890 c3        1 17T     -0.173000
     20 C10        -1.5170    1.0810   -7.5050 c2        1 17T      0.055500
     21 C11        -0.8200    1.8080   -8.4470 c2        1 17T     -0.137000
     22 C12         0.3380    2.4790   -8.0910 c2        1 17T      0.003000
     23 C13         0.8030    2.4250   -6.7870 c2        1 17T     -0.137000
     24 C14         0.1110    1.7070   -5.8340 c2        1 17T      0.055500
     25 H1         -0.3590   -0.9040    0.4770 hx        1 17T      0.147000
     26 HN1        -0.6360    1.0250   -1.5950 hn        1 17T      0.059500
     27 H2          1.8910    0.8880   -0.5060 h1        1 17T      0.076000
     28 HN2        -2.9920   -0.1640   -2.9570 hn        1 17T      0.046500
     29 HO2         2.7560   -0.9400   -1.2020 ho        1 17T      0.237000
     30 H3          1.7100   -0.9080    1.9410 h1        1 17T      0.080000
     31 HO3         3.8100   -0.6600    1.9350 ho        1 17T      0.228000
     32 H4          1.8100    2.1220    1.7110 h1        1 17T      0.070000
     33 HO4         2.5520    1.8050    3.6850 ho        1 17T      0.223000
     34 H5         -0.4360    0.2730    2.5920 h1        1 17T      0.088000
     35 H6         -0.2870    2.4770    3.7860 h1        1 17T      0.059500
     36 H6A        -0.3720    3.2920    2.2180 h1        1 17T      0.059500
     37 HO6        -2.4420    2.9940    3.3360 ho        1 17T      0.222000
     38 H8         -0.8900   -0.0930   -5.6660 DU        1 17T      0.326000
     39 H10        -2.4230    0.5560   -7.7860 ha        1 17T      0.131000
     40 H11        -1.1820    1.8590   -9.4670 ha        1 17T      0.155500
     41 H13         1.7060    2.9570   -6.5130 ha        1 17T      0.155500
     42 H14         0.4750    1.6650   -4.8150 ha        1 17T      0.131000
     43 H12         0.2430   -0.2960   -1.9620 hn        1 17T      0.059500
     44 H22        -2.1110   -1.4850   -3.3240 hn        1 17T      0.046500
@<TRIPOS>BOND
     1    1    2 1   
     2    1    5 1   
     3    1   14 1   
     4    1   25 1   
     5    2   17 1   
     6    2   26 1   
     7    2   43 1   
     8    3   17 1   
     9    4   22 1   
    10    5    7 1   
    11    5    8 1   
    12    5   27 1   
    13    6    9 1   
    14    6   17 1   
    15    6   28 1   
    16    6   44 1   
    17    7   29 1   
    18    8   10 1   
    19    8   11 1   
    20    8   30 1   
    21    9   18 1   
    22   10   31 1   
    23   11   12 1   
    24   11   13 1   
    25   11   32 1   
    26   12   33 1   
    27   13   14 1   
    28   13   15 1   
    29   13   34 1   
    30   15   16 1   
    31   15   35 1   
    32   15   36 1   
    33   16   37 1   
    34   18   19 1   
    35   18   38 1   
    36   19   20 1   
    37   19   24 1   
    38   19   38 1   
    39   20   21 1   
    40   20   39 1   
    41   21   22 1   
    42   21   40 1   
    43   22   23 1   
    44   23   24 1   
    45   23   41 1   
    46   24   42 1   
@<TRIPOS>SUBSTRUCTURE
     1 17T         1 TEMP              0 ****  ****    0 ROOT
