@<TRIPOS>MOLECULE
17T
   42    40     1     0     0
SMALL
bcc


@<TRIPOS>ATOM
      1 C1          0.7350   -1.8880    0.2230 c3        1 17T      0.101000
      2 N1          0.2530   -0.5660    0.6270 n         1 17T     -0.330000
      3 S1         -2.3920   -1.0450    0.5480 s         1 17T     -0.281000
      4 CL1        -3.4020    3.4960   -6.3520 cl        1 17T     -0.005000
      5 C2          2.1590   -1.8650    0.1940 c3        1 17T      0.019000
      6 N2         -1.1880    1.1020   -0.5890 n         1 17T     -0.283000
      7 O2          2.6410   -3.1510   -0.4740 oh        1 17T     -0.303000
      8 C3          2.7610   -1.7730    1.4540 c3        1 17T     -0.007000
      9 N3         -1.1010    2.3300    0.0180 n2        1 17T     -0.050000
     10 O3          2.4850   -0.4140    2.0160 oh        1 17T     -0.331000
     11 C4          2.2720   -2.7990    2.4260 c3        1 17T     -0.033000
     12 O4          2.6850   -4.0560    1.9870 oh        1 17T     -0.325000
     13 C5          0.6780   -2.8240    2.6140 c3        1 17T     -0.038000
     14 O5          0.1660   -2.9120    1.1490 os        1 17T     -0.260000
     15 C6          0.2440   -1.7140    3.2020 c3        1 17T     -0.054000
     16 O6          0.1290   -1.9350    4.6030 oh        1 17T     -0.324000
     17 C7         -1.0510   -0.1200    0.2090 c2        1 17T      0.188000
     18 C8         -1.4330    3.4220   -0.6490 c1        1 17T     -0.115000
     19 C9         -1.9100    3.3180   -2.0930 c1        1 17T     -0.090000
     20 C10        -3.2580    3.1350   -2.3600 c2        1 17T     -0.112000
     21 C11        -3.7220    3.2040   -3.6670 c1        1 17T     -0.121000
     22 C12        -2.8310    3.4580   -4.7120 c1        1 17T     -0.051000
     23 C13        -1.4860    3.6400   -4.4440 c1        1 17T     -0.124000
     24 C14        -1.0210    3.5710   -3.1380 c1        1 17T     -0.099000
     25 H1          0.4090   -2.0730   -0.6790 h2        1 17T      0.197000
     26 HN1         0.7880   -0.0140    1.0940 hn        1 17T      0.259000
     27 H2          2.4400   -1.1290   -0.3280 h1        1 17T      0.147000
     28 HN2        -1.4030    1.0480   -1.4580 hn        1 17T      0.256000
     29 HO2         3.1440   -2.9430   -1.2060 ho        1 17T      0.226000
     30 H3          3.7190   -1.8780    1.3480 h1        1 17T      0.118000
     31 HO3         3.2660   -0.0520    2.3430 ho        1 17T      0.216000
     32 H4          2.6950   -2.6180    3.3210 h1        1 17T      0.100000
     33 HO4         3.2380   -4.4170    2.5910 ho        1 17T      0.213000
     34 H5          0.3920   -3.6450    3.1390 h1        1 17T      0.114000
     35 H6         -0.6620   -1.4670    2.8250 h1        1 17T      0.107500
     36 H6A         0.8760   -0.9870    3.0370 h1        1 17T      0.107500
     37 HO6        -0.4530   -1.3030    4.9730 ho        1 17T      0.201000
     38 H8         -1.3700    4.3170   -0.2060 ha        1 17T      0.171000
     39 H10        -3.9040    2.9520   -1.6030 ha        1 17T      0.147000
     40 H11        -4.6580    3.0780   -3.8550 ha        1 17T      0.154000
     41 H13        -0.8620    3.8180   -5.1760 ha        1 17T      0.152000
     42 H14        -0.0680    3.7010   -2.9510 ha        1 17T      0.143000
@<TRIPOS>BOND
     1    1    2 1   
     2    1    5 1   
     3    1   14 1   
     4    1   25 1   
     5    2   17 1   
     6    2   26 1   
     7    3   17 1   
     8    4   22 1   
     9    5    7 1   
    10    5    8 1   
    11    5   27 1   
    12    6    9 1   
    13    6   17 1   
    14    6   28 1   
    15    7   29 1   
    16    8   10 1   
    17    8   11 1   
    18    8   30 1   
    19    9   18 1   
    20   10   31 1   
    21   11   12 1   
    22   11   13 1   
    23   11   32 1   
    24   12   33 1   
    25   13   14 1   
    26   13   15 1   
    27   13   34 1   
    28   15   16 1   
    29   15   35 1   
    30   15   36 1   
    31   16   37 1   
    32   18   38 1   
    33   19   20 1   
    34   19   24 1   
    35   20   21 1   
    36   20   39 1   
    37   21   40 1   
    38   22   23 1   
    39   23   41 1   
    40   24   42 1   
@<TRIPOS>SUBSTRUCTURE
     1 17T         1 TEMP              0 ****  ****    0 ROOT
