@<TRIPOS>MOLECULE
17T
   44    44     1     0     0
SMALL
bcc


@<TRIPOS>ATOM
      1 C1       -130.5800 -167.3020  717.3600 c3        1 17T      0.050000
      2 N1       -129.8720 -166.8280  716.1230 n4        1 17T     -0.077000
      3 S1       -128.4970 -168.1820  714.3790 s         1 17T      0.084000
      4 CL1       281.7170  363.1160-1540.7450 cl        1 17T      0.207000
      5 C2       -130.2460 -166.4150  718.5890 c3        1 17T      0.001000
      6 N2       -131.1370 -168.2210  714.5640 n         1 17T     -0.326000
      7 O2       -128.8520 -166.5180  718.7800 oh        1 17T     -0.344000
      8 C3       -131.0500 -166.9620  719.7800 c3        1 17T      0.003000
      9 N3        283.4920  358.7260-1545.5060 n1        1 17T      0.111000
     10 O3       -130.7820 -166.0820  720.8520 oh        1 17T     -0.320000
     11 C4       -132.5540 -166.9720  719.4350 c3        1 17T     -0.030000
     12 O4       -133.1800 -167.6450  720.5110 oh        1 17T     -0.310000
     13 C5       -132.7890 -167.7450  718.1290 c3        1 17T     -0.028000
     14 O5       -131.9710 -167.1930  717.0800 os        1 17T     -0.294000
     15 C6       -134.2200 -167.6030  717.5930 c3        1 17T     -0.018000
     16 O6       -134.3760 -168.4070  716.4460 oh        1 17T     -0.319000
     17 C7       -129.9040 -167.8170  714.9540 c2        1 17T     -0.023000
     18 C8        282.8150  359.5530-1545.0530 c1        1 17T     -0.189000
     19 C9        281.9650  360.5870-1544.4960 c3        1 17T     -0.039000
     20 C10       281.2720  360.1270-1543.2640 c2        1 17T      0.055000
     21 C11       281.1820  360.9140-1542.1540 c2        1 17T     -0.217000
     22 C12       281.8250  362.1840-1542.1060 c2        1 17T      0.172000
     23 C13       282.5770  362.6400-1543.2260 c2        1 17T     -0.217000
     24 C14       282.6860  361.8770-1544.3510 c2        1 17T      0.055000
     25 H1       -130.2800 -168.3770  717.5470 hx        1 17T      0.158000
     26 HN1      -130.2810 -165.9310  715.8320 hn        1 17T      0.275000
     27 H2       -130.5300 -165.3410  718.4030 h1        1 17T      0.125000
     28 HN2      -131.1950 -168.8430  713.7840 hn        1 17T      0.284000
     29 HO2      -128.6560 -166.2010  719.6770 ho        1 17T      0.268000
     30 H3       -130.7120 -168.0040  720.0420 h1        1 17T      0.119000
     31 HO3      -131.2740 -166.4140  721.6190 ho        1 17T      0.247000
     32 H4       -132.9290 -165.9160  719.3380 h1        1 17T      0.119000
     33 HO4      -134.0950 -167.3380  720.5570 ho        1 17T      0.227000
     34 H5       -132.5280 -168.8300  718.2690 h1        1 17T      0.117000
     35 H6       -134.9380 -167.8760  718.4090 h1        1 17T      0.117000
     36 H6A      -134.4040 -166.5500  717.2460 h1        1 17T      0.117000
     37 HO6      -134.6510 -169.2870  716.7340 ho        1 17T      0.217000
     38 H8        281.1250  360.7870-1545.2660 hc        1 17T      0.234000
     39 H10       280.8060  359.1220-1543.2970 ha        1 17T      0.204000
     40 H11       280.6210  360.5630-1541.2640 ha        1 17T      0.209000
     41 H13       283.0910  363.6200-1543.1620 ha        1 17T      0.209000
     42 H14       283.3000  362.2080-1545.2130 ha        1 17T      0.204000
     43 H12      -128.8690 -166.6860  716.3670 hn        1 17T      0.275000
     44 H22      -131.9840 -167.9740  715.0360 hn        1 17T      0.284000
@<TRIPOS>BOND
     1    1    2 1   
     2    1    5 1   
     3    1   14 1   
     4    1   25 1   
     5    2   17 1   
     6    2   26 1   
     7    2   43 1   
     8    3   17 1   
     9    4   22 1   
    10    5    7 1   
    11    5    8 1   
    12    5   27 1   
    13    6   17 1   
    14    6   28 1   
    15    6   44 1   
    16    7   29 1   
    17    8   10 1   
    18    8   11 1   
    19    8   30 1   
    20    9   18 1   
    21   10   31 1   
    22   11   12 1   
    23   11   13 1   
    24   11   32 1   
    25   12   33 1   
    26   13   14 1   
    27   13   15 1   
    28   13   34 1   
    29   15   16 1   
    30   15   35 1   
    31   15   36 1   
    32   16   37 1   
    33   18   19 1   
    34   19   20 1   
    35   19   24 1   
    36   19   38 1   
    37   20   21 1   
    38   20   39 1   
    39   21   22 1   
    40   21   40 1   
    41   22   23 1   
    42   23   24 1   
    43   23   41 1   
    44   24   42 1   
@<TRIPOS>SUBSTRUCTURE
     1 17T         1 TEMP              0 ****  ****    0 ROOT
