@<TRIPOS>MOLECULE
17U
   31    30     1     0     0
SMALL
bcc


@<TRIPOS>ATOM
      1 N3          0.0140   -0.1950   -0.0880 n4        1 17U     -0.834600
      2 C11         1.4990    0.0310   -0.0070 c3        1 17U      0.111500
      3 C16         1.9560    0.1490    1.4780 c3        1 17U      0.179300
      4 O6          1.2840   -0.8830    2.1890 oh        1 17U     -0.641800
      5 C17         3.4500    0.0470    1.5690 c2        1 17U     -0.207400
      6 C23         4.0590   -1.2290    1.1200 c3        1 17U     -0.071900
      7 C18         4.1760    1.0590    2.0560 c2        1 17U     -0.139000
      8 C12         1.9240    1.2720   -0.7850 c3        1 17U     -0.114400
      9 C13         1.5440    1.2530   -2.2590 c3        1 17U     -0.076700
     10 C15         2.1310    2.4790   -2.9340 c3        1 17U     -0.100600
     11 C14         2.0160   -0.0040   -2.9580 c3        1 17U     -0.100600
     12 H12        -0.2360   -0.9800    0.5280 hn        1 17U      0.463133
     13 H13         1.9810   -0.8920   -0.4550 hx        1 17U      0.120700
     14 H14         1.5940    1.1340    1.8970 h1        1 17U      0.070700
     15 H15         1.8850   -1.2450    2.8540 ho        1 17U      0.459000
     16 H16         3.3900   -2.0960    1.3500 hc        1 17U      0.057033
     17 H17         5.0430   -1.4020    1.6240 hc        1 17U      0.057033
     18 H18         4.2390   -1.2050    0.0150 hc        1 17U      0.057033
     19 H19         3.7330    2.0060    2.3940 ha        1 17U      0.138500
     20 H20         5.2710    0.9950    2.1510 ha        1 17U      0.138500
     21 H21         1.5000    2.1940   -0.3040 hc        1 17U      0.087200
     22 H22         3.0450    1.3350   -0.6930 hc        1 17U      0.087200
     23 H23         0.4220    1.3200   -2.3530 hc        1 17U      0.029700
     24 H24         3.2470    2.4400   -2.9160 hc        1 17U      0.050367
     25 H25         1.7980    3.4100   -2.4160 hc        1 17U      0.050367
     26 H26         1.7970    2.5260   -3.9990 hc        1 17U      0.050367
     27 H27         1.8680    0.0940   -4.0620 hc        1 17U      0.050367
     28 H28         3.1030   -0.1780   -2.7670 hc        1 17U      0.050367
     29 H29         1.4450   -0.8980   -2.6100 hc        1 17U      0.050367
     30 H2         -0.4830    0.6420    0.2230 hn        1 17U      0.463133
     31 H33        -0.2480   -0.4070   -1.0550 hn        1 17U      0.463133
@<TRIPOS>BOND
     1    1    2 1   
     2    1   12 1   
     3    1   30 1   
     4    1   31 1   
     5    2    3 1   
     6    2    8 1   
     7    2   13 1   
     8    3    4 1   
     9    3    5 1   
    10    3   14 1   
    11    4   15 1   
    12    5    6 1   
    13    5    7 2   
    14    6   16 1   
    15    6   17 1   
    16    6   18 1   
    17    7   19 1   
    18    7   20 1   
    19    8    9 1   
    20    8   21 1   
    21    8   22 1   
    22    9   10 1   
    23    9   11 1   
    24    9   23 1   
    25   10   24 1   
    26   10   25 1   
    27   10   26 1   
    28   11   27 1   
    29   11   28 1   
    30   11   29 1   
@<TRIPOS>SUBSTRUCTURE
     1 17U         1 TEMP              0 ****  ****    0 ROOT
