@<TRIPOS>MOLECULE
17U
   31    30     1     0     0
SMALL
bcc


@<TRIPOS>ATOM
      1 N3          0.0200   -0.2170   -0.0890 nz        1 17U     -0.834600
      2 C11         1.5030    0.0230   -0.0080 c3        1 17U      0.111500
      3 C16         1.9590    0.1420    1.4770 c3        1 17U      0.179300
      4 O6          1.2970   -0.8980    2.1860 oh        1 17U     -0.641800
      5 C17         3.4540    0.0540    1.5670 c2        1 17U     -0.207400
      6 C23         4.0750   -1.2160    1.1160 c3        1 17U     -0.071900
      7 C18         4.1710    1.0710    2.0560 c2        1 17U     -0.139000
      8 C12         1.9160    1.2700   -0.7830 c3        1 17U     -0.114400
      9 C13         1.5350    1.2520   -2.2560 c3        1 17U     -0.076700
     10 C15         2.1100    2.4850   -2.9290 c3        1 17U     -0.100600
     11 C14         2.0200    0.0020   -2.9590 c3        1 17U     -0.100600
     12 H12        -0.4850    0.6150    0.2250 hn        1 17U      0.463133
     13 H13         1.9940   -0.8940   -0.4580 hx        1 17U      0.120700
     14 H14         1.5890    1.1230    1.8990 h1        1 17U      0.070700
     15 H15         1.9010   -1.2550    2.8510 ho        1 17U      0.459000
     16 H16         4.2550   -1.1880    0.0110 hc        1 17U      0.057033
     17 H17         5.0600   -1.3810    1.6200 hc        1 17U      0.057033
     18 H18         3.4140   -2.0890    1.3440 hc        1 17U      0.057033
     19 H19         3.7200    2.0140    2.3960 ha        1 17U      0.138500
     20 H20         5.2660    1.0180    2.1500 ha        1 17U      0.138500
     21 H21         3.0360    1.3430   -0.6910 hc        1 17U      0.087200
     22 H22         1.4840    2.1870   -0.2990 hc        1 17U      0.087200
     23 H23         0.4130    1.3070   -2.3500 hc        1 17U      0.029700
     24 H24         3.2270    2.4570   -2.9110 hc        1 17U      0.050367
     25 H25         1.7680    3.4120   -2.4080 hc        1 17U      0.050367
     26 H26         1.7750    2.5310   -3.9930 hc        1 17U      0.050367
     27 H27         3.1080   -0.1620   -2.7690 hc        1 17U      0.050367
     28 H28         1.4580   -0.9000   -2.6140 hc        1 17U      0.050367
     29 H29         1.8690    0.1000   -4.0620 hc        1 17U      0.050367
     30 H2         -0.2230   -1.0050    0.5260 hn        1 17U      0.463133
     31 H33        -0.2400   -0.4280   -1.0560 hn        1 17U      0.463133
@<TRIPOS>BOND
     1    1    2 1   
     2    1   12 1   
     3    1   30 1   
     4    1   31 1   
     5    2    3 1   
     6    2    8 1   
     7    2   13 1   
     8    3    4 1   
     9    3    5 1   
    10    3   14 1   
    11    4   15 1   
    12    5    6 1   
    13    5    7 2   
    14    6   16 1   
    15    6   17 1   
    16    6   18 1   
    17    7   19 1   
    18    7   20 1   
    19    8    9 1   
    20    8   21 1   
    21    8   22 1   
    22    9   10 1   
    23    9   11 1   
    24    9   23 1   
    25   10   24 1   
    26   10   25 1   
    27   10   26 1   
    28   11   27 1   
    29   11   28 1   
    30   11   29 1   
@<TRIPOS>SUBSTRUCTURE
     1 17U         1 TEMP              0 ****  ****    0 ROOT
