@<TRIPOS>MOLECULE
17U
   31    30     1     0     0
SMALL
bcc


@<TRIPOS>ATOM
      1 N3          0.0140   -0.1930   -0.0780 n4        1 17U     -0.834600
      2 C11         1.5000    0.0290   -0.0050 c3        1 17U      0.111500
      3 C16         1.9670    0.1380    1.4780 c3        1 17U      0.179300
      4 O6          1.2970   -0.8980    2.1860 oh        1 17U     -0.641800
      5 C17         3.4610    0.0330    1.5590 c2        1 17U     -0.207400
      6 C23         4.0660   -1.2400    1.0970 c3        1 17U     -0.071900
      7 C18         4.1920    1.0400    2.0490 c2        1 17U     -0.139000
      8 C12         1.9230    1.2750   -0.7780 c3        1 17U     -0.114400
      9 C13         1.5340    1.2660   -2.2490 c3        1 17U     -0.076700
     10 C15         2.1200    2.4950   -2.9210 c3        1 17U     -0.100600
     11 C14         1.9990    0.0130   -2.9590 c3        1 17U     -0.100600
     12 H12        -0.4790    0.6440    0.2410 hn        1 17U      0.463133
     13 H13         1.9780   -0.8920   -0.4610 hx        1 17U      0.120700
     14 H14         1.6090    1.1210    1.9050 h1        1 17U      0.070700
     15 H15         1.9030   -1.2660    2.8440 ho        1 17U      0.459000
     16 H16         3.3980   -2.1070    1.3250 hc        1 17U      0.057033
     17 H17         5.0520   -1.4180    1.5940 hc        1 17U      0.057033
     18 H18         4.2390   -1.2080   -0.0090 hc        1 17U      0.057033
     19 H19         3.7520    1.9860    2.3970 ha        1 17U      0.138500
     20 H20         5.2870    0.9750    2.1370 ha        1 17U      0.138500
     21 H21         1.5050    2.1950   -0.2890 hc        1 17U      0.087200
     22 H22         3.0450    1.3340   -0.6930 hc        1 17U      0.087200
     23 H23         0.4110    1.3350   -2.3360 hc        1 17U      0.029700
     24 H24         1.7920    3.4240   -2.3950 hc        1 17U      0.050367
     25 H25         3.2360    2.4530   -2.9100 hc        1 17U      0.050367
     26 H26         1.7780    2.5490   -3.9830 hc        1 17U      0.050367
     27 H27         1.8430    0.1170   -4.0610 hc        1 17U      0.050367
     28 H28         1.4280   -0.8830   -2.6140 hc        1 17U      0.050367
     29 H29         3.0870   -0.1650   -2.7760 hc        1 17U      0.050367
     30 H2         -0.2340   -0.9800    0.5350 hn        1 17U      0.463133
     31 H33        -0.2540   -0.3980   -1.0440 hn        1 17U      0.463133
@<TRIPOS>BOND
     1    1    2 1   
     2    1   12 1   
     3    1   30 1   
     4    1   31 1   
     5    2    3 1   
     6    2    8 1   
     7    2   13 1   
     8    3    4 1   
     9    3    5 1   
    10    3   14 1   
    11    4   15 1   
    12    5    6 1   
    13    5    7 2   
    14    6   16 1   
    15    6   17 1   
    16    6   18 1   
    17    7   19 1   
    18    7   20 1   
    19    8    9 1   
    20    8   21 1   
    21    8   22 1   
    22    9   10 1   
    23    9   11 1   
    24    9   23 1   
    25   10   24 1   
    26   10   25 1   
    27   10   26 1   
    28   11   27 1   
    29   11   28 1   
    30   11   29 1   
@<TRIPOS>SUBSTRUCTURE
     1 17U         1 TEMP              0 ****  ****    0 ROOT
