@<TRIPOS>MOLECULE
17V
   44    47     1     0     0
SMALL
bcc


@<TRIPOS>ATOM
      1 C1          0.2940    0.4020    0.4640 c3        1 17V     -0.110600
      2 C2          1.7370    0.0160    0.1430 c3        1 17V      0.074000
      3 C3          2.4960   -0.2350    1.4450 c3        1 17V     -0.110600
      4 N4          1.8190   -1.1180   -0.7820 na        1 17V     -0.033400
      5 C5          2.4880   -1.1600   -2.0370 cc        1 17V      0.454000
      6 N6          2.3920   -2.4270   -2.5390 nd        1 17V     -0.651000
      7 C7          1.6660   -3.1150   -1.5640 cd        1 17V      0.507900
      8 N8          1.3230   -2.3290   -0.5000 nc        1 17V     -0.498800
      9 C9          3.1620   -0.0650   -2.6920 cc        1 17V     -0.117600
     10 C10         4.2870   -0.2410   -3.4890 cd        1 17V     -0.108000
     11 C11         4.7090    0.9820   -4.0790 cd        1 17V     -0.051300
     12 C12         3.8840    2.0470   -3.7020 cc        1 17V     -0.147100
     13 S13         2.6600    1.5340   -2.6800 ss        1 17V      0.100200
     14 C14         4.0730    3.3910   -4.1660 ca        1 17V      0.093000
     15 C15         3.8120    4.4970   -3.3320 ca        1 17V     -0.126000
     16 C16         4.0280    5.7940   -3.7670 ca        1 17V     -0.094000
     17 C17         4.5220    6.0300   -5.0630 ca        1 17V     -0.215600
     18 C18         4.7880    4.9450   -5.9170 ca        1 17V     -0.044000
     19 C19         4.5480    3.6380   -5.4760 ca        1 17V      0.113100
     20 O20         4.6080    2.6470   -6.4310 os        1 17V     -0.325900
     21 C21         5.6340    1.6520   -6.3130 c3        1 17V      0.138400
     22 C22         5.9120    1.1320   -4.9160 c3        1 17V     -0.060100
     23 C23         4.7900    7.3520   -5.6010 c         1 17V      0.579700
     24 O24         5.3780    7.6860   -6.6190 o         1 17V     -0.421100
     25 N25         4.2500    8.5390   -4.8080 nz        1 17V     -0.764400
     26 H1          0.3050    1.3180    1.1020 hc        1 17V      0.057033
     27 H2         -0.2200   -0.4170    1.0240 hc        1 17V      0.057033
     28 H3         -0.2860    0.6160   -0.4650 hc        1 17V      0.057033
     29 H4          2.2310    0.8830   -0.3980 h1        1 17V      0.043700
     30 H5          2.0310   -1.0710    2.0220 hc        1 17V      0.057033
     31 H6          3.5650   -0.4890    1.2470 hc        1 17V      0.057033
     32 H7          2.4560    0.6930    2.0640 hc        1 17V      0.057033
     33 H8          1.4010   -4.1750   -1.6520 h5        1 17V      0.083100
     34 H9          4.7840   -1.2030   -3.6550 ha        1 17V      0.190000
     35 H10         3.4330    4.3190   -2.3120 ha        1 17V      0.163000
     36 H11         3.8200    6.6160   -3.0670 ha        1 17V      0.122000
     37 H12         5.1610    5.1130   -6.9430 ha        1 17V      0.183000
     38 H13         5.2350    0.8350   -6.9790 h1        1 17V      0.073200
     39 H14         6.5760    2.0770   -6.7540 h1        1 17V      0.073200
     40 H15         6.4370    0.1420   -5.0170 hc        1 17V      0.075200
     41 H16         6.6230    1.8330   -4.3950 hc        1 17V      0.075200
     42 H17         4.4150    9.4080   -5.3310 hn        1 17V      0.465467
     43 H18         4.7240    8.5970   -3.9030 hn        1 17V      0.465467
     44 H253        3.2460    8.4210   -4.6510 hn        1 17V      0.465467
@<TRIPOS>BOND
     1    1    2 1   
     2    1   26 1   
     3    1   27 1   
     4    1   28 1   
     5    2    3 1   
     6    2    4 1   
     7    2   29 1   
     8    3   30 1   
     9    3   31 1   
    10    3   32 1   
    11    4    5 1   
    12    4    8 1   
    13    5    6 2   
    14    5    9 1   
    15    6    7 1   
    16    7    8 2   
    17    7   33 1   
    18    9   10 2   
    19    9   13 1   
    20   10   11 1   
    21   10   34 1   
    22   11   12 2   
    23   11   22 1   
    24   12   13 1   
    25   12   14 1   
    26   14   15 ar  
    27   14   19 ar  
    28   15   16 ar  
    29   15   35 1   
    30   16   17 ar  
    31   16   36 1   
    32   17   18 ar  
    33   17   23 1   
    34   18   19 ar  
    35   18   37 1   
    36   19   20 1   
    37   20   21 1   
    38   21   22 1   
    39   21   38 1   
    40   21   39 1   
    41   22   40 1   
    42   22   41 1   
    43   23   24 2   
    44   23   25 1   
    45   25   42 1   
    46   25   43 1   
    47   25   44 1   
@<TRIPOS>SUBSTRUCTURE
     1 17V         1 TEMP              0 ****  ****    0 ROOT
