@<TRIPOS>MOLECULE
17V
   44    47     1     0     0
SMALL
bcc


@<TRIPOS>ATOM
      1 C1          0.3000    0.4060    0.4720 c3        1 17V     -0.110600
      2 C2          1.7440    0.0230    0.1520 c3        1 17V      0.074000
      3 C3          2.5040   -0.2220    1.4540 c3        1 17V     -0.110600
      4 N4          1.8290   -1.1150   -0.7700 na        1 17V     -0.033400
      5 C5          2.4980   -1.1590   -2.0250 cc        1 17V      0.454000
      6 N6          2.4050   -2.4280   -2.5220 nd        1 17V     -0.651000
      7 C7          1.6810   -3.1150   -1.5440 cd        1 17V      0.507900
      8 N8          1.3370   -2.3250   -0.4830 nc        1 17V     -0.498800
      9 C9          3.1680   -0.0650   -2.6830 cc        1 17V     -0.117600
     10 C10         4.2930   -0.2410   -3.4810 cd        1 17V     -0.108000
     11 C11         4.7120    0.9810   -4.0750 cd        1 17V     -0.051300
     12 C12         3.8850    2.0450   -3.7020 cc        1 17V     -0.147100
     13 S13         2.6620    1.5330   -2.6770 ss        1 17V      0.100200
     14 C14         4.0700    3.3880   -4.1710 ca        1 17V      0.093000
     15 C15         3.8060    4.4960   -3.3410 ca        1 17V     -0.126000
     16 C16         4.0180    5.7930   -3.7800 ca        1 17V     -0.094000
     17 C17         4.5110    6.0260   -5.0770 ca        1 17V     -0.215600
     18 C18         4.7800    4.9380   -5.9270 ca        1 17V     -0.044000
     19 C19         4.5440    3.6320   -5.4820 ca        1 17V      0.113100
     20 O20         4.6060    2.6370   -6.4340 os        1 17V     -0.325900
     21 C21         5.6340    1.6460   -6.3120 c3        1 17V      0.138400
     22 C22         5.9140    1.1310   -4.9130 c3        1 17V     -0.060100
     23 C23         4.7760    7.3460   -5.6200 c         1 17V      0.579700
     24 O24         5.3630    7.6780   -6.6390 o         1 17V     -0.421100
     25 N25         4.2290    8.5340   -4.8320 n4        1 17V     -0.764400
     26 H1         -0.2800    0.6150   -0.4580 hc        1 17V      0.057033
     27 H2         -0.2120   -0.4120    1.0340 hc        1 17V      0.057033
     28 H3          0.3100    1.3250    1.1060 hc        1 17V      0.057033
     29 H4          2.2360    0.8890   -0.3920 h1        1 17V      0.043700
     30 H5          2.0410   -1.0570    2.0340 hc        1 17V      0.057033
     31 H6          3.5740   -0.4740    1.2570 hc        1 17V      0.057033
     32 H7          2.4620    0.7090    2.0700 hc        1 17V      0.057033
     33 H8          1.4190   -4.1760   -1.6290 h5        1 17V      0.083100
     34 H9          4.7930   -1.2020   -3.6430 ha        1 17V      0.190000
     35 H10         3.4270    4.3210   -2.3190 ha        1 17V      0.163000
     36 H11         3.8080    6.6170   -3.0830 ha        1 17V      0.122000
     37 H12         5.1520    5.1030   -6.9540 ha        1 17V      0.183000
     38 H13         5.2380    0.8250   -6.9750 h1        1 17V      0.073200
     39 H14         6.5750    2.0720   -6.7540 h1        1 17V      0.073200
     40 H15         6.6230    1.8360   -4.3950 hc        1 17V      0.075200
     41 H16         6.4420    0.1430   -5.0110 hc        1 17V      0.075200
     42 H17         4.7020    8.5980   -3.9280 hn        1 17V      0.465467
     43 H18         4.3910    9.4010   -5.3590 hn        1 17V      0.465467
     44 H253        3.2250    8.4130   -4.6760 hn        1 17V      0.465467
@<TRIPOS>BOND
     1    1    2 1   
     2    1   26 1   
     3    1   27 1   
     4    1   28 1   
     5    2    3 1   
     6    2    4 1   
     7    2   29 1   
     8    3   30 1   
     9    3   31 1   
    10    3   32 1   
    11    4    5 1   
    12    4    8 1   
    13    5    6 2   
    14    5    9 1   
    15    6    7 1   
    16    7    8 2   
    17    7   33 1   
    18    9   10 2   
    19    9   13 1   
    20   10   11 1   
    21   10   34 1   
    22   11   12 2   
    23   11   22 1   
    24   12   13 1   
    25   12   14 1   
    26   14   15 ar  
    27   14   19 ar  
    28   15   16 ar  
    29   15   35 1   
    30   16   17 ar  
    31   16   36 1   
    32   17   18 ar  
    33   17   23 1   
    34   18   19 ar  
    35   18   37 1   
    36   19   20 1   
    37   20   21 1   
    38   21   22 1   
    39   21   38 1   
    40   21   39 1   
    41   22   40 1   
    42   22   41 1   
    43   23   24 2   
    44   23   25 1   
    45   25   42 1   
    46   25   43 1   
    47   25   44 1   
@<TRIPOS>SUBSTRUCTURE
     1 17V         1 TEMP              0 ****  ****    0 ROOT
