@<TRIPOS>MOLECULE
17V
   43    38     1     0     0
SMALL
bcc


@<TRIPOS>ATOM
      1 C1          2.6440    2.7010    4.8930 c3        1 17V     -0.226000
      2 C2          2.5990    2.3800    3.3510 c3        1 17V      0.050000
      3 C3          3.8850    2.9190    2.6720 c3        1 17V     -0.226000
      4 N4          1.4450    3.0140    2.7650 n3        1 17V     -0.143000
      5 C5          0.6110    2.4610    1.8670 c1        1 17V      0.032000
      6 N6         -0.4220    3.3220    1.6680 n2        1 17V     -0.144000
      7 C7         -0.2220    4.4010    2.4430 c1        1 17V     -0.165000
      8 N8          0.9310    4.2180    3.1250 n2        1 17V     -0.085000
      9 C9          0.8360    1.1520    1.1260 c1        1 17V     -0.334000
     10 C10        -0.0230    1.7400   -0.0140 c1        1 17V     -0.092500
     11 C11        -0.4560    0.5530   -0.9810 c1        1 17V     -0.092500
     12 C12         0.1630   -0.8120   -0.4070 c1        1 17V     -0.334000
     13 S13         0.9610   -0.4630    0.8870 ss        1 17V      0.614000
     14 C14        -0.5600   -2.1430   -1.0540 c1        1 17V     -0.008000
     15 C15         0.2550   -3.2970   -1.2890 c1        1 17V     -0.104500
     16 C16         0.0540   -4.0680   -2.4110 c1        1 17V     -0.104500
     17 C17        -0.9470   -3.7230   -3.3260 c1        1 17V     -0.105000
     18 C18        -1.7270   -2.6200   -3.1050 c1        1 17V     -0.115000
     19 C19        -1.5150   -1.8120   -1.9250 c1        1 17V      0.065000
     20 O20        -2.6350   -1.3970   -1.2810 os        1 17V     -0.219000
     21 C21        -2.6860   -0.2600   -1.2650 c3        1 17V     -0.009000
     22 C22        -1.5450    0.2980   -1.9320 c2        1 17V     -0.133000
     23 C23        -1.8540   -4.9570   -3.6380 c2        1 17V      0.344000
     24 O24        -1.6370   -5.9920   -3.1180 o         1 17V     -0.369000
     25 N25        -3.0460   -4.7940   -4.4570 n         1 17V     -0.433000
     26 H1          1.8140    2.4360    5.2980 hc        1 17V      0.092333
     27 H2          3.3610    2.2230    5.2970 hc        1 17V      0.092333
     28 H3          2.7770    3.6450    5.0210 hc        1 17V      0.092333
     29 H4          2.5380    1.3620    3.2140 h1        1 17V      0.100000
     30 H5          3.8250    3.8700    2.5840 hc        1 17V      0.092333
     31 H6          4.6700    2.6900    3.2220 hc        1 17V      0.092333
     32 H7          3.9780    2.5230    1.8020 hc        1 17V      0.092333
     33 H8         -0.8140    5.1910    2.5040 DU        1 17V      0.190500
     34 H9         -0.3040    2.6820   -0.0970 DU        1 17V      0.190500
     35 H10         0.9770   -3.5480   -0.6290 ha        1 17V      0.151500
     36 H11         0.6130   -4.8570   -2.5690 ha        1 17V      0.151500
     37 H12        -2.4240   -2.3810   -3.7400 ha        1 17V      0.149000
     38 H13        -2.7020    0.0560   -0.3150 h1        1 17V      0.094000
     39 H14        -3.5330    0.0450   -1.7340 h1        1 17V      0.094000
     40 H15        -1.2280   -0.3430   -2.6310 ha        1 17V      0.101500
     41 H16        -1.8100    1.1670   -2.3740 ha        1 17V      0.101500
     42 H17        -2.9660   -4.6550   -5.3600 hn        1 17V      0.227500
     43 H18        -3.8790   -4.9330   -4.0870 hn        1 17V      0.227500
@<TRIPOS>BOND
     1    1    2 1   
     2    1   26 1   
     3    1   27 1   
     4    1   28 1   
     5    2    3 1   
     6    2    4 1   
     7    2   29 1   
     8    3   30 1   
     9    3   31 1   
    10    3   32 1   
    11    4    5 1   
    12    4    8 1   
    13    5    6 1   
    14    6    7 1   
    15    7    8 1   
    16    9   10 1   
    17    9   13 1   
    18   10   11 1   
    19   11   12 1   
    20   12   13 1   
    21   14   19 1   
    22   15   16 1   
    23   15   35 1   
    24   16   36 1   
    25   17   18 1   
    26   17   23 1   
    27   18   37 1   
    28   19   20 1   
    29   20   21 1   
    30   21   22 1   
    31   21   38 1   
    32   21   39 1   
    33   22   40 1   
    34   22   41 1   
    35   23   24 1   
    36   23   25 1   
    37   25   42 1   
    38   25   43 1   
@<TRIPOS>SUBSTRUCTURE
     1 17V         1 TEMP              0 ****  ****    0 ROOT
