@<TRIPOS>MOLECULE
17V
   44    47     1     0     0
SMALL
bcc


@<TRIPOS>ATOM
      1 C1          0.3020    0.4010    0.4700 c3        1 17V     -0.110600
      2 C2          1.7440    0.0150    0.1440 c3        1 17V      0.074000
      3 C3          2.5070   -0.2390    1.4430 c3        1 17V     -0.110600
      4 N4          1.8210   -1.1190   -0.7830 na        1 17V     -0.033400
      5 C5          2.4890   -1.1600   -2.0390 cc        1 17V      0.454000
      6 N6          2.3900   -2.4260   -2.5420 nd        1 17V     -0.651000
      7 C7          1.6650   -3.1150   -1.5670 cd        1 17V      0.507900
      8 N8          1.3240   -2.3290   -0.5020 nc        1 17V     -0.498800
      9 C9          3.1640   -0.0650   -2.6930 cc        1 17V     -0.117600
     10 C10         4.2890   -0.2420   -3.4900 cd        1 17V     -0.108000
     11 C11         4.7120    0.9810   -4.0790 cd        1 17V     -0.051300
     12 C12         3.8880    2.0460   -3.7020 cc        1 17V     -0.147100
     13 S13         2.6630    1.5340   -2.6810 ss        1 17V      0.100200
     14 C14         4.0780    3.3910   -4.1660 ca        1 17V      0.093000
     15 C15         3.8170    4.4970   -3.3320 ca        1 17V     -0.126000
     16 C16         4.0330    5.7940   -3.7660 ca        1 17V     -0.094000
     17 C17         4.5280    6.0300   -5.0610 ca        1 17V     -0.215600
     18 C18         4.7940    4.9450   -5.9160 ca        1 17V     -0.044000
     19 C19         4.5540    3.6380   -5.4760 ca        1 17V      0.113100
     20 O20         4.6140    2.6470   -6.4310 os        1 17V     -0.325900
     21 C21         5.6390    1.6520   -6.3130 c3        1 17V      0.138400
     22 C22         5.9160    1.1310   -4.9160 c3        1 17V     -0.060100
     23 C23         4.7970    7.3520   -5.5990 c         1 17V      0.579700
     24 O24         5.3860    7.6860   -6.6170 o         1 17V     -0.421100
     25 N25         4.2560    8.5390   -4.8060 n4        1 17V     -0.764400
     26 H1          0.3160    1.3170    1.1080 hc        1 17V      0.057033
     27 H2         -0.2110   -0.4180    1.0300 hc        1 17V      0.057033
     28 H3         -0.2810    0.6160   -0.4570 hc        1 17V      0.057033
     29 H4          2.2360    0.8820   -0.3970 h1        1 17V      0.043700
     30 H5          2.0430   -1.0760    2.0200 hc        1 17V      0.057033
     31 H6          3.5740   -0.4940    1.2410 hc        1 17V      0.057033
     32 H7          2.4690    0.6880    2.0630 hc        1 17V      0.057033
     33 H8          1.3980   -4.1740   -1.6570 h5        1 17V      0.083100
     34 H9          4.7860   -1.2040   -3.6560 ha        1 17V      0.190000
     35 H10         3.4370    4.3190   -2.3110 ha        1 17V      0.163000
     36 H11         3.8250    6.6160   -3.0650 ha        1 17V      0.122000
     37 H12         5.1680    5.1130   -6.9410 ha        1 17V      0.183000
     38 H13         5.2400    0.8350   -6.9790 h1        1 17V      0.073200
     39 H14         6.5810    2.0770   -6.7520 h1        1 17V      0.073200
     40 H15         6.6260    1.8310   -4.3940 hc        1 17V      0.075200
     41 H16         6.4400    0.1410   -5.0170 hc        1 17V      0.075200
     42 H17         4.7290    8.5970   -3.9010 hn        1 17V      0.465467
     43 H18         3.2510    8.4210   -4.6510 hn        1 17V      0.465467
     44 H253        4.4210    9.4080   -5.3290 hn        1 17V      0.465467
@<TRIPOS>BOND
     1    1    2 1   
     2    1   26 1   
     3    1   27 1   
     4    1   28 1   
     5    2    3 1   
     6    2    4 1   
     7    2   29 1   
     8    3   30 1   
     9    3   31 1   
    10    3   32 1   
    11    4    5 1   
    12    4    8 1   
    13    5    6 2   
    14    5    9 1   
    15    6    7 1   
    16    7    8 2   
    17    7   33 1   
    18    9   10 2   
    19    9   13 1   
    20   10   11 1   
    21   10   34 1   
    22   11   12 2   
    23   11   22 1   
    24   12   13 1   
    25   12   14 1   
    26   14   15 ar  
    27   14   19 ar  
    28   15   16 ar  
    29   15   35 1   
    30   16   17 ar  
    31   16   36 1   
    32   17   18 ar  
    33   17   23 1   
    34   18   19 ar  
    35   18   37 1   
    36   19   20 1   
    37   20   21 1   
    38   21   22 1   
    39   21   38 1   
    40   21   39 1   
    41   22   40 1   
    42   22   41 1   
    43   23   24 2   
    44   23   25 1   
    45   25   42 1   
    46   25   43 1   
    47   25   44 1   
@<TRIPOS>SUBSTRUCTURE
     1 17V         1 TEMP              0 ****  ****    0 ROOT
