@<TRIPOS>MOLECULE
17V
   43    46     1     0     0
SMALL
bcc


@<TRIPOS>ATOM
      1 C1          4.2140   -2.8510   -1.0690 c3        1 17V     -0.108100
      2 C2          3.9290   -1.8790    0.0750 c3        1 17V      0.070000
      3 C3          4.5440   -2.4210    1.3650 c3        1 17V     -0.108100
      4 N4          4.3720   -0.5150   -0.2270 na        1 17V     -0.043400
      5 C5          3.5700    0.6610   -0.2630 cc        1 17V      0.491000
      6 N6          4.3790    1.7280   -0.5230 nd        1 17V     -0.669000
      7 C7          5.6530    1.1590   -0.6340 cd        1 17V      0.498900
      8 N8          5.6520   -0.1930   -0.4550 nc        1 17V     -0.517800
      9 C9          2.1440    0.7240   -0.0510 cc        1 17V     -0.171600
     10 C10         1.5190    1.7820    0.5940 cd        1 17V     -0.092000
     11 C11         0.1030    1.6160    0.6250 cd        1 17V     -0.098300
     12 C12        -0.2890    0.4370   -0.0030 cc        1 17V     -0.061100
     13 S13         1.0260   -0.4020   -0.6070 ss        1 17V      0.068200
     14 C14        -1.6650    0.0230   -0.1240 ca        1 17V     -0.009000
     15 C15        -2.0420   -1.3210    0.0070 ca        1 17V     -0.123000
     16 C16        -3.3800   -1.6980   -0.0650 ca        1 17V     -0.114000
     17 C17        -4.3710   -0.7330   -0.2710 ca        1 17V     -0.125600
     18 C18        -4.0210    0.6110   -0.4280 ca        1 17V     -0.087000
     19 C19        -2.6720    0.9850   -0.3560 ca        1 17V      0.112100
     20 O20        -2.3550    2.2910   -0.6900 os        1 17V     -0.331900
     21 C21        -1.8800    3.1350    0.3610 c3        1 17V      0.141400
     22 C22        -0.8360    2.5380    1.2890 c3        1 17V     -0.048100
     23 C23        -5.8160   -1.0930   -0.3590 c         1 17V      0.669700
     24 O24        -6.5980   -0.4990   -1.1290 o         1 17V     -0.602100
     25 N25        -6.2830   -2.1030    0.4470 n         1 17V     -0.674000
     26 H1          5.3130   -2.9730   -1.2220 hc        1 17V      0.052700
     27 H2          3.7750   -3.8440   -0.8070 hc        1 17V      0.052700
     28 H3          3.7570   -2.4970   -2.0230 hc        1 17V      0.052700
     29 H4          2.8050   -1.8090    0.2180 h1        1 17V      0.060700
     30 H5          4.3280   -1.7480    2.2280 hc        1 17V      0.052700
     31 H6          4.1000   -3.4250    1.5730 hc        1 17V      0.052700
     32 H7          5.6500   -2.5320    1.2640 hc        1 17V      0.052700
     33 H8          6.5500    1.7480   -0.8490 h5        1 17V      0.071100
     34 H9          2.0390    2.6440    1.0220 ha        1 17V      0.174000
     35 H10        -1.2670   -2.0870    0.1720 ha        1 17V      0.138000
     36 H11        -3.6430   -2.7630    0.0250 ha        1 17V      0.138000
     37 H12        -4.7950    1.3670   -0.6370 ha        1 17V      0.172000
     38 H13        -1.4540    4.0050   -0.2130 h1        1 17V      0.056200
     39 H14        -2.7640    3.4760    0.9640 h1        1 17V      0.056200
     40 H15        -1.3590    1.9760    2.1120 hc        1 17V      0.062200
     41 H16        -0.2730    3.3850    1.7670 hc        1 17V      0.062200
     42 H17        -5.6990   -2.5410    1.1090 hn        1 17V      0.313000
     43 H18        -7.2440   -2.3370    0.4220 hn        1 17V      0.313000
@<TRIPOS>BOND
     1    1    2 1   
     2    1   26 1   
     3    1   27 1   
     4    1   28 1   
     5    2    3 1   
     6    2    4 1   
     7    2   29 1   
     8    3   30 1   
     9    3   31 1   
    10    3   32 1   
    11    4    5 1   
    12    4    8 1   
    13    5    6 2   
    14    5    9 1   
    15    6    7 1   
    16    7    8 2   
    17    7   33 1   
    18    9   10 2   
    19    9   13 1   
    20   10   11 1   
    21   10   34 1   
    22   11   12 2   
    23   11   22 1   
    24   12   13 1   
    25   12   14 1   
    26   14   15 ar  
    27   14   19 ar  
    28   15   16 ar  
    29   15   35 1   
    30   16   17 ar  
    31   16   36 1   
    32   17   18 ar  
    33   17   23 1   
    34   18   19 ar  
    35   18   37 1   
    36   19   20 1   
    37   20   21 1   
    38   21   22 1   
    39   21   38 1   
    40   21   39 1   
    41   22   40 1   
    42   22   41 1   
    43   23   24 2   
    44   23   25 1   
    45   25   42 1   
    46   25   43 1   
@<TRIPOS>SUBSTRUCTURE
     1 17V         1 TEMP              0 ****  ****    0 ROOT
