@<TRIPOS>MOLECULE
17W
   33    35     1     0     0
SMALL
bcc


@<TRIPOS>ATOM
      1 C19         0.0590    0.5360    0.0090 ca        1 17W     -0.178500
      2 C18         1.4460    0.3740   -0.0010 ca        1 17W     -0.097000
      3 C17         2.0770   -0.3890    0.9780 ca        1 17W     -0.162000
      4 C16         1.3210   -1.0010    1.9800 ca        1 17W     -0.097000
      5 C15        -0.0610   -0.8560    2.0110 ca        1 17W     -0.178500
      6 C14        -0.6900   -0.0820    1.0160 ca        1 17W      0.123100
      7 O13        -2.0640    0.0040    1.1410 os        1 17W     -0.328900
      8 C12        -2.7390    0.7520    0.1230 c3        1 17W      0.138400
      9 C11        -4.2140    0.6730    0.4570 c3        1 17W     -0.022300
     10 S10        -4.9750   -0.1500   -0.9170 ss        1 17W     -0.143300
     11 C8         -6.6340   -0.0870   -0.5570 cc        1 17W      0.403700
     12 N9         -7.5790   -0.6940   -1.4130 na        1 17W     -0.267300
     13 C2         -8.8350   -0.4690   -0.8420 ca        1 17W     -0.069200
     14 N7         -7.2080    0.5110    0.5120 nd        1 17W     -0.584100
     15 C3         -8.5910    0.2940    0.3710 ca        1 17W      0.077400
     16 C4         -9.6760    0.6790    1.1710 ca        1 17W     -0.073000
     17 C5        -10.9510    0.3120    0.7670 ca        1 17W     -0.151000
     18 C6        -11.1750   -0.4260   -0.4090 ca        1 17W     -0.114000
     19 C1        -10.1310   -0.8280   -1.2300 ca        1 17W     -0.134000
     20 H1         -0.4210    1.1420   -0.7700 ha        1 17W      0.142500
     21 H2          2.0400    0.8570   -0.7910 ha        1 17W      0.133500
     22 H3          3.1700   -0.5110    0.9630 ha        1 17W      0.134000
     23 H4          1.8200   -1.6040    2.7530 ha        1 17W      0.133500
     24 H5         -0.6700   -1.3310    2.7920 ha        1 17W      0.142500
     25 H6         -2.3790    1.8150    0.1430 h1        1 17W      0.054200
     26 H7         -2.5150    0.3010   -0.8840 h1        1 17W      0.054200
     27 H8         -4.3800    0.1040    1.4060 h1        1 17W      0.102700
     28 H9         -4.6450    1.6940    0.5970 h1        1 17W      0.102700
     29 H10        -7.3850   -1.2040   -2.2310 hn        1 17W      0.311700
     30 H12        -9.5110    1.2560    2.0910 ha        1 17W      0.147000
     31 H13       -11.8170    0.6050    1.3810 ha        1 17W      0.133000
     32 H14       -12.2070   -0.6910   -0.6830 ha        1 17W      0.132000
     33 H15       -10.3140   -1.4040   -2.1470 ha        1 17W      0.135000
@<TRIPOS>BOND
     1    1    2 ar  
     2    1    6 ar  
     3    1   20 1   
     4    2    3 ar  
     5    2   21 1   
     6    3    4 ar  
     7    3   22 1   
     8    4    5 ar  
     9    4   23 1   
    10    5    6 ar  
    11    5   24 1   
    12    6    7 1   
    13    7    8 1   
    14    8    9 1   
    15    8   25 1   
    16    8   26 1   
    17    9   10 1   
    18    9   27 1   
    19    9   28 1   
    20   10   11 1   
    21   11   12 1   
    22   11   14 2   
    23   12   13 1   
    24   12   29 1   
    25   13   15 ar  
    26   13   19 ar  
    27   14   15 1   
    28   15   16 ar  
    29   16   17 ar  
    30   16   30 1   
    31   17   18 ar  
    32   17   31 1   
    33   18   19 ar  
    34   18   32 1   
    35   19   33 1   
@<TRIPOS>SUBSTRUCTURE
     1 17W         1 TEMP              0 ****  ****    0 ROOT
