@<TRIPOS>MOLECULE
17W
   33    35     1     0     0
SMALL
bcc


@<TRIPOS>ATOM
      1 C19        -4.7590    0.7870    0.5330 ca        1 17W     -0.178500
      2 C18        -6.1310    0.9890    0.3720 ca        1 17W     -0.097000
      3 C17        -6.8920    0.1090   -0.3930 ca        1 17W     -0.162000
      4 C16        -6.2810   -0.9870   -1.0090 ca        1 17W     -0.097000
      5 C15        -4.9170   -1.2090   -0.8640 ca        1 17W     -0.178500
      6 C14        -4.1570   -0.3130   -0.0870 ca        1 17W      0.123100
      7 O13        -2.8130   -0.6270   -0.0030 os        1 17W     -0.328900
      8 C12        -2.0030    0.2860    0.7480 c3        1 17W      0.138400
      9 C11        -0.5880   -0.2490    0.6670 c3        1 17W     -0.022300
     10 S10         0.3550    1.0090   -0.1530 ss        1 17W     -0.143300
     11 C8          1.9480    0.4220   -0.0920 cc        1 17W      0.403700
     12 N9          3.0030    1.1410   -0.6970 na        1 17W     -0.267300
     13 C2          4.1680    0.4020   -0.4740 ca        1 17W     -0.069200
     14 N7          2.3690   -0.7170    0.5040 nd        1 17W     -0.584100
     15 C3          3.7580   -0.7680    0.2870 ca        1 17W      0.077400
     16 C4          4.7230   -1.7110    0.6690 ca        1 17W     -0.073000
     17 C5          6.0410   -1.4860    0.3030 ca        1 17W     -0.151000
     18 C6          6.4250   -0.3500   -0.4320 ca        1 17W     -0.114000
     19 C1          5.5050    0.6080   -0.8320 ca        1 17W     -0.134000
     20 H1         -4.1750    1.4900    1.1420 ha        1 17W      0.142500
     21 H2         -6.6100    1.8520    0.8580 ha        1 17W      0.133500
     22 H3         -7.9710    0.2750   -0.5150 ha        1 17W      0.134000
     23 H4         -6.8830   -1.6820   -1.6130 ha        1 17W      0.133500
     24 H5         -4.4220   -2.0660   -1.3410 ha        1 17W      0.142500
     25 H6         -2.0860    1.3150    0.3000 h1        1 17W      0.054200
     26 H7         -2.3620    0.3120    1.8110 h1        1 17W      0.054200
     27 H8         -0.1810   -0.4500    1.6870 h1        1 17W      0.102700
     28 H9         -0.5550   -1.2100    0.0950 h1        1 17W      0.102700
     29 H10         2.9230    1.9800   -1.2050 hn        1 17W      0.311700
     30 H12         4.4310   -2.6010    1.2440 ha        1 17W      0.147000
     31 H13         6.8130   -2.2140    0.5940 ha        1 17W      0.133000
     32 H14         7.4860   -0.2210   -0.6970 ha        1 17W      0.132000
     33 H15         5.8120    1.4920   -1.4050 ha        1 17W      0.135000
@<TRIPOS>BOND
     1    1    2 ar  
     2    1    6 ar  
     3    1   20 1   
     4    2    3 ar  
     5    2   21 1   
     6    3    4 ar  
     7    3   22 1   
     8    4    5 ar  
     9    4   23 1   
    10    5    6 ar  
    11    5   24 1   
    12    6    7 1   
    13    7    8 1   
    14    8    9 1   
    15    8   25 1   
    16    8   26 1   
    17    9   10 1   
    18    9   27 1   
    19    9   28 1   
    20   10   11 1   
    21   11   12 1   
    22   11   14 2   
    23   12   13 1   
    24   12   29 1   
    25   13   15 ar  
    26   13   19 ar  
    27   14   15 1   
    28   15   16 ar  
    29   16   17 ar  
    30   16   30 1   
    31   17   18 ar  
    32   17   31 1   
    33   18   19 ar  
    34   18   32 1   
    35   19   33 1   
@<TRIPOS>SUBSTRUCTURE
     1 17W         1 TEMP              0 ****  ****    0 ROOT
