@<TRIPOS>MOLECULE
17W
   33    27     1     0     0
SMALL
bcc


@<TRIPOS>ATOM
      1 C19         3.5120    1.5030    3.4480 c1        1 17W     -0.204000
      2 C18         4.6330    1.0960    4.1480 c1        1 17W     -0.129000
      3 C17         4.8940   -0.2620    4.3180 c1        1 17W     -0.129000
      4 C16         4.0260   -1.2080    3.7830 c1        1 17W     -0.129000
      5 C15         2.9030   -0.7990    3.0810 c1        1 17W     -0.129000
      6 C14         2.6440    0.5570    2.9130 c1        1 17W      0.078000
      7 O13         1.4680    0.9750    2.2380 o         1 17W     -0.212000
      8 C12         1.6320    1.1420    0.8330 c3        1 17W     -0.012000
      9 C11         0.2730    1.3740    0.1930 c3        1 17W     -0.283000
     10 S10         0.2880    0.7400   -1.5000 ss        1 17W      0.263000
     11 C8         -1.3390    0.2570   -1.9540 c2        1 17W     -0.147000
     12 N9         -1.4370   -0.6280   -2.9950 n2        1 17W     -0.190500
     13 C2         -2.7400   -0.8130   -3.2600 c1        1 17W     -0.043000
     14 N7         -2.5900    0.6110   -1.5860 n2        1 17W     -0.190500
     15 C3         -3.4610   -0.0420   -2.3830 c1        1 17W     -0.043000
     16 C4         -4.8710   -0.0570   -2.4220 c1        1 17W     -0.103500
     17 C5         -5.5350   -0.8530   -3.3480 c1        1 17W     -0.129000
     18 C6         -4.8050   -1.6390   -4.2420 c1        1 17W     -0.129000
     19 C1         -3.4110   -1.6250   -4.2040 c1        1 17W     -0.103500
     20 H1          3.3310    2.4510    3.3300 ha        1 17W      0.135000
     21 H2          5.2560    1.7760    4.5330 ha        1 17W      0.136000
     22 H3          5.6860   -0.5500    4.8120 ha        1 17W      0.136000
     23 H4          4.2140   -2.1830    3.9040 ha        1 17W      0.136000
     24 H5          2.3020   -1.4550    2.7110 ha        1 17W      0.136000
     25 H6          2.2100    1.9130    0.6600 h1        1 17W      0.093500
     26 H7          2.0490    0.3150    0.4410 h1        1 17W      0.093500
     27 H8          0.0860    2.2970    0.1820 h1        1 17W      0.142000
     28 H9         -0.3840    0.9270    0.6880 h1        1 17W      0.142000
     29 H10        -0.7510   -1.0500   -3.3950 DU        1 17W      0.262000
     30 H12        -5.3830    0.4960   -1.7940 ha        1 17W      0.141000
     31 H13        -6.5490   -0.8640   -3.3750 ha        1 17W      0.136000
     32 H14        -5.2730   -2.2030   -4.8980 ha        1 17W      0.136000
     33 H15        -2.8770   -2.1990   -4.8580 ha        1 17W      0.141000
@<TRIPOS>BOND
     1    1    6 1   
     2    1   20 1   
     3    2    3 1   
     4    2   21 1   
     5    3   22 1   
     6    4    5 1   
     7    4   23 1   
     8    5   24 1   
     9    7    8 1   
    10    8    9 1   
    11    8   25 1   
    12    8   26 1   
    13    9   10 1   
    14    9   27 1   
    15    9   28 1   
    16   10   11 1   
    17   11   12 1   
    18   11   14 1   
    19   12   13 1   
    20   13   19 1   
    21   14   15 1   
    22   15   16 1   
    23   16   30 1   
    24   17   18 1   
    25   17   31 1   
    26   18   32 1   
    27   19   33 1   
@<TRIPOS>SUBSTRUCTURE
     1 17W         1 TEMP              0 ****  ****    0 ROOT
