@<TRIPOS>MOLECULE
17W
   33    35     1     0     0
SMALL
bcc


@<TRIPOS>ATOM
      1 C19         0.0580    0.5410    0.0060 ca        1 17W     -0.178500
      2 C18         1.4450    0.3850   -0.0090 ca        1 17W     -0.097000
      3 C17         2.0820   -0.3910    0.9560 ca        1 17W     -0.162000
      4 C16         1.3300   -1.0200    1.9510 ca        1 17W     -0.097000
      5 C15        -0.0520   -0.8800    1.9870 ca        1 17W     -0.178500
      6 C14        -0.6860   -0.0940    1.0060 ca        1 17W      0.123100
      7 O13        -2.0610   -0.0160    1.1350 os        1 17W     -0.328900
      8 C12        -2.7410    0.7490    0.1320 c3        1 17W      0.138400
      9 C11        -4.2140    0.6610    0.4690 c3        1 17W     -0.022300
     10 S10        -4.9790   -0.1280   -0.9220 ss        1 17W     -0.143300
     11 C8         -6.6370   -0.0740   -0.5550 cc        1 17W      0.403700
     12 N9         -7.5860   -0.6570   -1.4230 na        1 17W     -0.267300
     13 C2         -8.8400   -0.4460   -0.8440 ca        1 17W     -0.069200
     14 N7         -7.2080    0.4980    0.5310 nd        1 17W     -0.584100
     15 C3         -8.5910    0.2860    0.3880 ca        1 17W      0.077400
     16 C4         -9.6740    0.6520    1.2000 ca        1 17W     -0.073000
     17 C5        -10.9510    0.2970    0.7900 ca        1 17W     -0.151000
     18 C6        -11.1780   -0.4110   -0.4030 ca        1 17W     -0.114000
     19 C1        -10.1370   -0.7930   -1.2370 ca        1 17W     -0.134000
     20 H1         -0.4260    1.1580   -0.7630 ha        1 17W      0.142500
     21 H2          2.0360    0.8820   -0.7930 ha        1 17W      0.133500
     22 H3          3.1740   -0.5080    0.9370 ha        1 17W      0.134000
     23 H4          1.8330   -1.6330    2.7140 ha        1 17W      0.133500
     24 H5         -0.6580   -1.3690    2.7630 ha        1 17W      0.142500
     25 H6         -2.3820    1.8120    0.1690 h1        1 17W      0.053700
     26 H7         -2.5190    0.3160   -0.8830 h1        1 17W      0.053700
     27 H8         -4.3770    0.0690    1.4050 h1        1 17W      0.102700
     28 H9         -4.6440    1.6780    0.6360 h1        1 17W      0.102700
     29 H10        -7.3940   -1.1460   -2.2550 hn        1 17W      0.311700
     30 H12        -9.5060    1.2050    2.1350 ha        1 17W      0.147000
     31 H13       -11.8140    0.5740    1.4140 ha        1 17W      0.133000
     32 H14       -12.2120   -0.6680   -0.6810 ha        1 17W      0.132000
     33 H15       -10.3230   -1.3450   -2.1670 ha        1 17W      0.135000
@<TRIPOS>BOND
     1    1    2 ar  
     2    1    6 ar  
     3    1   20 1   
     4    2    3 ar  
     5    2   21 1   
     6    3    4 ar  
     7    3   22 1   
     8    4    5 ar  
     9    4   23 1   
    10    5    6 ar  
    11    5   24 1   
    12    6    7 1   
    13    7    8 1   
    14    8    9 1   
    15    8   25 1   
    16    8   26 1   
    17    9   10 1   
    18    9   27 1   
    19    9   28 1   
    20   10   11 1   
    21   11   12 1   
    22   11   14 2   
    23   12   13 1   
    24   12   29 1   
    25   13   15 ar  
    26   13   19 ar  
    27   14   15 1   
    28   15   16 ar  
    29   16   17 ar  
    30   16   30 1   
    31   17   18 ar  
    32   17   31 1   
    33   18   19 ar  
    34   18   32 1   
    35   19   33 1   
@<TRIPOS>SUBSTRUCTURE
     1 17W         1 TEMP              0 ****  ****    0 ROOT
