@<TRIPOS>MOLECULE
17X
   90    97     1     0     0
SMALL
bcc


@<TRIPOS>ATOM
      1 CAI        -0.4950    0.5920    1.1000 ca        1 17X     -0.118000
      2 CAJ         0.8630    0.8640    1.2560 ca        1 17X     -0.130500
      3 CAK         1.6110    0.1700    2.2060 ca        1 17X     -0.122000
      4 CAL         0.9980   -0.7970    3.0030 ca        1 17X     -0.130500
      5 CAM        -0.3620   -1.0660    2.8540 ca        1 17X     -0.118000
      6 CAH        -1.1150   -0.3720    1.9020 ca        1 17X     -0.122300
      7 CAG        -2.5940   -0.6100    1.7640 c3        1 17X      0.093600
      8 NAD        -2.9930   -1.9730    1.5760 na        1 17X     -0.152300
      9 CAC        -3.2390   -2.9110    2.5870 ca        1 17X     -0.074200
     10 CAF        -3.2710   -2.8090    3.9840 ca        1 17X     -0.137000
     11 CAE        -3.5840   -3.9530    4.7030 ca        1 17X     -0.116000
     12 CAX        -3.8600   -5.1760    4.0660 ca        1 17X     -0.152000
     13 CAW        -3.8360   -5.3010    2.6850 ca        1 17X     -0.073000
     14 CAV        -3.5230   -4.1680    1.9190 ca        1 17X      0.075400
     15 NAY        -3.4240   -4.0000    0.5290 nc        1 17X     -0.592100
     16 CAB        -3.1010   -2.6910    0.3400 cd        1 17X      0.576700
     17 NAA        -2.9490   -2.0060   -0.9090 nh        1 17X     -0.669600
     18 CAR        -1.5480   -1.9060   -1.3180 c3        1 17X      0.171800
     19 CAQ        -1.3760   -1.1030   -2.6060 c3        1 17X     -0.077400
     20 CAN        -3.8150   -2.5390   -1.9600 c3        1 17X      0.171800
     21 CAO        -3.7070   -1.7300   -3.2510 c3        1 17X     -0.077400
     22 CAP        -2.2580   -1.6610   -3.7130 c3        1 17X     -0.108700
     23 CAS        -2.1560   -0.7800   -4.9290 c         1 17X      0.635100
     24 OAT        -2.3820    0.4250   -5.0380 o         1 17X     -0.535000
     25 OAU        -1.7540   -1.4680   -6.0440 os        1 17X     -0.441900
     26 CBP        -1.5780   -0.6990   -7.2410 c3        1 17X      0.119400
     27 CBO        -0.9960   -1.6270   -8.3310 c3        1 17X      0.065000
     28 CBQ        -1.8070   -2.9400   -8.4380 c3        1 17X     -0.069700
     29 CBR        -1.2950   -3.8090   -9.5780 c3        1 17X     -0.076400
     30 CBS        -2.1560   -5.0610   -9.7440 c3        1 17X      0.163800
     31 NBV        -3.5660   -4.7630   -9.9020 n3        1 17X     -0.821200
     32 CBT        -4.0930   -3.9050   -8.8600 c3        1 17X      0.163800
     33 CBU        -3.2800   -2.6260   -8.6590 c3        1 17X     -0.076400
     34 NBH         0.4250   -1.8260   -8.1870 na        1 17X     -0.162300
     35 CBD         1.1080   -2.5730   -7.2150 ca        1 17X     -0.059200
     36 CBE         0.6860   -3.3470   -6.1260 ca        1 17X     -0.130000
     37 CAZ         1.6610   -3.9730   -5.3630 ca        1 17X     -0.121000
     38 CBA         3.0300   -3.8390   -5.6520 ca        1 17X     -0.155000
     39 CBB         3.4770   -3.0640   -6.7110 ca        1 17X     -0.071000
     40 CBC         2.5230   -2.4140   -7.5070 ca        1 17X      0.058400
     41 NBF         2.6820   -1.5690   -8.6210 nc        1 17X     -0.551100
     42 CBG         1.4330   -1.2320   -9.0040 cd        1 17X      0.462400
     43 CBI         1.1280   -0.3380  -10.1290 ca        1 17X     -0.118900
     44 CBJ         1.5660    0.9910  -10.0830 ca        1 17X     -0.101000
     45 CBK         1.3050    1.8420  -11.1560 ca        1 17X     -0.134500
     46 CBL         0.6170    1.3710  -12.2740 ca        1 17X     -0.115000
     47 CBM         0.1920    0.0430  -12.3250 ca        1 17X     -0.134500
     48 CBN         0.4480   -0.8150  -11.2560 ca        1 17X     -0.101000
     49 H1         -1.0810    1.1400    0.3450 ha        1 17X      0.139500
     50 H2          1.3440    1.6270    0.6260 ha        1 17X      0.136000
     51 H3          2.6830    0.3840    2.3270 ha        1 17X      0.135000
     52 H4          1.5860   -1.3480    3.7520 ha        1 17X      0.136000
     53 H5         -0.8460   -1.8300    3.4840 ha        1 17X      0.139500
     54 H6         -3.0940   -0.2400    2.7100 h1        1 17X      0.075200
     55 H7         -2.9930   -0.0060    0.8970 h1        1 17X      0.075200
     56 H8         -3.0610   -1.8570    4.4890 ha        1 17X      0.136000
     57 H9         -3.6190   -3.9050    5.8020 ha        1 17X      0.132000
     58 H10        -4.1020   -6.0530    4.6840 ha        1 17X      0.133000
     59 H11        -4.0550   -6.2600    2.1930 ha        1 17X      0.147000
     60 H12        -1.0880   -2.9260   -1.4630 h1        1 17X      0.056450
     61 H13        -0.9890   -1.3820   -0.4890 h1        1 17X      0.056450
     62 H14        -0.2980   -1.1530   -2.9100 hc        1 17X      0.065700
     63 H15        -1.6370   -0.0260   -2.4300 hc        1 17X      0.065700
     64 H16        -4.8750   -2.4890   -1.5830 h1        1 17X      0.056450
     65 H17        -3.5780   -3.6180   -2.1920 h1        1 17X      0.056450
     66 H18        -4.1000   -0.6910   -3.0980 hc        1 17X      0.065700
     67 H19        -4.3370   -2.2290   -4.0310 hc        1 17X      0.065700
     68 H20        -1.9040   -2.6960   -3.9860 hc        1 17X      0.082700
     69 H21        -2.5760   -0.3070   -7.5700 h1        1 17X      0.066200
     70 H22        -0.9000    0.1680   -7.0260 h1        1 17X      0.066200
     71 H23        -1.1400   -1.0630   -9.3080 h1        1 17X      0.082700
     72 H24        -1.7040   -3.5070   -7.4710 hc        1 17X      0.070700
     73 H25        -0.2420   -4.1380   -9.3820 hc        1 17X      0.051700
     74 H26        -1.3040   -3.2190  -10.5310 hc        1 17X      0.051700
     75 H27        -1.9620   -5.7390   -8.8600 h1        1 17X      0.030200
     76 H28        -1.8240   -5.6090  -10.6710 h1        1 17X      0.030200
     77 H29        -4.0940   -5.6140   -9.9440 hn        1 17X      0.364800
     78 H31        -4.1540   -4.4380   -7.8640 h1        1 17X      0.030200
     79 H32        -5.1420   -3.6230   -9.1580 h1        1 17X      0.030200
     80 H33        -3.6980   -2.0940   -7.7660 hc        1 17X      0.051700
     81 H34        -3.3970   -1.9580   -9.5520 hc        1 17X      0.051700
     82 H35        -0.3800   -3.4360   -5.8730 ha        1 17X      0.145000
     83 H36         1.3560   -4.5920   -4.5050 ha        1 17X      0.129000
     84 H37         3.7610   -4.3610   -5.0160 ha        1 17X      0.132000
     85 H38         4.5480   -2.9540   -6.9290 ha        1 17X      0.147000
     86 H39         2.1220    1.3560   -9.2060 ha        1 17X      0.145500
     87 H40         1.6480    2.8870  -11.1200 ha        1 17X      0.138000
     88 H41         0.4140    2.0460  -13.1200 ha        1 17X      0.135000
     89 H42        -0.3410   -0.3320  -13.2110 ha        1 17X      0.138000
     90 H43         0.1290   -1.8670  -11.3030 ha        1 17X      0.145500
@<TRIPOS>BOND
     1    1    2 ar  
     2    1    6 ar  
     3    1   49 1   
     4    2    3 ar  
     5    2   50 1   
     6    3    4 ar  
     7    3   51 1   
     8    4    5 ar  
     9    4   52 1   
    10    5    6 ar  
    11    5   53 1   
    12    6    7 1   
    13    7    8 1   
    14    7   54 1   
    15    7   55 1   
    16    8    9 1   
    17    8   16 1   
    18    9   10 ar  
    19    9   14 ar  
    20   10   11 ar  
    21   10   56 1   
    22   11   12 ar  
    23   11   57 1   
    24   12   13 ar  
    25   12   58 1   
    26   13   14 ar  
    27   13   59 1   
    28   14   15 1   
    29   15   16 2   
    30   16   17 1   
    31   17   18 1   
    32   17   20 1   
    33   18   19 1   
    34   18   60 1   
    35   18   61 1   
    36   19   22 1   
    37   19   62 1   
    38   19   63 1   
    39   20   21 1   
    40   20   64 1   
    41   20   65 1   
    42   21   22 1   
    43   21   66 1   
    44   21   67 1   
    45   22   23 1   
    46   22   68 1   
    47   23   24 2   
    48   23   25 1   
    49   25   26 1   
    50   26   27 1   
    51   26   69 1   
    52   26   70 1   
    53   27   28 1   
    54   27   34 1   
    55   27   71 1   
    56   28   29 1   
    57   28   33 1   
    58   28   72 1   
    59   29   30 1   
    60   29   73 1   
    61   29   74 1   
    62   30   31 1   
    63   30   75 1   
    64   30   76 1   
    65   31   32 1   
    66   31   77 1   
    67   32   33 1   
    68   32   78 1   
    69   32   79 1   
    70   33   80 1   
    71   33   81 1   
    72   34   35 1   
    73   34   42 1   
    74   35   36 ar  
    75   35   40 ar  
    76   36   37 ar  
    77   36   82 1   
    78   37   38 ar  
    79   37   83 1   
    80   38   39 ar  
    81   38   84 1   
    82   39   40 ar  
    83   39   85 1   
    84   40   41 1   
    85   41   42 2   
    86   42   43 1   
    87   43   44 ar  
    88   43   48 ar  
    89   44   45 ar  
    90   44   86 1   
    91   45   46 ar  
    92   45   87 1   
    93   46   47 ar  
    94   46   88 1   
    95   47   48 ar  
    96   47   89 1   
    97   48   90 1   
@<TRIPOS>SUBSTRUCTURE
     1 17X         1 TEMP              0 ****  ****    0 ROOT
