@<TRIPOS>MOLECULE
17X
   90    97     1     0     0
SMALL
bcc


@<TRIPOS>ATOM
      1 CAI         5.1090    2.7450    0.3180 ca        1 17X     -0.118000
      2 CAJ         5.0610    3.8140   -0.5770 ca        1 17X     -0.130500
      3 CAK         5.8620    3.8070   -1.7190 ca        1 17X     -0.122000
      4 CAL         6.7140    2.7300   -1.9650 ca        1 17X     -0.130500
      5 CAM         6.7690    1.6640   -1.0690 ca        1 17X     -0.118000
      6 CAH         5.9670    1.6670    0.0770 ca        1 17X     -0.122300
      7 CAG         6.0540    0.5510    1.0820 c3        1 17X      0.093600
      8 NAD         5.8840   -0.7730    0.5630 na        1 17X     -0.151300
      9 CAC         6.8890   -1.5850    0.0200 ca        1 17X     -0.074200
     10 CAF         8.2770   -1.4260   -0.0900 ca        1 17X     -0.137000
     11 CAE         8.9960   -2.4610   -0.6680 ca        1 17X     -0.116000
     12 CAX         8.3690   -3.6310   -1.1310 ca        1 17X     -0.152000
     13 CAW         6.9980   -3.8120   -1.0320 ca        1 17X     -0.073000
     14 CAV         6.2320   -2.7890   -0.4530 ca        1 17X      0.075400
     15 NAY         4.8490   -2.6950   -0.2260 nc        1 17X     -0.592100
     16 CAB         4.6560   -1.4880    0.3730 cd        1 17X      0.576700
     17 NAA         3.4230   -0.9490    0.8620 nh        1 17X     -0.669600
     18 CAR         2.8030   -0.0300   -0.0930 c3        1 17X      0.171800
     19 CAQ         1.5320    0.6110    0.4610 c3        1 17X     -0.077400
     20 CAN         2.5040   -1.9780    1.3460 c3        1 17X      0.171800
     21 CAO         1.2400   -1.3720    1.9530 c3        1 17X     -0.077400
     22 CAP         0.5580   -0.4520    0.9490 c3        1 17X     -0.108700
     23 CAS        -0.6280    0.2120    1.5950 c         1 17X      0.635100
     24 OAT        -0.6580    1.0180    2.5260 o         1 17X     -0.535000
     25 OAU        -1.8160   -0.1750    1.0340 os        1 17X     -0.441900
     26 CBP        -3.0000    0.4460    1.5520 c3        1 17X      0.119400
     27 CBO        -4.2030   -0.0240    0.7050 c3        1 17X      0.065000
     28 CBQ        -4.2130   -1.5640    0.5510 c3        1 17X     -0.069700
     29 CBR        -5.4530   -2.0330   -0.1950 c3        1 17X     -0.076400
     30 CBS        -5.5090   -3.5580   -0.2630 c3        1 17X      0.163800
     31 NBV        -5.4080   -4.1880    1.0390 n3        1 17X     -0.821200
     32 CBT        -4.2620   -3.7450    1.8060 c3        1 17X      0.163800
     33 CBU        -4.1620   -2.2240    1.9220 c3        1 17X     -0.076400
     34 NBH        -4.3130    0.6890   -0.5440 na        1 17X     -0.162300
     35 CBD        -3.4980    0.5880   -1.6810 ca        1 17X     -0.059200
     36 CBE        -2.3780   -0.1930   -1.9950 ca        1 17X     -0.130000
     37 CAZ        -1.8150   -0.0390   -3.2530 ca        1 17X     -0.121000
     38 CBA        -2.3320    0.8720   -4.1910 ca        1 17X     -0.155000
     39 CBB        -3.4260    1.6710   -3.9010 ca        1 17X     -0.071000
     40 CBC        -4.0250    1.5460   -2.6390 ca        1 17X      0.058400
     41 NBF        -5.1220    2.2220   -2.0750 nc        1 17X     -0.551100
     42 CBG        -5.2720    1.7040   -0.8380 cd        1 17X      0.462400
     43 CBI        -6.2980    2.1380    0.1190 ca        1 17X     -0.118900
     44 CBJ        -6.2850    3.4600    0.5810 ca        1 17X     -0.101000
     45 CBK        -7.2690    3.8910    1.4700 ca        1 17X     -0.134500
     46 CBL        -8.2660    3.0130    1.8930 ca        1 17X     -0.115000
     47 CBM        -8.2860    1.6990    1.4230 ca        1 17X     -0.134500
     48 CBN        -7.3060    1.2590    0.5350 ca        1 17X     -0.101000
     49 H1          4.4720    2.7530    1.2150 ha        1 17X      0.139500
     50 H2          4.3890    4.6620   -0.3810 ha        1 17X      0.136000
     51 H3          5.8210    4.6500   -2.4250 ha        1 17X      0.135000
     52 H4          7.3440    2.7210   -2.8660 ha        1 17X      0.136000
     53 H5          7.4430    0.8140   -1.2640 ha        1 17X      0.139500
     54 H6          7.0780    0.5970    1.5630 h1        1 17X      0.075200
     55 H7          5.2810    0.7120    1.8900 h1        1 17X      0.075200
     56 H8          8.7750   -0.5170    0.2730 ha        1 17X      0.136000
     57 H9         10.0880   -2.3670   -0.7680 ha        1 17X      0.132000
     58 H10         8.9870   -4.4210   -1.5830 ha        1 17X      0.133000
     59 H11         6.5140   -4.7310   -1.3930 ha        1 17X      0.147000
     60 H12         3.5510    0.7850   -0.3140 h1        1 17X      0.056450
     61 H13         2.5540   -0.5510   -1.0620 h1        1 17X      0.056450
     62 H14         1.7820    1.3030    1.3080 hc        1 17X      0.065950
     63 H15         1.0620    1.2180   -0.3550 hc        1 17X      0.065950
     64 H16         2.2000   -2.6890    0.5230 h1        1 17X      0.056450
     65 H17         3.0430   -2.5710    2.1360 h1        1 17X      0.056450
     66 H18         0.5510   -2.2080    2.2380 hc        1 17X      0.065950
     67 H19         1.4880   -0.7940    2.8810 hc        1 17X      0.065950
     68 H20         0.1990   -1.0600    0.0700 hc        1 17X      0.082700
     69 H21        -3.1390    0.1260    2.6190 h1        1 17X      0.066200
     70 H22        -2.8760    1.5600    1.5200 h1        1 17X      0.066200
     71 H23        -5.1220    0.2570    1.3130 h1        1 17X      0.082700
     72 H24        -3.2980   -1.8730   -0.0270 hc        1 17X      0.070700
     73 H25        -6.3700   -1.6470    0.3230 hc        1 17X      0.051700
     74 H26        -5.4540   -1.6400   -1.2440 hc        1 17X      0.051700
     75 H27        -6.4970   -3.8650   -0.7080 h1        1 17X      0.030200
     76 H28        -4.6960   -3.9080   -0.9670 h1        1 17X      0.030200
     77 H29        -5.3870   -5.1860    0.9360 hn        1 17X      0.364800
     78 H31        -4.3630   -4.1810    2.8400 h1        1 17X      0.030200
     79 H32        -3.2890   -4.1250    1.3710 h1        1 17X      0.030200
     80 H33        -3.1920   -1.9840    2.4290 hc        1 17X      0.051700
     81 H34        -4.9970   -1.8370    2.5620 hc        1 17X      0.051700
     82 H35        -1.9480   -0.8870   -1.2590 ha        1 17X      0.145000
     83 H36        -0.9380   -0.6440   -3.5270 ha        1 17X      0.129000
     84 H37        -1.8490    0.9510   -5.1770 ha        1 17X      0.132000
     85 H38        -3.8230    2.3890   -4.6340 ha        1 17X      0.147000
     86 H39        -5.5060    4.1550    0.2330 ha        1 17X      0.145500
     87 H40        -7.2590    4.9290    1.8340 ha        1 17X      0.138000
     88 H41        -9.0420    3.3570    2.5940 ha        1 17X      0.135000
     89 H42        -9.0780    1.0090    1.7480 ha        1 17X      0.138000
     90 H43        -7.3310    0.2290    0.1490 ha        1 17X      0.145500
@<TRIPOS>BOND
     1    1    2 ar  
     2    1    6 ar  
     3    1   49 1   
     4    2    3 ar  
     5    2   50 1   
     6    3    4 ar  
     7    3   51 1   
     8    4    5 ar  
     9    4   52 1   
    10    5    6 ar  
    11    5   53 1   
    12    6    7 1   
    13    7    8 1   
    14    7   54 1   
    15    7   55 1   
    16    8    9 1   
    17    8   16 1   
    18    9   10 ar  
    19    9   14 ar  
    20   10   11 ar  
    21   10   56 1   
    22   11   12 ar  
    23   11   57 1   
    24   12   13 ar  
    25   12   58 1   
    26   13   14 ar  
    27   13   59 1   
    28   14   15 1   
    29   15   16 2   
    30   16   17 1   
    31   17   18 1   
    32   17   20 1   
    33   18   19 1   
    34   18   60 1   
    35   18   61 1   
    36   19   22 1   
    37   19   62 1   
    38   19   63 1   
    39   20   21 1   
    40   20   64 1   
    41   20   65 1   
    42   21   22 1   
    43   21   66 1   
    44   21   67 1   
    45   22   23 1   
    46   22   68 1   
    47   23   24 2   
    48   23   25 1   
    49   25   26 1   
    50   26   27 1   
    51   26   69 1   
    52   26   70 1   
    53   27   28 1   
    54   27   34 1   
    55   27   71 1   
    56   28   29 1   
    57   28   33 1   
    58   28   72 1   
    59   29   30 1   
    60   29   73 1   
    61   29   74 1   
    62   30   31 1   
    63   30   75 1   
    64   30   76 1   
    65   31   32 1   
    66   31   77 1   
    67   32   33 1   
    68   32   78 1   
    69   32   79 1   
    70   33   80 1   
    71   33   81 1   
    72   34   35 1   
    73   34   42 1   
    74   35   36 ar  
    75   35   40 ar  
    76   36   37 ar  
    77   36   82 1   
    78   37   38 ar  
    79   37   83 1   
    80   38   39 ar  
    81   38   84 1   
    82   39   40 ar  
    83   39   85 1   
    84   40   41 1   
    85   41   42 2   
    86   42   43 1   
    87   43   44 ar  
    88   43   48 ar  
    89   44   45 ar  
    90   44   86 1   
    91   45   46 ar  
    92   45   87 1   
    93   46   47 ar  
    94   46   88 1   
    95   47   48 ar  
    96   47   89 1   
    97   48   90 1   
@<TRIPOS>SUBSTRUCTURE
     1 17X         1 TEMP              0 ****  ****    0 ROOT
