@<TRIPOS>MOLECULE
17X
   90    81     1     0     0
SMALL
bcc


@<TRIPOS>ATOM
      1 CAI        -6.6510   -0.1660    3.0900 c1        1 17X     -0.097000
      2 CAJ        -7.4700   -1.1440    2.5440 c1        1 17X     -0.123750
      3 CAK        -6.9880   -2.4410    2.3720 c1        1 17X     -0.123750
      4 CAL        -5.6960   -2.7540    2.7460 c1        1 17X     -0.123750
      5 CAM        -4.8740   -1.7750    3.2930 c1        1 17X     -0.123750
      6 CAH        -5.3530   -0.4800    3.4650 c1        1 17X     -0.089500
      7 CAG        -4.4130    0.6220    3.9730 c2        1 17X      0.027000
      8 NAD        -3.3270    0.0320    4.6590 n3        1 17X     -0.178000
      9 CAC        -3.5960   -0.7050    5.7800 c1        1 17X     -0.029000
     10 CAF        -4.8090   -1.0870    6.3940 c1        1 17X     -0.137000
     11 CAE        -4.7920   -1.8940    7.5270 c1        1 17X     -0.123750
     12 CAX        -3.5760   -2.3260    8.0570 c1        1 17X     -0.123750
     13 CAW        -2.3830   -1.9500    7.4540 c1        1 17X     -0.097000
     14 CAV        -2.3990   -1.1310    6.3040 c1        1 17X     -0.089500
     15 NAY        -1.3860   -0.6510    5.4960 n1        1 17X     -0.164000
     16 CAB        -1.9550    0.0640    4.4850 c1        1 17X      0.098000
     17 NAA        -1.3210    0.8090    3.4160 n2        1 17X     -0.201000
     18 CAR        -0.1090    1.1650    3.7900 c3        1 17X     -0.065000
     19 CAQ         0.6960    1.8830    2.7180 c3        1 17X     -0.155500
     20 CAN        -1.4060    0.1370    2.3160 c3        1 17X     -0.065000
     21 CAO        -0.6940    0.7780    1.1260 c3        1 17X     -0.155500
     22 CAP         0.8510    1.0930    1.3560 c3        1 17X     -0.099000
     23 CAS         1.5090    1.8260    0.2770 c2        1 17X      0.305000
     24 OAT         1.1880    2.9920    0.0400 o         1 17X     -0.345000
     25 OAU         2.4940    1.1650   -0.5490 os        1 17X     -0.282000
     26 CBP         2.5500    1.6520   -1.8870 c3        1 17X     -0.033000
     27 CBO         2.9920    0.5680   -2.7920 c3        1 17X      0.034000
     28 CBQ         4.5220    0.7430   -3.1220 c3        1 17X     -0.110000
     29 CBR         5.0820   -0.5750   -3.5260 c3        1 17X     -0.155000
     30 CBS         6.6070   -0.5380   -3.6930 c3        1 17X     -0.073000
     31 NBV         7.2910    0.0320   -2.5070 n3        1 17X     -0.300000
     32 CBT         6.7400    1.3420   -2.1010 c3        1 17X     -0.073000
     33 CBU         5.2140    1.3100   -1.9300 c3        1 17X     -0.155000
     34 NBH         2.2420    0.6230   -3.9910 n3        1 17X     -0.187000
     35 CBD         2.3680    1.2700   -5.1780 c1        1 17X     -0.026000
     36 CBE         3.3660    2.1400   -5.6880 c1        1 17X     -0.123750
     37 CAZ         3.2410    2.6650   -6.9610 c1        1 17X     -0.123750
     38 CBA         2.1280    2.3400   -7.7460 c1        1 17X     -0.123750
     39 CBB         1.1560    1.4950   -7.2510 c1        1 17X     -0.123750
     40 CBC         1.2840    0.9550   -5.9460 c1        1 17X     -0.076000
     41 NBF         0.4920    0.1120   -5.2280 n1        1 17X     -0.126000
     42 CBG         1.0790   -0.0940   -4.0240 c1        1 17X      0.061000
     43 CBI         0.0770   -1.0250   -3.2880 c1        1 17X     -0.033000
     44 CBJ         0.4830   -2.2780   -2.8570 c2        1 17X     -0.110000
     45 CBK        -0.4290   -3.1250   -2.1880 c1        1 17X     -0.134000
     46 CBL        -1.7350   -2.7000   -1.9620 c1        1 17X     -0.123750
     47 CBM        -2.1460   -1.4280   -2.4000 c1        1 17X     -0.123750
     48 CBN        -1.2470   -0.5950   -3.0580 c1        1 17X     -0.088000
     49 H1         -6.9980    0.7670    3.2140 ha        1 17X      0.141500
     50 H2         -8.3710   -0.9260    2.2830 ha        1 17X      0.136000
     51 H3         -7.5640   -3.1280    1.9890 ha        1 17X      0.136000
     52 H4         -5.3620   -3.6570    2.6270 ha        1 17X      0.136000
     53 H5         -3.9400   -2.0020    3.5630 ha        1 17X      0.136000
     54 H6         -4.9010    1.2140    4.5820 h4        1 17X      0.114500
     55 H7         -4.0730    1.1460    3.2040 h4        1 17X      0.114500
     56 H8         -5.6800   -0.7780    6.0140 ha        1 17X      0.136000
     57 H9         -5.6270   -2.1570    7.9500 ha        1 17X      0.136000
     58 H10        -3.5640   -2.9080    8.8740 ha        1 17X      0.136000
     59 H11        -1.5280   -2.2550    7.8270 ha        1 17X      0.141500
     60 H12         0.3850    0.3530    4.0620 h1        1 17X      0.095750
     61 H13        -0.1830    1.7460    4.5530 h1        1 17X      0.095750
     62 H14         1.5850    2.0630    3.0710 hc        1 17X      0.103750
     63 H15         0.2590    2.7390    2.5290 hc        1 17X      0.103750
     64 H16        -1.0210   -0.7530    2.4650 h1        1 17X      0.095750
     65 H17        -2.3570    0.0320    2.0880 h1        1 17X      0.095750
     66 H18        -0.7760    0.1590    0.3370 hc        1 17X      0.103750
     67 H19        -1.1560    1.6300    0.9060 hc        1 17X      0.103750
     68 H20         1.3960    0.2980    1.4340 hc        1 17X      0.125000
     69 H21         3.1720    2.3820   -1.9360 h1        1 17X      0.106000
     70 H22         1.6730    1.9570   -2.1570 h1        1 17X      0.106000
     71 H23         2.8520   -0.2820   -2.3670 h1        1 17X      0.139000
     72 H24         4.6160    1.3800   -3.8800 hc        1 17X      0.093000
     73 H25         4.6820   -0.8400   -4.3680 hc        1 17X      0.094250
     74 H26         4.8500   -1.2510   -2.8320 hc        1 17X      0.094250
     75 H27         6.9340   -1.4620   -3.8360 h1        1 17X      0.069000
     76 H28         6.8320    0.0080   -4.4900 h1        1 17X      0.069000
     77 H29         8.2120    0.1220   -2.6900 hn        1 17X      0.160000
     78 H31         7.1570    1.6130   -1.2350 h1        1 17X      0.069000
     79 H32         6.9690    2.0110   -2.7890 h1        1 17X      0.069000
     80 H33         4.8920    2.2240   -1.7820 hc        1 17X      0.094250
     81 H34         4.9900    0.7550   -1.1330 hc        1 17X      0.094250
     82 H35         4.1270    2.3620   -5.1520 ha        1 17X      0.136000
     83 H36         3.9260    3.2600   -7.3110 ha        1 17X      0.136000
     84 H37         2.0410    2.7050   -8.6310 ha        1 17X      0.136000
     85 H38         0.3760    1.2680   -7.8010 ha        1 17X      0.136000
     86 H39         1.4170   -2.5810   -3.0200 ha        1 17X      0.142000
     87 H40        -0.1430   -4.0150   -1.8820 ha        1 17X      0.138000
     88 H41        -2.3800   -3.2980   -1.4900 ha        1 17X      0.136000
     89 H42        -3.0860   -1.1220   -2.2370 ha        1 17X      0.136000
     90 H43        -1.5280    0.2730   -3.3560 ha        1 17X      0.149000
@<TRIPOS>BOND
     1    1    6 1   
     2    1   49 1   
     3    2    3 1   
     4    2   50 1   
     5    3   51 1   
     6    4    5 1   
     7    4   52 1   
     8    5   53 1   
     9    7    8 1   
    10    7   54 1   
    11    7   55 1   
    12    8    9 1   
    13    8   16 1   
    14    9   10 1   
    15   10   56 1   
    16   11   12 1   
    17   11   57 1   
    18   12   58 1   
    19   13   14 1   
    20   13   59 1   
    21   15   16 1   
    22   17   18 1   
    23   17   20 1   
    24   18   19 1   
    25   18   60 1   
    26   18   61 1   
    27   19   22 1   
    28   19   62 1   
    29   19   63 1   
    30   20   21 1   
    31   20   64 1   
    32   20   65 1   
    33   21   22 1   
    34   21   66 1   
    35   21   67 1   
    36   22   23 1   
    37   22   68 1   
    38   23   24 1   
    39   23   25 1   
    40   25   26 1   
    41   26   27 1   
    42   26   69 1   
    43   26   70 1   
    44   27   28 1   
    45   27   34 1   
    46   27   71 1   
    47   28   29 1   
    48   28   33 1   
    49   28   72 1   
    50   29   30 1   
    51   29   73 1   
    52   29   74 1   
    53   30   31 1   
    54   30   75 1   
    55   30   76 1   
    56   31   32 1   
    57   31   77 1   
    58   32   33 1   
    59   32   78 1   
    60   32   79 1   
    61   33   80 1   
    62   33   81 1   
    63   34   35 1   
    64   34   42 1   
    65   35   40 1   
    66   36   37 1   
    67   36   82 1   
    68   37   83 1   
    69   38   39 1   
    70   38   84 1   
    71   39   85 1   
    72   41   42 1   
    73   43   44 1   
    74   43   48 1   
    75   44   45 1   
    76   44   86 1   
    77   45   87 1   
    78   46   47 1   
    79   46   88 1   
    80   47   89 1   
    81   48   90 1   
@<TRIPOS>SUBSTRUCTURE
     1 17X         1 TEMP              0 ****  ****    0 ROOT
