@<TRIPOS>MOLECULE
17X
   90    97     1     0     0
SMALL
bcc


@<TRIPOS>ATOM
      1 CAI        -0.5290    0.6490    1.1010 ca        1 17X     -0.118000
      2 CAJ         0.8230    0.9500    1.2610 ca        1 17X     -0.130500
      3 CAK         1.5800    0.2790    2.2210 ca        1 17X     -0.122000
      4 CAL         0.9820   -0.6940    3.0230 ca        1 17X     -0.130500
      5 CAM        -0.3710   -0.9920    2.8690 ca        1 17X     -0.118000
      6 CAH        -1.1330   -0.3210    1.9080 ca        1 17X     -0.122300
      7 CAG        -2.6060   -0.5900    1.7650 c3        1 17X      0.093600
      8 NAD        -2.9760   -1.9620    1.5830 na        1 17X     -0.151300
      9 CAC        -3.2070   -2.8990    2.5980 ca        1 17X     -0.074200
     10 CAF        -3.2480   -2.7900    3.9940 ca        1 17X     -0.137000
     11 CAE        -3.5410   -3.9360    4.7190 ca        1 17X     -0.116000
     12 CAX        -3.7880   -5.1680    4.0870 ca        1 17X     -0.152000
     13 CAW        -3.7550   -5.3000    2.7080 ca        1 17X     -0.073000
     14 CAV        -3.4620   -4.1650    1.9370 ca        1 17X      0.075400
     15 NAY        -3.3600   -4.0030    0.5460 nc        1 17X     -0.592100
     16 CAB        -3.0630   -2.6880    0.3500 cd        1 17X      0.576700
     17 NAA        -2.9190   -2.0080   -0.9020 nh        1 17X     -0.669600
     18 CAR        -1.5190   -1.8840   -1.3060 c3        1 17X      0.171800
     19 CAQ        -1.3570   -1.0850   -2.5980 c3        1 17X     -0.077400
     20 CAN        -3.7720   -2.5620   -1.9520 c3        1 17X      0.171800
     21 CAO        -3.6740   -1.7580   -3.2480 c3        1 17X     -0.077400
     22 CAP        -2.2250   -1.6650   -3.7050 c3        1 17X     -0.108700
     23 CAS        -2.1350   -0.7890   -4.9250 c         1 17X      0.635100
     24 OAT        -2.3670    0.4150   -5.0380 o         1 17X     -0.535000
     25 OAU        -1.7400   -1.4800   -6.0410 os        1 17X     -0.441900
     26 CBP        -1.5780   -0.7160   -7.2420 c3        1 17X      0.119400
     27 CBO        -1.0090   -1.6480   -8.3350 c3        1 17X      0.065000
     28 CBQ        -1.8210   -2.9610   -8.4290 c3        1 17X     -0.069700
     29 CBR        -1.3250   -3.8320   -9.5730 c3        1 17X     -0.076400
     30 CBS        -2.1870   -5.0840   -9.7250 c3        1 17X      0.163800
     31 NBV        -3.5990   -4.7870   -9.8640 n7        1 17X     -0.821200
     32 CBT        -4.1130   -3.9270   -8.8170 c3        1 17X      0.163800
     33 CBU        -3.2970   -2.6480   -8.6300 c3        1 17X     -0.076400
     34 NBH         0.4140   -1.8470   -8.2080 na        1 17X     -0.162300
     35 CBD         1.1080   -2.5900   -7.2410 ca        1 17X     -0.059200
     36 CBE         0.6990   -3.3600   -6.1430 ca        1 17X     -0.130000
     37 CAZ         1.6810   -3.9830   -5.3900 ca        1 17X     -0.121000
     38 CBA         3.0470   -3.8520   -5.6950 ca        1 17X     -0.155000
     39 CBB         3.4820   -3.0820   -6.7630 ca        1 17X     -0.071000
     40 CBC         2.5190   -2.4340   -7.5510 ca        1 17X      0.058400
     41 NBF         2.6660   -1.5940   -8.6700 nc        1 17X     -0.551100
     42 CBG         1.4130   -1.2570   -9.0390 cd        1 17X      0.462400
     43 CBI         1.0950   -0.3670  -10.1640 ca        1 17X     -0.118900
     44 CBJ         1.5350    0.9620  -10.1280 ca        1 17X     -0.101000
     45 CBK         1.2620    1.8090  -11.2010 ca        1 17X     -0.134500
     46 CBL         0.5600    1.3350  -12.3090 ca        1 17X     -0.115000
     47 CBM         0.1330    0.0070  -12.3490 ca        1 17X     -0.134500
     48 CBN         0.4010   -0.8470  -11.2800 ca        1 17X     -0.101000
     49 H1         -1.1210    1.1790    0.3380 ha        1 17X      0.139500
     50 H2          1.2920    1.7170    0.6280 ha        1 17X      0.136000
     51 H3          2.6470    0.5150    2.3450 ha        1 17X      0.135000
     52 H4          1.5770   -1.2270    3.7790 ha        1 17X      0.136000
     53 H5         -0.8430   -1.7600    3.5040 ha        1 17X      0.139500
     54 H6         -3.1180   -0.2240    2.7060 h1        1 17X      0.075200
     55 H7         -3.0130    0.0010    0.8930 h1        1 17X      0.075200
     56 H8         -3.0610   -1.8300    4.4950 ha        1 17X      0.136000
     57 H9         -3.5820   -3.8820    5.8170 ha        1 17X      0.132000
     58 H10        -4.0140   -6.0460    4.7100 ha        1 17X      0.133000
     59 H11        -3.9520   -6.2660    2.2200 ha        1 17X      0.147000
     60 H12        -1.0400   -2.8960   -1.4430 h1        1 17X      0.056450
     61 H13        -0.9730   -1.3450   -0.4780 h1        1 17X      0.056450
     62 H14        -0.2780   -1.1170   -2.8970 hc        1 17X      0.065950
     63 H15        -1.6390   -0.0120   -2.4290 hc        1 17X      0.065950
     64 H16        -3.5130   -3.6380   -2.1780 h1        1 17X      0.056450
     65 H17        -4.8340   -2.5310   -1.5800 h1        1 17X      0.056450
     66 H18        -4.0870   -0.7260   -3.1010 hc        1 17X      0.065950
     67 H19        -4.2920   -2.2730   -4.0270 hc        1 17X      0.065950
     68 H20        -1.8510   -2.6950   -3.9710 hc        1 17X      0.082700
     69 H21        -2.5790   -0.3240   -7.5610 h1        1 17X      0.066200
     70 H22        -0.8970    0.1520   -7.0380 h1        1 17X      0.066200
     71 H23        -1.1640   -1.0870   -9.3120 h1        1 17X      0.082700
     72 H24        -1.7050   -3.5250   -7.4620 hc        1 17X      0.070700
     73 H25        -0.2690   -4.1600   -9.3910 hc        1 17X      0.051700
     74 H26        -1.3470   -3.2440  -10.5280 hc        1 17X      0.051700
     75 H27        -1.9820   -5.7600   -8.8420 h1        1 17X      0.030200
     76 H28        -1.8680   -5.6340  -10.6550 h1        1 17X      0.030200
     77 H29        -4.1280   -5.6390   -9.8970 hn        1 17X      0.364800
     78 H31        -4.1600   -4.4580   -7.8190 h1        1 17X      0.030200
     79 H32        -5.1660   -3.6460   -9.1010 h1        1 17X      0.030200
     80 H33        -3.4260   -1.9820   -9.5220 hc        1 17X      0.051700
     81 H34        -3.7030   -2.1140   -7.7320 hc        1 17X      0.051700
     82 H35        -0.3650   -3.4460   -5.8770 ha        1 17X      0.145000
     83 H36         1.3860   -4.5980   -4.5260 ha        1 17X      0.129000
     84 H37         3.7850   -4.3720   -5.0660 ha        1 17X      0.132000
     85 H38         4.5510   -2.9740   -6.9950 ha        1 17X      0.147000
     86 H39         2.1020    1.3290   -9.2590 ha        1 17X      0.145500
     87 H40         1.6070    2.8540  -11.1720 ha        1 17X      0.138000
     88 H41         0.3470    2.0060  -13.1540 ha        1 17X      0.135000
     89 H42        -0.4110   -0.3700  -13.2270 ha        1 17X      0.138000
     90 H43         0.0800   -1.8990  -11.3200 ha        1 17X      0.145500
@<TRIPOS>BOND
     1    1    2 ar  
     2    1    6 ar  
     3    1   49 1   
     4    2    3 ar  
     5    2   50 1   
     6    3    4 ar  
     7    3   51 1   
     8    4    5 ar  
     9    4   52 1   
    10    5    6 ar  
    11    5   53 1   
    12    6    7 1   
    13    7    8 1   
    14    7   54 1   
    15    7   55 1   
    16    8    9 1   
    17    8   16 1   
    18    9   10 ar  
    19    9   14 ar  
    20   10   11 ar  
    21   10   56 1   
    22   11   12 ar  
    23   11   57 1   
    24   12   13 ar  
    25   12   58 1   
    26   13   14 ar  
    27   13   59 1   
    28   14   15 1   
    29   15   16 2   
    30   16   17 1   
    31   17   18 1   
    32   17   20 1   
    33   18   19 1   
    34   18   60 1   
    35   18   61 1   
    36   19   22 1   
    37   19   62 1   
    38   19   63 1   
    39   20   21 1   
    40   20   64 1   
    41   20   65 1   
    42   21   22 1   
    43   21   66 1   
    44   21   67 1   
    45   22   23 1   
    46   22   68 1   
    47   23   24 2   
    48   23   25 1   
    49   25   26 1   
    50   26   27 1   
    51   26   69 1   
    52   26   70 1   
    53   27   28 1   
    54   27   34 1   
    55   27   71 1   
    56   28   29 1   
    57   28   33 1   
    58   28   72 1   
    59   29   30 1   
    60   29   73 1   
    61   29   74 1   
    62   30   31 1   
    63   30   75 1   
    64   30   76 1   
    65   31   32 1   
    66   31   77 1   
    67   32   33 1   
    68   32   78 1   
    69   32   79 1   
    70   33   80 1   
    71   33   81 1   
    72   34   35 1   
    73   34   42 1   
    74   35   36 ar  
    75   35   40 ar  
    76   36   37 ar  
    77   36   82 1   
    78   37   38 ar  
    79   37   83 1   
    80   38   39 ar  
    81   38   84 1   
    82   39   40 ar  
    83   39   85 1   
    84   40   41 1   
    85   41   42 2   
    86   42   43 1   
    87   43   44 ar  
    88   43   48 ar  
    89   44   45 ar  
    90   44   86 1   
    91   45   46 ar  
    92   45   87 1   
    93   46   47 ar  
    94   46   88 1   
    95   47   48 ar  
    96   47   89 1   
    97   48   90 1   
@<TRIPOS>SUBSTRUCTURE
     1 17X         1 TEMP              0 ****  ****    0 ROOT
