@<TRIPOS>MOLECULE
17X
   90    97     1     0     0
SMALL
bcc


@<TRIPOS>ATOM
      1 CAI        -0.5050    0.6090    1.1150 ca        1 17X     -0.117500
      2 CAJ         0.8490    0.8970    1.2770 ca        1 17X     -0.130500
      3 CAK         1.6010    0.2130    2.2330 ca        1 17X     -0.122000
      4 CAL         0.9940   -0.7580    3.0290 ca        1 17X     -0.130500
      5 CAM        -0.3620   -1.0440    2.8740 ca        1 17X     -0.117500
      6 CAH        -1.1180   -0.3600    1.9160 ca        1 17X     -0.122300
      7 CAG        -2.5930   -0.6150    1.7720 c3        1 17X      0.093600
      8 NAD        -2.9750   -1.9830    1.5820 na        1 17X     -0.151300
      9 CAC        -3.2140   -2.9240    2.5920 ca        1 17X     -0.074200
     10 CAF        -3.2540   -2.8230    3.9880 ca        1 17X     -0.137000
     11 CAE        -3.5560   -3.9710    4.7060 ca        1 17X     -0.116000
     12 CAX        -3.8140   -5.1970    4.0670 ca        1 17X     -0.152000
     13 CAW        -3.7820   -5.3220    2.6860 ca        1 17X     -0.073000
     14 CAV        -3.4800   -4.1850    1.9220 ca        1 17X      0.075400
     15 NAY        -3.3770   -4.0140    0.5320 nc        1 17X     -0.592100
     16 CAB        -3.0690   -2.7010    0.3450 cd        1 17X      0.576700
     17 NAA        -2.9190   -2.0150   -0.9030 nh        1 17X     -0.669600
     18 CAR        -1.5180   -1.9000   -1.3070 c3        1 17X      0.171800
     19 CAQ        -1.3500   -1.0940   -2.5940 c3        1 17X     -0.077400
     20 CAN        -3.7770   -2.5550   -1.9570 c3        1 17X      0.171800
     21 CAO        -3.6720   -1.7440   -3.2470 c3        1 17X     -0.077400
     22 CAP        -2.2230   -1.6600   -3.7050 c3        1 17X     -0.108700
     23 CAS        -2.1260   -0.7770   -4.9190 c         1 17X      0.635100
     24 OAT        -2.3480    0.4300   -5.0240 o         1 17X     -0.535000
     25 OAU        -1.7370   -1.4640   -6.0390 os        1 17X     -0.441900
     26 CBP        -1.5680   -0.6940   -7.2360 c3        1 17X      0.119400
     27 CBO        -1.0060   -1.6240   -8.3350 c3        1 17X      0.065000
     28 CBQ        -1.8290   -2.9300   -8.4370 c3        1 17X     -0.069700
     29 CBR        -1.3390   -3.7980   -9.5860 c3        1 17X     -0.076400
     30 CBS        -2.2110   -5.0420   -9.7460 c3        1 17X      0.163800
     31 NBV        -3.6210   -4.7330   -9.8830 n3        1 17X     -0.821200
     32 CBT        -4.1280   -3.8760   -8.8310 c3        1 17X      0.163800
     33 CBU        -3.3030   -2.6040   -8.6360 c3        1 17X     -0.076400
     34 NBH         0.4150   -1.8340   -8.2080 na        1 17X     -0.162300
     35 CBD         1.1020   -2.5900   -7.2450 ca        1 17X     -0.059200
     36 CBE         0.6870   -3.3630   -6.1530 ca        1 17X     -0.130000
     37 CAZ         1.6640   -3.9990   -5.4030 ca        1 17X     -0.121000
     38 CBA         3.0320   -3.8760   -5.7070 ca        1 17X     -0.155000
     39 CBB         3.4720   -3.1030   -6.7700 ca        1 17X     -0.071000
     40 CBC         2.5150   -2.4420   -7.5540 ca        1 17X      0.058400
     41 NBF         2.6680   -1.5970   -8.6680 nc        1 17X     -0.551100
     42 CBG         1.4180   -1.2470   -9.0350 cd        1 17X      0.462400
     43 CBI         1.1080   -0.3480  -10.1540 ca        1 17X     -0.118900
     44 CBJ         1.5580    0.9770  -10.1100 ca        1 17X     -0.101000
     45 CBK         1.2920    1.8340  -11.1770 ca        1 17X     -0.134500
     46 CBL         0.5870    1.3720  -12.2890 ca        1 17X     -0.115000
     47 CBM         0.1490    0.0480  -12.3370 ca        1 17X     -0.134500
     48 CBN         0.4100   -0.8150  -11.2740 ca        1 17X     -0.101000
     49 H1         -1.0930    1.1480    0.3560 ha        1 17X      0.139500
     50 H2          1.3250    1.6640    0.6480 ha        1 17X      0.136000
     51 H3          2.6700    0.4400    2.3580 ha        1 17X      0.135000
     52 H4          1.5850   -1.3010    3.7820 ha        1 17X      0.136000
     53 H5         -0.8400   -1.8110    3.5040 ha        1 17X      0.139500
     54 H6         -3.1010   -0.2510    2.7160 h1        1 17X      0.075200
     55 H7         -2.9950   -0.0160    0.9040 h1        1 17X      0.075200
     56 H8         -3.0580   -1.8690    4.4950 ha        1 17X      0.136000
     57 H9         -3.5970   -3.9240    5.8040 ha        1 17X      0.132000
     58 H10        -4.0480   -6.0780    4.6840 ha        1 17X      0.133000
     59 H11        -3.9880   -6.2820    2.1930 ha        1 17X      0.147000
     60 H12        -0.9670   -1.3710   -0.4760 h1        1 17X      0.056450
     61 H13        -1.0480   -2.9160   -1.4500 h1        1 17X      0.056450
     62 H14        -0.2710   -1.1350   -2.8940 hc        1 17X      0.065950
     63 H15        -1.6220   -0.0200   -2.4180 hc        1 17X      0.065950
     64 H16        -4.8390   -2.5170   -1.5840 h1        1 17X      0.056450
     65 H17        -3.5270   -3.6310   -2.1900 h1        1 17X      0.056450
     66 H18        -4.0770   -0.7090   -3.0940 hc        1 17X      0.065950
     67 H19        -4.2950   -2.2480   -4.0300 hc        1 17X      0.065950
     68 H20        -1.8580   -2.6910   -3.9770 hc        1 17X      0.082700
     69 H21        -2.5670   -0.2930   -7.5520 h1        1 17X      0.066200
     70 H22        -0.8800    0.1670   -7.0260 h1        1 17X      0.066200
     71 H23        -1.1570   -1.0560   -9.3080 h1        1 17X      0.082700
     72 H24        -1.7180   -3.5010   -7.4730 hc        1 17X      0.070700
     73 H25        -1.3560   -3.2040  -10.5370 hc        1 17X      0.051700
     74 H26        -0.2860   -4.1350   -9.4060 hc        1 17X      0.051700
     75 H27        -1.8960   -5.5880  -10.6790 h1        1 17X      0.030200
     76 H28        -2.0110   -5.7250   -8.8670 h1        1 17X      0.030200
     77 H29        -4.1560   -5.5800   -9.9220 hn        1 17X      0.364800
     78 H31        -5.1790   -3.5840   -9.1140 h1        1 17X      0.030200
     79 H32        -4.1800   -4.4120   -7.8370 h1        1 17X      0.030200
     80 H33        -3.7040   -2.0720   -7.7350 hc        1 17X      0.051700
     81 H34        -3.4260   -1.9310   -9.5240 hc        1 17X      0.051700
     82 H35        -0.3770   -3.4420   -5.8880 ha        1 17X      0.145000
     83 H36         1.3650   -4.6170   -4.5430 ha        1 17X      0.129000
     84 H37         3.7650   -4.4060   -5.0820 ha        1 17X      0.132000
     85 H38         4.5420   -3.0020   -7.0010 ha        1 17X      0.147000
     86 H39         2.1270    1.3350   -9.2380 ha        1 17X      0.145500
     87 H40         1.6450    2.8750  -11.1420 ha        1 17X      0.138000
     88 H41         0.3800    2.0500  -13.1300 ha        1 17X      0.135000
     89 H42        -0.3970   -0.3200  -13.2180 ha        1 17X      0.138000
     90 H43         0.0820   -1.8650  -11.3200 ha        1 17X      0.145500
@<TRIPOS>BOND
     1    1    2 ar  
     2    1    6 ar  
     3    1   49 1   
     4    2    3 ar  
     5    2   50 1   
     6    3    4 ar  
     7    3   51 1   
     8    4    5 ar  
     9    4   52 1   
    10    5    6 ar  
    11    5   53 1   
    12    6    7 1   
    13    7    8 1   
    14    7   54 1   
    15    7   55 1   
    16    8    9 1   
    17    8   16 1   
    18    9   10 ar  
    19    9   14 ar  
    20   10   11 ar  
    21   10   56 1   
    22   11   12 ar  
    23   11   57 1   
    24   12   13 ar  
    25   12   58 1   
    26   13   14 ar  
    27   13   59 1   
    28   14   15 1   
    29   15   16 2   
    30   16   17 1   
    31   17   18 1   
    32   17   20 1   
    33   18   19 1   
    34   18   60 1   
    35   18   61 1   
    36   19   22 1   
    37   19   62 1   
    38   19   63 1   
    39   20   21 1   
    40   20   64 1   
    41   20   65 1   
    42   21   22 1   
    43   21   66 1   
    44   21   67 1   
    45   22   23 1   
    46   22   68 1   
    47   23   24 2   
    48   23   25 1   
    49   25   26 1   
    50   26   27 1   
    51   26   69 1   
    52   26   70 1   
    53   27   28 1   
    54   27   34 1   
    55   27   71 1   
    56   28   29 1   
    57   28   33 1   
    58   28   72 1   
    59   29   30 1   
    60   29   73 1   
    61   29   74 1   
    62   30   31 1   
    63   30   75 1   
    64   30   76 1   
    65   31   32 1   
    66   31   77 1   
    67   32   33 1   
    68   32   78 1   
    69   32   79 1   
    70   33   80 1   
    71   33   81 1   
    72   34   35 1   
    73   34   42 1   
    74   35   36 ar  
    75   35   40 ar  
    76   36   37 ar  
    77   36   82 1   
    78   37   38 ar  
    79   37   83 1   
    80   38   39 ar  
    81   38   84 1   
    82   39   40 ar  
    83   39   85 1   
    84   40   41 1   
    85   41   42 2   
    86   42   43 1   
    87   43   44 ar  
    88   43   48 ar  
    89   44   45 ar  
    90   44   86 1   
    91   45   46 ar  
    92   45   87 1   
    93   46   47 ar  
    94   46   88 1   
    95   47   48 ar  
    96   47   89 1   
    97   48   90 1   
@<TRIPOS>SUBSTRUCTURE
     1 17X         1 TEMP              0 ****  ****    0 ROOT
