@<TRIPOS>MOLECULE
17Z
   23    17     1     0     0
SMALL
bcc


@<TRIPOS>ATOM
      1 C8         -1.0510   -0.0140   -1.6350 c1        1 17Z     -0.204000
      2 C13         0.3380   -0.0140   -1.6350 c1        1 17Z      0.076000
      3 O20         0.8630   -0.2350   -2.9210 oh        1 17Z     -0.253000
      4 C12         1.0420   -0.0140   -0.4160 c1        1 17Z     -0.044500
      5 C17         2.4500   -0.0140   -0.4140 c1        1 17Z     -0.119000
      6 C16         3.1430   -0.0140    0.7890 c1        1 17Z     -0.119000
      7 C15         2.4470   -0.0140    1.9940 c1        1 17Z     -0.119000
      8 C14         1.0580   -0.0140    1.9940 c1        1 17Z     -0.119000
      9 C11         0.3540   -0.0140    0.7750 c1        1 17Z     -0.006000
     10 C10        -1.0540   -0.0140    0.7730 c1        1 17Z     -0.006000
     11 O19        -1.7610   -0.3680    1.9370 o         1 17Z     -0.256000
     12 C9         -1.7470   -0.0140   -0.4300 c1        1 17Z     -0.044500
     13 C18        -3.2500   -0.0220   -0.6050 c2        1 17Z     -0.172000
     14 H1         -1.5390   -0.0140   -2.4800 ha        1 17Z      0.137000
     15 H2          0.8870    0.5320   -3.3670 ho        1 17Z      0.220000
     16 H3          2.9380   -0.0140   -1.2590 ha        1 17Z      0.137500
     17 H4          4.1190   -0.0140    0.7890 ha        1 17Z      0.137500
     18 H5          2.9350   -0.0140    2.8390 ha        1 17Z      0.137500
     19 H6          0.5700   -0.0140    2.8390 ha        1 17Z      0.137500
     20 H7         -2.0240    0.3670    2.3590 ho        1 17Z      0.215000
     21 H8         -3.4840    0.4450   -1.4300 ha        1 17Z      0.088333
     22 H9         -3.6680    0.4280    0.1530 ha        1 17Z      0.088333
     23 H10        -3.5670   -0.9440   -0.6520 ha        1 17Z      0.088333
@<TRIPOS>BOND
     1    1    2 1   
     2    1   14 1   
     3    2    3 1   
     4    3   15 1   
     5    4    9 1   
     6    5    6 1   
     7    5   16 1   
     8    6   17 1   
     9    7    8 1   
    10    7   18 1   
    11    8   19 1   
    12    9   10 1   
    13   10   12 1   
    14   11   20 1   
    15   13   21 1   
    16   13   22 1   
    17   13   23 1   
@<TRIPOS>SUBSTRUCTURE
     1 17Z         1 TEMP              0 ****  ****    0 ROOT
