@<TRIPOS>MOLECULE
17Z
   23    24     1     0     0
SMALL
bcc


@<TRIPOS>ATOM
      1 C8          1.5360    1.3890   -0.0260 ca        1 17Z     -0.122000
      2 C13         0.1810    1.6650   -0.0140 ca        1 17Z      0.092100
      3 O20        -0.1650    2.9990    0.0600 oh        1 17Z     -0.502100
      4 C12        -0.7930    0.6200   -0.0320 ca        1 17Z     -0.057000
      5 C17        -2.1930    0.8630    0.0060 ca        1 17Z     -0.134000
      6 C16        -3.0890   -0.1780   -0.0250 ca        1 17Z     -0.113000
      7 C15        -2.6320   -1.5150   -0.0930 ca        1 17Z     -0.137000
      8 C14        -1.2850   -1.7820   -0.1190 ca        1 17Z     -0.092000
      9 C11        -0.3380   -0.7220   -0.0850 ca        1 17Z     -0.028000
     10 C10         1.0700   -0.9780   -0.0960 ca        1 17Z      0.113100
     11 O19         1.4180   -2.3120   -0.1430 oh        1 17Z     -0.501100
     12 C9          1.9980    0.0530   -0.0590 ca        1 17Z     -0.142300
     13 C18         3.4550   -0.2100   -0.0610 c3        1 17Z     -0.053800
     14 H1          2.2600    2.2160   -0.0030 ha        1 17Z      0.151000
     15 H2         -1.0510    3.1000   -0.3130 ho        1 17Z      0.417000
     16 H3         -2.5620    1.8970    0.0760 ha        1 17Z      0.126000
     17 H4         -4.1720    0.0160    0.0060 ha        1 17Z      0.134000
     18 H5         -3.3660   -2.3330   -0.1200 ha        1 17Z      0.136000
     19 H6         -0.9080   -2.8160   -0.1660 ha        1 17Z      0.153000
     20 H7          2.3840   -2.3730   -0.1420 ho        1 17Z      0.422000
     21 H8          3.7540   -0.7630   -0.9880 hc        1 17Z      0.045700
     22 H9          4.0360    0.7440   -0.0250 hc        1 17Z      0.045700
     23 H10         3.7450   -0.8260    0.8280 hc        1 17Z      0.045700
@<TRIPOS>BOND
     1    1    2 ar  
     2    1   12 ar  
     3    1   14 1   
     4    2    3 1   
     5    2    4 ar  
     6    3   15 1   
     7    4    5 ar  
     8    4    9 ar  
     9    5    6 ar  
    10    5   16 1   
    11    6    7 ar  
    12    6   17 1   
    13    7    8 ar  
    14    7   18 1   
    15    8    9 ar  
    16    8   19 1   
    17    9   10 ar  
    18   10   11 1   
    19   10   12 ar  
    20   11   20 1   
    21   12   13 1   
    22   13   21 1   
    23   13   22 1   
    24   13   23 1   
@<TRIPOS>SUBSTRUCTURE
     1 17Z         1 TEMP              0 ****  ****    0 ROOT
