@<TRIPOS>MOLECULE
17Z
   23    24     1     0     0
SMALL
bcc


@<TRIPOS>ATOM
      1 C8         -0.0140   -0.0120   -0.0420 ca        1 17Z     -0.203000
      2 C13         1.3650   -0.0150    0.0040 ca        1 17Z      0.120100
      3 O20         2.1490    0.0170   -1.1300 oh        1 17Z     -0.499100
      4 C12         2.0720   -0.0490    1.2480 ca        1 17Z     -0.037000
      5 C17         3.4910   -0.0480    1.3030 ca        1 17Z     -0.090000
      6 C16         4.1400   -0.0640    2.5140 ca        1 17Z     -0.139000
      7 C15         3.3970   -0.0750    3.7170 ca        1 17Z     -0.111000
      8 C14         2.0230   -0.0800    3.6870 ca        1 17Z     -0.136000
      9 C11         1.3220   -0.0760    2.4500 ca        1 17Z     -0.047000
     10 C10        -0.1060   -0.0950    2.3720 ca        1 17Z      0.080100
     11 O19        -0.8880   -0.0980    3.5120 oh        1 17Z     -0.502100
     12 C9         -0.7700   -0.0600    1.1530 ca        1 17Z     -0.059300
     13 C18        -2.2480   -0.0530    1.0790 c3        1 17Z     -0.046800
     14 H1         -0.5450    0.0200   -1.0040 ha        1 17Z      0.137000
     15 H2          1.5580    0.0420   -1.8970 ho        1 17Z      0.421000
     16 H3          4.0500   -0.0320    0.3540 ha        1 17Z      0.152000
     17 H4          5.2390   -0.0640    2.5620 ha        1 17Z      0.136000
     18 H5          3.9330   -0.0760    4.6780 ha        1 17Z      0.134000
     19 H6          1.4550   -0.0670    4.6290 ha        1 17Z      0.128000
     20 H7         -0.4220   -0.6160    4.1840 ho        1 17Z      0.416000
     21 H8         -2.6210    1.0020    1.0420 hc        1 17Z      0.049033
     22 H9         -2.6040   -0.5860    0.1640 hc        1 17Z      0.049033
     23 H10        -2.6900   -0.5460    1.9810 hc        1 17Z      0.049033
@<TRIPOS>BOND
     1    1    2 ar  
     2    1   12 ar  
     3    1   14 1   
     4    2    3 1   
     5    2    4 ar  
     6    3   15 1   
     7    4    5 ar  
     8    4    9 ar  
     9    5    6 ar  
    10    5   16 1   
    11    6    7 ar  
    12    6   17 1   
    13    7    8 ar  
    14    7   18 1   
    15    8    9 ar  
    16    8   19 1   
    17    9   10 ar  
    18   10   11 1   
    19   10   12 ar  
    20   11   20 1   
    21   12   13 1   
    22   13   21 1   
    23   13   22 1   
    24   13   23 1   
@<TRIPOS>SUBSTRUCTURE
     1 17Z         1 TEMP              0 ****  ****    0 ROOT
