@<TRIPOS>MOLECULE
180
   61    63     1     0     0
SMALL
bcc


@<TRIPOS>ATOM
      1 O1         -0.6070   -1.0020    4.2580 o         1 180     -0.229000
      2 C1         -1.3250   -1.9610    4.2790 c1        1 180      0.459000
      3 O2         -2.0410   -2.9010    4.3210 o         1 180     -0.229000
      4 C2          2.5390    0.6850    2.0270 c2        1 180     -0.755000
      5 C3          3.2620    1.7240    2.7170 c3        1 180      0.025000
      6 N1          4.6920    1.2430    3.0490 ny        1 180     -0.137000
      7 C4          5.5410    2.3400    3.6190 c2        1 180      0.334000
      8 O3          6.3640    2.8260    2.8440 o         1 180     -0.222000
      9 C5          5.3140    2.6990    4.9920 c2        1 180     -0.516000
     10 C6          6.1280    3.6200    5.6520 c2        1 180      0.050000
     11 C7          5.7050    3.8040    6.9860 c2        1 180     -0.130000
     12 C8          6.1350    4.5910    8.0940 c2        1 180     -0.094000
     13 C9          5.3280    4.3760    9.1900 c2        1 180     -0.343000
     14 C10         5.4920    5.0010   10.5140 c3        1 180     -0.111000
     15 C11         4.2160    4.9610   11.3350 c3        1 180     -0.160000
     16 C12         4.4410    5.4450   12.7590 c3        1 180     -0.103000
     17 C13         3.1070    5.8080   13.3980 c3        1 180     -0.154000
     18 C14         3.2940    6.2320   14.8540 c3        1 180     -0.072500
     19 N2          4.0190    5.2530   15.6400 n7        1 180     -0.300000
     20 C15         5.2840    4.8580   15.0520 c3        1 180     -0.072500
     21 C16         5.1460    4.3930   13.6020 c3        1 180     -0.154000
     22 S1          4.0940    3.2590    8.8660 ss        1 180      0.716000
     23 C17         4.5530    3.0050    7.3100 c2        1 180     -0.657000
     24 S2          4.0760    2.1130    6.0030 ss        1 180      0.587000
     25 N3          1.5190   -0.1000    2.6310 ny        1 180     -0.325000
     26 S3          1.6570   -1.7530    1.8780 s6        1 180      2.819000
     27 O4          0.6090   -2.4420    2.4940 o         1 180     -0.880500
     28 O5          1.6200   -1.5650    0.5090 o         1 180     -0.880500
     29 C18         3.1050   -2.2370    2.4570 c2        1 180     -0.958000
     30 C19         3.2280   -3.2480    3.4320 c2        1 180      0.039000
     31 C20         4.4890   -3.6420    3.8620 c2        1 180     -0.199000
     32 C21         5.6180   -2.9940    3.3180 c2        1 180      0.029000
     33 N4          5.5310   -2.0230    2.3840 n2        1 180     -0.171000
     34 C22         4.3090   -1.6880    1.9470 c2        1 180      0.060000
     35 H2          2.4540    0.7550    0.9320 hx        1 180      0.185000
     36 H31         3.4260    2.6240    2.0590 hx        1 180      0.119500
     37 H32         2.8270    2.0450    3.7060 hx        1 180      0.119500
     38 HN1         5.1180    0.9070    2.1760 hn        1 180      0.233000
     39 H6          6.9840    4.1330    5.1940 ha        1 180      0.190000
     40 H8          6.9910    5.2690    8.0570 ha        1 180      0.179000
     41 H101        6.3160    4.4690   11.0670 hc        1 180      0.112000
     42 H102        5.8220    6.0690   10.3860 hc        1 180      0.112000
     43 H111        3.4430    5.6110   10.8450 hc        1 180      0.083500
     44 H112        3.8100    3.9130   11.3570 hc        1 180      0.083500
     45 H12         5.0840    6.3700   12.7280 hc        1 180      0.093000
     46 H131        2.6320    6.6550   12.8400 hc        1 180      0.086000
     47 H132        2.4150    4.9280   13.3450 hc        1 180      0.086000
     48 H141        3.8020    7.2420   14.8620 h1        1 180      0.071250
     49 H142        2.2810    6.3580   15.3300 h1        1 180      0.071250
     50 HN2         4.1650    5.5980   16.5700 hn        1 180      0.166000
     51 H151        6.0460    5.6930   15.0810 h1        1 180      0.071250
     52 H152        5.6890    4.0070   15.6700 h1        1 180      0.071250
     53 H161        4.5690    3.4330   13.5670 hc        1 180      0.086000
     54 H162        6.1710    4.1940   13.1970 hc        1 180      0.086000
     55 HN3         1.6160   -0.1180    3.6450 hn        1 180      0.224000
     56 H19         2.3190   -3.7270    3.8420 ha        1 180      0.178000
     57 H20         4.6140   -4.4450    4.6050 ha        1 180      0.181000
     58 H21         6.6440   -3.2660    3.6370 h4        1 180      0.193000
     59 H22         4.2640   -0.9370    1.1270 h4        1 180      0.198000
     60 H121        4.6510    0.4580    3.6980 hn        1 180      0.233000
     61 H321        0.5880    0.2960    2.4540 hn        1 180      0.224000
@<TRIPOS>BOND
     1    1    2 1   
     2    2    3 1   
     3    4    5 1   
     4    4   25 1   
     5    4   35 1   
     6    5    6 1   
     7    5   36 1   
     8    5   37 1   
     9    6    7 1   
    10    6   38 1   
    11    6   60 1   
    12    7    8 1   
    13    7    9 1   
    14    9   10 1   
    15    9   24 1   
    16   10   11 1   
    17   10   39 1   
    18   11   12 1   
    19   11   23 1   
    20   12   13 1   
    21   12   40 1   
    22   13   14 1   
    23   13   22 1   
    24   14   15 1   
    25   14   41 1   
    26   14   42 1   
    27   15   16 1   
    28   15   43 1   
    29   15   44 1   
    30   16   17 1   
    31   16   21 1   
    32   16   45 1   
    33   17   18 1   
    34   17   46 1   
    35   17   47 1   
    36   18   19 1   
    37   18   48 1   
    38   18   49 1   
    39   19   20 1   
    40   19   50 1   
    41   20   21 1   
    42   20   51 1   
    43   20   52 1   
    44   21   53 1   
    45   21   54 1   
    46   22   23 1   
    47   23   24 1   
    48   25   26 1   
    49   25   55 1   
    50   25   61 1   
    51   26   27 1   
    52   26   28 1   
    53   26   29 1   
    54   29   30 1   
    55   29   34 1   
    56   30   31 1   
    57   30   56 1   
    58   31   32 1   
    59   31   57 1   
    60   32   33 1   
    61   32   58 1   
    62   33   34 1   
    63   34   59 1   
@<TRIPOS>SUBSTRUCTURE
     1 180         1 TEMP              0 ****  ****    0 ROOT
