@<TRIPOS>MOLECULE
180
   61    63     1     0     0
SMALL
bcc


@<TRIPOS>ATOM
      1 O1         -0.5970   -1.0310    4.2720 o         1 180     -0.229000
      2 C1         -1.3000   -2.0010    4.2940 c1        1 180      0.459000
      3 O2         -2.0000   -2.9530    4.3360 o         1 180     -0.229000
      4 C2          2.5000    0.7210    2.0240 c2        1 180     -0.755000
      5 C3          3.2130    1.7660    2.7140 c3        1 180      0.025000
      6 N1          4.6550    1.3080    3.0270 n4        1 180     -0.137000
      7 C4          5.4910    2.4140    3.5990 c2        1 180      0.334000
      8 O3          6.2960    2.9230    2.8190 o         1 180     -0.222000
      9 C5          5.2730    2.7550    4.9780 c2        1 180     -0.516000
     10 C6          6.0780    3.6850    5.6370 c2        1 180      0.050000
     11 C7          5.6680    3.8470    6.9780 c2        1 180     -0.130000
     12 C8          6.0960    4.6310    8.0890 c2        1 180     -0.094000
     13 C9          5.3070    4.3890    9.1920 c2        1 180     -0.343000
     14 C10         5.4750    5.0040   10.5210 c3        1 180     -0.111000
     15 C11         4.2150    4.9180   11.3620 c3        1 180     -0.161000
     16 C12         4.4490    5.3930   12.7870 c3        1 180     -0.103000
     17 C13         3.1170    5.7090   13.4530 c3        1 180     -0.154000
     18 C14         3.3160    6.1220   14.9100 c3        1 180     -0.072500
     19 N2          4.0830    5.1570   15.6730 n3        1 180     -0.300000
     20 C15         5.3480    4.8060   15.0590 c3        1 180     -0.072500
     21 C16         5.1990    4.3540   13.6070 c3        1 180     -0.154000
     22 S1          4.0910    3.2510    8.8720 ss        1 180      0.716000
     23 C17         4.5350    3.0230    7.3080 c2        1 180     -0.657000
     24 S2          4.0590    2.1350    5.9970 ss        1 180      0.587000
     25 N3          1.4990   -0.0840    2.6340 n4        1 180     -0.325000
     26 S3          1.6570   -1.7300    1.8680 s6        1 180      2.819000
     27 O4          0.6260   -2.4400    2.4890 o         1 180     -0.880500
     28 O5          1.6040   -1.5340    0.5000 o         1 180     -0.880500
     29 C18         3.1180   -2.1940    2.4300 c2        1 180     -0.958000
     30 C19         3.2670   -3.2090    3.3980 c2        1 180      0.039000
     31 C20         4.5390   -3.5850    3.8130 c2        1 180     -0.199000
     32 C21         5.6510   -2.9150    3.2620 c2        1 180      0.029000
     33 N4          5.5400   -1.9400    2.3350 n2        1 180     -0.171000
     34 C22         4.3080   -1.6230    1.9120 c2        1 180      0.060000
     35 H2          2.4030    0.7970    0.9300 hx        1 180      0.185000
     36 H31         3.3560    2.6750    2.0610 hx        1 180      0.119500
     37 H32         2.7840    2.0730    3.7100 hx        1 180      0.119500
     38 HN1         5.0780    0.9860    2.1470 hn        1 180      0.233000
     39 H6          6.9180    4.2190    5.1750 ha        1 180      0.190000
     40 H8          6.9380    5.3260    8.0490 ha        1 180      0.179000
     41 H101        5.7730    6.0820   10.4000 hc        1 180      0.112000
     42 H102        6.3230    4.4890   11.0540 hc        1 180      0.112000
     43 H111        3.8390    3.8590   11.3790 hc        1 180      0.083500
     44 H112        3.4150    5.5510   10.8920 hc        1 180      0.083500
     45 H12         5.0640    6.3370   12.7570 hc        1 180      0.093000
     46 H131        2.6070    6.5470   12.9120 hc        1 180      0.086000
     47 H132        2.4500    4.8090   13.4010 hc        1 180      0.086000
     48 H141        2.3070    6.2130   15.4040 h1        1 180      0.071250
     49 H142        3.7930    7.1480   14.9210 h1        1 180      0.071250
     50 HN2         4.2340    5.4960   16.6050 hn        1 180      0.166000
     51 H151        6.0850    5.6630   15.0850 h1        1 180      0.071250
     52 H152        5.7880    3.9620   15.6610 h1        1 180      0.071250
     53 H161        4.6500    3.3770   13.5710 hc        1 180      0.086000
     54 H162        6.2230    4.1890   13.1820 hc        1 180      0.086000
     55 HN3         0.5600    0.2970    2.4670 hn        1 180      0.224000
     56 H19         2.3690   -3.7050    3.8130 ha        1 180      0.178000
     57 H20         4.6830   -4.3900    4.5500 ha        1 180      0.181000
     58 H21         6.6850   -3.1730    3.5700 h4        1 180      0.193000
     59 H22         4.2430   -0.8670    1.0980 h4        1 180      0.198000
     60 H121        4.6330    0.5160    3.6700 hn        1 180      0.233000
     61 H321        1.6070   -0.1070    3.6460 hn        1 180      0.224000
@<TRIPOS>BOND
     1    1    2 1   
     2    2    3 1   
     3    4    5 1   
     4    4   25 1   
     5    4   35 1   
     6    5    6 1   
     7    5   36 1   
     8    5   37 1   
     9    6    7 1   
    10    6   38 1   
    11    6   60 1   
    12    7    8 1   
    13    7    9 1   
    14    9   10 1   
    15    9   24 1   
    16   10   11 1   
    17   10   39 1   
    18   11   12 1   
    19   11   23 1   
    20   12   13 1   
    21   12   40 1   
    22   13   14 1   
    23   13   22 1   
    24   14   15 1   
    25   14   41 1   
    26   14   42 1   
    27   15   16 1   
    28   15   43 1   
    29   15   44 1   
    30   16   17 1   
    31   16   21 1   
    32   16   45 1   
    33   17   18 1   
    34   17   46 1   
    35   17   47 1   
    36   18   19 1   
    37   18   48 1   
    38   18   49 1   
    39   19   20 1   
    40   19   50 1   
    41   20   21 1   
    42   20   51 1   
    43   20   52 1   
    44   21   53 1   
    45   21   54 1   
    46   22   23 1   
    47   23   24 1   
    48   25   26 1   
    49   25   55 1   
    50   25   61 1   
    51   26   27 1   
    52   26   28 1   
    53   26   29 1   
    54   29   30 1   
    55   29   34 1   
    56   30   31 1   
    57   30   56 1   
    58   31   32 1   
    59   31   57 1   
    60   32   33 1   
    61   32   58 1   
    62   33   34 1   
    63   34   59 1   
@<TRIPOS>SUBSTRUCTURE
     1 180         1 TEMP              0 ****  ****    0 ROOT
