@<TRIPOS>MOLECULE
180
   61    63     1     0     0
SMALL
bcc


@<TRIPOS>ATOM
      1 O1         -0.6420   -0.9220    4.2310 o         1 180     -0.229000
      2 C1         -1.3730   -1.8710    4.2460 c1        1 180      0.459000
      3 O2         -2.1020   -2.8010    4.2820 o         1 180     -0.229000
      4 C2          2.5300    0.7350    2.0140 c2        1 180     -0.755000
      5 C3          3.2650    1.7610    2.7110 c3        1 180      0.025000
      6 N1          4.6880    1.2610    3.0430 n4        1 180     -0.137000
      7 C4          5.5500    2.3440    3.6210 c2        1 180      0.334000
      8 O3          6.3800    2.8250    2.8500 o         1 180     -0.222000
      9 C5          5.3240    2.6970    4.9960 c2        1 180     -0.516000
     10 C6          6.1490    3.6050    5.6620 c2        1 180      0.050000
     11 C7          5.7250    3.7850    6.9970 c2        1 180     -0.130000
     12 C8          6.1620    4.5610    8.1100 c2        1 180     -0.094000
     13 C9          5.3520    4.3490    9.2040 c2        1 180     -0.343000
     14 C10         5.5210    4.9640   10.5320 c3        1 180     -0.111000
     15 C11         4.2450    4.9310   11.3520 c3        1 180     -0.160000
     16 C12         4.4730    5.4040   12.7790 c3        1 180     -0.103000
     17 C13         3.1430    5.7740   13.4210 c3        1 180     -0.154000
     18 C14         3.3340    6.1880   14.8790 c3        1 180     -0.072500
     19 N2          4.0500    5.1980   15.6590 n3        1 180     -0.300000
     20 C15         5.3110    4.7950   15.0690 c3        1 180     -0.072500
     21 C16         5.1690    4.3410   13.6160 c3        1 180     -0.154000
     22 S1          4.1050    3.2480    8.8710 ss        1 180      0.716000
     23 C17         4.5640    2.9980    7.3150 c2        1 180     -0.657000
     24 S2          4.0780    2.1200    6.0010 ss        1 180      0.587000
     25 N3          1.4990   -0.0390    2.6140 n4        1 180     -0.325000
     26 S3          1.6170   -1.6900    1.8530 s6        1 180      2.819000
     27 O4          0.5590   -2.3690    2.4630 o         1 180     -0.880500
     28 O5          1.5850   -1.4960    0.4840 o         1 180     -0.880500
     29 C18         3.0570   -2.1960    2.4320 c2        1 180     -0.958000
     30 C19         3.1650   -3.2120    3.4040 c2        1 180      0.039000
     31 C20         4.4210   -3.6250    3.8340 c2        1 180     -0.199000
     32 C21         5.5590   -2.9890    3.2950 c2        1 180      0.029000
     33 N4          5.4860   -2.0130    2.3650 n2        1 180     -0.171000
     34 C22         4.2690   -1.6610    1.9270 c2        1 180      0.060000
     35 H2          2.4480    0.8110    0.9200 hx        1 180      0.185000
     36 H31         3.4420    2.6630    2.0570 hx        1 180      0.119500
     37 H32         2.8320    2.0830    3.7010 hx        1 180      0.119500
     38 HN1         4.6350    0.4730    3.6870 hn        1 180      0.233000
     39 H6          7.0110    4.1100    5.2090 ha        1 180      0.190000
     40 H8          7.0270    5.2290    8.0790 ha        1 180      0.179000
     41 H101        5.8620    6.0290   10.4110 hc        1 180      0.112000
     42 H102        6.3400    4.4200   11.0820 hc        1 180      0.112000
     43 H111        3.4780    5.5900   10.8660 hc        1 180      0.083500
     44 H112        3.8290    3.8860   11.3680 hc        1 180      0.083500
     45 H12         5.1250    6.3230   12.7540 hc        1 180      0.093000
     46 H131        2.4430    4.9010   13.3620 hc        1 180      0.086000
     47 H132        2.6750    6.6290   12.8670 hc        1 180      0.086000
     48 H141        3.8500    7.1940   14.8930 h1        1 180      0.071250
     49 H142        2.3210    6.3190   15.3550 h1        1 180      0.071250
     50 HN2         4.1980    5.5350   16.5910 hn        1 180      0.166000
     51 H151        6.0800    5.6230   15.1020 h1        1 180      0.071250
     52 H152        5.7080    3.9370   15.6810 h1        1 180      0.071250
     53 H161        4.5830    3.3860   13.5750 hc        1 180      0.086000
     54 H162        6.1920    4.1350   13.2100 hc        1 180      0.086000
     55 HN3         1.5940   -0.0630    3.6270 hn        1 180      0.224000
     56 H19         2.2490   -3.6820    3.8090 ha        1 180      0.178000
     57 H20         4.5330   -4.4330    4.5730 ha        1 180      0.181000
     58 H21         6.5810   -3.2760    3.6150 h4        1 180      0.193000
     59 H22         4.2360   -0.9050    1.1110 h4        1 180      0.198000
     60 H121        5.1120    0.9240    2.1690 hn        1 180      0.233000
     61 H321        0.5730    0.3690    2.4360 hn        1 180      0.224000
@<TRIPOS>BOND
     1    1    2 1   
     2    2    3 1   
     3    4    5 1   
     4    4   25 1   
     5    4   35 1   
     6    5    6 1   
     7    5   36 1   
     8    5   37 1   
     9    6    7 1   
    10    6   38 1   
    11    6   60 1   
    12    7    8 1   
    13    7    9 1   
    14    9   10 1   
    15    9   24 1   
    16   10   11 1   
    17   10   39 1   
    18   11   12 1   
    19   11   23 1   
    20   12   13 1   
    21   12   40 1   
    22   13   14 1   
    23   13   22 1   
    24   14   15 1   
    25   14   41 1   
    26   14   42 1   
    27   15   16 1   
    28   15   43 1   
    29   15   44 1   
    30   16   17 1   
    31   16   21 1   
    32   16   45 1   
    33   17   18 1   
    34   17   46 1   
    35   17   47 1   
    36   18   19 1   
    37   18   48 1   
    38   18   49 1   
    39   19   20 1   
    40   19   50 1   
    41   20   21 1   
    42   20   51 1   
    43   20   52 1   
    44   21   53 1   
    45   21   54 1   
    46   22   23 1   
    47   23   24 1   
    48   25   26 1   
    49   25   55 1   
    50   25   61 1   
    51   26   27 1   
    52   26   28 1   
    53   26   29 1   
    54   29   30 1   
    55   29   34 1   
    56   30   31 1   
    57   30   56 1   
    58   31   32 1   
    59   31   57 1   
    60   32   33 1   
    61   32   58 1   
    62   33   34 1   
    63   34   59 1   
@<TRIPOS>SUBSTRUCTURE
     1 180         1 TEMP              0 ****  ****    0 ROOT
