@<TRIPOS>MOLECULE
180
   59    56     1     0     0
SMALL
bcc


@<TRIPOS>ATOM
      1 O1         -1.3760   -0.2340   -6.4520 o         1 180     -0.547000
      2 C1         -0.1910   -0.7480   -6.4890 c2        1 180      0.326000
      3 O2          0.6770   -0.2860   -7.2970 o         1 180     -0.547000
      4 C2          0.1300   -1.9790   -5.6410 c3        1 180     -0.071000
      5 C3          0.2850   -1.5610   -4.1670 c3        1 180     -0.028000
      6 N1          0.8740   -0.2660   -4.1000 n         1 180     -0.353000
      7 C4          0.2650    0.7780   -3.2290 c2        1 180      0.366000
      8 O3         -0.5810    1.5660   -3.6980 o         1 180     -0.392000
      9 C5          0.7570    0.9520   -1.7820 c2        1 180     -0.419000
     10 C6          0.7280    2.1950   -1.0070 c1        1 180     -0.058000
     11 C7          1.2550    1.8870    0.4430 c2        1 180     -0.119000
     12 C8          1.5600    2.5570    1.8680 c1        1 180     -0.101000
     13 C9          2.0760    1.5160    2.7670 c1        1 180     -0.374000
     14 C10         2.5890    1.7300    4.2050 c2        1 180     -0.086000
     15 C11         1.4250    1.5510    5.2040 c3        1 180     -0.152000
     16 C12         1.8680    2.0590    6.6210 c3        1 180     -0.105000
     17 C13         0.7830    2.8600    7.1940 c3        1 180     -0.154000
     18 C14         1.0450    3.2440    8.6420 c3        1 180     -0.073000
     19 N2          1.3900    2.0740    9.4880 n3        1 180     -0.298000
     20 C15         2.4780    1.2610    8.9240 c3        1 180     -0.073000
     21 C16         2.2180    0.8690    7.4820 c3        1 180     -0.154000
     22 S1          2.1210    0.1600    1.9630 ss        1 180      0.575000
     23 C17         1.5980    0.4480    0.5210 c2        1 180     -0.691000
     24 S2          1.3020   -0.1810   -0.8540 ss        1 180      0.689000
     25 N3         -0.9250   -2.9200   -5.7620 n3        1 180     -0.873000
     26 S3         -1.6860   -3.1190   -7.2350 s4        1 180      2.062800
     27 O4         -1.3200   -2.0710   -8.1530 o         1 180     -0.559400
     28 O5         -1.1880   -4.2910   -7.9360 o         1 180     -0.559400
     29 C18        -3.4520   -3.2020   -7.0090 c1        1 180     -0.859000
     30 C19        -4.0740   -4.4140   -6.9350 c2        1 180      0.009000
     31 C20        -5.4410   -4.4760   -6.8930 c1        1 180     -0.226000
     32 C21        -6.1850   -3.3140   -6.9270 c1        1 180     -0.028000
     33 N4         -5.5630   -2.1100   -7.0010 n1        1 180     -0.157000
     34 C22        -4.1990   -2.0460   -7.0430 c1        1 180      0.038000
     35 H2          0.9590   -2.3790   -5.9550 h1        1 180      0.120000
     36 H31         0.8760   -2.2280   -3.6890 h1        1 180      0.071000
     37 H32        -0.6230   -1.5380   -3.7250 h1        1 180      0.071000
     38 HN1         1.6920   -0.1160   -4.4910 hn        1 180      0.287000
     39 H6          0.4890    3.0580   -1.3430 DU        1 180      0.162500
     40 H8          1.4530    3.4990    2.0890 DU        1 180      0.162500
     41 H101        2.9670    2.6560    4.2940 ha        1 180      0.084500
     42 H102        3.2650    1.0950    4.3930 ha        1 180      0.084500
     43 H111        0.6650    2.0570    4.9070 hc        1 180      0.088500
     44 H112        1.1810    0.5910    5.2590 hc        1 180      0.088500
     45 H12         2.6500    2.6180    6.5230 hc        1 180      0.083000
     46 H131       -0.0610    2.3350    7.1500 hc        1 180      0.088500
     47 H132        0.6770    3.6790    6.6620 hc        1 180      0.088500
     48 H141        1.7560    3.8560    8.6700 h1        1 180      0.063000
     49 H142        0.2510    3.6680    9.0010 h1        1 180      0.063000
     50 HN2         1.6210    2.3560   10.3120 hn        1 180      0.151000
     51 H151        2.5820    0.4100    9.4870 h1        1 180      0.063000
     52 H152        3.3320    1.7870    8.9660 h1        1 180      0.063000
     53 H161        3.0110    0.4490    7.1270 hc        1 180      0.088500
     54 H162        1.5080    0.2510    7.4550 hc        1 180      0.088500
     55 HN3        -1.1240   -3.4820   -5.0630 hn        1 180      0.263000
     56 H19        -3.5590   -5.2130   -6.9100 ha        1 180      0.147000
     57 H20        -5.9010   -5.3610   -6.8390 ha        1 180      0.136000
     58 H21        -7.1640   -3.3590   -6.8970 ha        1 180      0.147000
     59 H22        -3.7500   -1.1780   -7.0960 ha        1 180      0.237000
@<TRIPOS>BOND
     1    1    2 1   
     2    2    3 1   
     3    2    4 1   
     4    4    5 1   
     5    4   25 1   
     6    4   35 1   
     7    5    6 1   
     8    5   36 1   
     9    5   37 1   
    10    6    7 1   
    11    6   38 1   
    12    7    8 1   
    13    7    9 1   
    14    9   10 1   
    15    9   24 1   
    16   10   11 1   
    17   11   12 1   
    18   11   23 1   
    19   12   13 1   
    20   13   22 1   
    21   14   15 1   
    22   14   41 1   
    23   14   42 1   
    24   15   16 1   
    25   15   43 1   
    26   15   44 1   
    27   16   17 1   
    28   16   21 1   
    29   16   45 1   
    30   17   18 1   
    31   17   46 1   
    32   17   47 1   
    33   18   19 1   
    34   18   48 1   
    35   18   49 1   
    36   19   20 1   
    37   19   50 1   
    38   20   21 1   
    39   20   51 1   
    40   20   52 1   
    41   21   53 1   
    42   21   54 1   
    43   22   23 1   
    44   23   24 1   
    45   25   26 1   
    46   25   55 1   
    47   26   27 1   
    48   26   28 1   
    49   29   30 1   
    50   29   34 1   
    51   30   31 1   
    52   30   56 1   
    53   31   57 1   
    54   32   33 1   
    55   32   58 1   
    56   34   59 1   
@<TRIPOS>SUBSTRUCTURE
     1 180         1 TEMP              0 ****  ****    0 ROOT
