@<TRIPOS>MOLECULE
180
   59    62     1     0     0
SMALL
bcc


@<TRIPOS>ATOM
      1 O1          2.3220   -1.4630    6.7970 o         1 180     -0.806800
      2 C1          2.0650   -0.2750    6.4770 c         1 180      0.923600
      3 O2          2.4890    0.7720    7.0210 o         1 180     -0.806800
      4 C2          1.1100   -0.0560    5.2240 c3        1 180      0.071500
      5 C3          2.0720    0.0290    4.0210 c3        1 180      0.086000
      6 N1          1.4420    0.2390    2.7400 n         1 180     -0.556900
      7 C4          2.1950    0.4080    1.6010 c         1 180      0.689700
      8 O3          3.4410    0.5110    1.6430 o         1 180     -0.612100
      9 C5          1.4860    0.4870    0.3030 cc        1 180     -0.167700
     10 C6          2.1690    0.5910   -0.8930 cd        1 180     -0.053000
     11 C7          1.2680    0.6440   -1.9920 cd        1 180     -0.112000
     12 C8          1.3850    0.7500   -3.4080 cd        1 180     -0.100000
     13 C9          0.1470    0.7590   -4.0100 cc        1 180     -0.103400
     14 C10        -0.1250    0.8720   -5.4520 c3        1 180     -0.003100
     15 C11         0.3580   -0.3470   -6.2190 c3        1 180     -0.073400
     16 C12         0.1950   -0.1770   -7.7210 c3        1 180     -0.065700
     17 C13         1.0050   -1.2360   -8.4570 c3        1 180     -0.074900
     18 C14         0.8170   -1.1180   -9.9670 c3        1 180      0.163800
     19 N2         -0.5750   -1.1240  -10.3760 n3        1 180     -0.819200
     20 C15        -1.4030   -0.1740   -9.6590 c3        1 180      0.163800
     21 C16        -1.2640   -0.2740   -8.1410 c3        1 180     -0.074900
     22 S1         -1.1120    0.6420   -2.8750 ss        1 180      0.029200
     23 C17        -0.0960    0.5760   -1.5680 cc        1 180     -0.135200
     24 S2         -0.1920    0.4610    0.0780 ss        1 180      0.095200
     25 N3          0.1240   -1.1040    5.1110 n3        1 180     -0.920100
     26 S3         -1.4460   -0.9480    5.2020 sy        1 180      1.514200
     27 O4         -2.0640   -2.2080    4.9850 o         1 180     -0.670300
     28 O5         -1.9220   -0.2290    6.3160 o         1 180     -0.670300
     29 C18        -1.8290    0.0290    3.8390 ca        1 180     -0.451800
     30 C19        -2.0530   -0.5310    2.5780 ca        1 180      0.006000
     31 C20        -2.4350    0.2930    1.5160 ca        1 180     -0.293300
     32 C21        -2.6070    1.6680    1.7710 ca        1 180      0.439200
     33 N4         -2.4010    2.2320    2.9770 nb        1 180     -0.685000
     34 C22        -2.0160    1.4210    3.9790 ca        1 180      0.505200
     35 H2          0.5780    0.9280    5.3570 h1        1 180      0.050700
     36 H31         2.7770    0.8870    4.2230 h1        1 180      0.071200
     37 H32         2.6880   -0.9160    3.9790 h1        1 180      0.071200
     38 HN1         0.4680    0.0750    2.6630 hn        1 180      0.297500
     39 H6          3.2590    0.6290   -0.9790 ha        1 180      0.177000
     40 H8          2.3430    0.8160   -3.9270 ha        1 180      0.155000
     41 H101       -1.2270    1.0080   -5.6240 hc        1 180      0.047200
     42 H102        0.3870    1.7900   -5.8530 hc        1 180      0.047200
     43 H111        1.4430   -0.5170   -5.9830 hc        1 180      0.049200
     44 H112       -0.2030   -1.2550   -5.8780 hc        1 180      0.049200
     45 H12         0.5850    0.8380   -8.0160 hc        1 180      0.044700
     46 H131        2.0940   -1.1160   -8.2230 hc        1 180      0.048700
     47 H132        0.6900   -2.2540   -8.1110 hc        1 180      0.048700
     48 H141        1.3530   -0.1840  -10.3150 h1        1 180      0.024200
     49 H142        1.3130   -1.9980  -10.4670 h1        1 180      0.024200
     50 HN2        -0.6390   -0.9530  -11.3620 hn        1 180      0.357800
     51 H151       -1.1780    0.8930   -9.9620 h1        1 180      0.024200
     52 H152       -2.4720   -0.3870   -9.9430 h1        1 180      0.024200
     53 H161       -1.6950   -1.2440   -7.7830 hc        1 180      0.048700
     54 H162       -1.8540    0.5570   -7.6770 hc        1 180      0.048700
     55 HN3         0.5620   -1.9970    5.2450 hn        1 180      0.479800
     56 H19        -1.9460   -1.6200    2.4360 ha        1 180      0.160000
     57 H20        -2.6520   -0.1260    0.5240 ha        1 180      0.143000
     58 H21        -2.9250    2.3570    0.9670 h4        1 180      0.018100
     59 H22        -1.8610    1.9050    4.9680 h4        1 180      0.057100
@<TRIPOS>BOND
     1    1    2 1   
     2    2    3 1   
     3    2    4 1   
     4    4    5 1   
     5    4   25 1   
     6    4   35 1   
     7    5    6 1   
     8    5   36 1   
     9    5   37 1   
    10    6    7 1   
    11    6   38 1   
    12    7    8 2   
    13    7    9 1   
    14    9   10 2   
    15    9   24 1   
    16   10   11 1   
    17   10   39 1   
    18   11   12 1   
    19   11   23 2   
    20   12   13 2   
    21   12   40 1   
    22   13   14 1   
    23   13   22 1   
    24   14   15 1   
    25   14   41 1   
    26   14   42 1   
    27   15   16 1   
    28   15   43 1   
    29   15   44 1   
    30   16   17 1   
    31   16   21 1   
    32   16   45 1   
    33   17   18 1   
    34   17   46 1   
    35   17   47 1   
    36   18   19 1   
    37   18   48 1   
    38   18   49 1   
    39   19   20 1   
    40   19   50 1   
    41   20   21 1   
    42   20   51 1   
    43   20   52 1   
    44   21   53 1   
    45   21   54 1   
    46   22   23 1   
    47   23   24 1   
    48   25   26 1   
    49   25   55 1   
    50   26   27 2   
    51   26   28 2   
    52   26   29 1   
    53   29   30 ar  
    54   29   34 ar  
    55   30   31 ar  
    56   30   56 1   
    57   31   32 ar  
    58   31   57 1   
    59   32   33 ar  
    60   32   58 1   
    61   33   34 ar  
    62   34   59 1   
@<TRIPOS>SUBSTRUCTURE
     1 180         1 TEMP              0 ****  ****    0 ROOT
