@<TRIPOS>MOLECULE
181
   34    35     1     0     0
SMALL
bcc


@<TRIPOS>ATOM
      1 OAC        -1.2570   -0.7000    0.0070 oh        1 181     -0.592800
      2 CAJ         0.0420   -0.9530   -0.4790 c3        1 181      0.135400
      3 CAK         1.0990   -0.6980    0.5930 c3        1 181      0.071400
      4 OAN         0.9230   -1.7260    1.5670 os        1 181     -0.420600
      5 CAL         1.8980   -1.7530    2.5950 c3        1 181      0.289800
      6 NAT         1.7140   -0.7250    3.6080 n         1 181     -0.398000
      7 CAS         0.9050   -1.0180    4.7500 c         1 181      0.810500
      8 OAB         0.4590   -2.1680    4.9370 o         1 181     -0.623500
      9 NAM         0.6630    0.0110    5.6640 n         1 181     -0.584500
     10 CAR         1.1520    1.3250    5.5080 c         1 181      0.727700
     11 OAA         0.9000    2.1400    6.4080 o         1 181     -0.590500
     12 CAI         2.1800    0.5580    3.4210 cc        1 181      0.105600
     13 CAQ         1.9330    1.5910    4.2870 cd        1 181     -0.229600
     14 SAO         2.4060    3.1380    3.8080 ss        1 181     -0.083500
     15 CAP         3.7310    3.6020    4.7640 ca        1 181     -0.032100
     16 CAH         4.5710    4.5630    4.1820 ca        1 181     -0.113500
     17 CAF         5.6580    5.0680    4.8900 ca        1 181     -0.122000
     18 CAD         5.9280    4.6090    6.1800 ca        1 181     -0.129000
     19 CAE         5.0980    3.6510    6.7620 ca        1 181     -0.122000
     20 CAG         4.0000    3.1550    6.0600 ca        1 181     -0.113500
     21 HAC        -1.4070   -1.3030    0.7470 ho        1 181      0.415000
     22 HAJ1        0.1850   -0.2300   -1.3250 h1        1 181      0.058200
     23 HAJ2        0.1240   -2.0080   -0.8530 h1        1 181      0.058200
     24 HAK1        0.9410    0.3060    1.0690 h1        1 181      0.042200
     25 HAK2        2.1290   -0.7560    0.1550 h1        1 181      0.042200
     26 HAL1        1.7460   -2.7670    3.0770 h2        1 181      0.093700
     27 HAL2        2.9340   -1.6400    2.1640 h2        1 181      0.093700
     28 HAM         0.1030   -0.2110    6.4610 hn        1 181      0.356500
     29 HAI         2.7840    0.7190    2.5020 h4        1 181      0.172000
     30 HAH         4.3650    4.9200    3.1610 ha        1 181      0.141000
     31 HAF         6.3060    5.8270    4.4290 ha        1 181      0.134000
     32 HAD         6.7900    5.0040    6.7360 ha        1 181      0.132000
     33 HAE         5.3010    3.2910    7.7820 ha        1 181      0.134000
     34 HAG         3.3280    2.4240    6.5380 ha        1 181      0.141000
@<TRIPOS>BOND
     1    1    2 1   
     2    1   21 1   
     3    2    3 1   
     4    2   22 1   
     5    2   23 1   
     6    3    4 1   
     7    3   24 1   
     8    3   25 1   
     9    4    5 1   
    10    5    6 1   
    11    5   26 1   
    12    5   27 1   
    13    6    7 1   
    14    6   12 1   
    15    7    8 2   
    16    7    9 1   
    17    9   10 1   
    18    9   28 1   
    19   10   11 2   
    20   10   13 1   
    21   12   13 2   
    22   12   29 1   
    23   13   14 1   
    24   14   15 1   
    25   15   16 ar  
    26   15   20 ar  
    27   16   17 ar  
    28   16   30 1   
    29   17   18 ar  
    30   17   31 1   
    31   18   19 ar  
    32   18   32 1   
    33   19   20 ar  
    34   19   33 1   
    35   20   34 1   
@<TRIPOS>SUBSTRUCTURE
     1 181         1 TEMP              0 ****  ****    0 ROOT
