@<TRIPOS>MOLECULE
181
   34    31     1     0     0
SMALL
bcc


@<TRIPOS>ATOM
      1 OAC         0.8160   -4.1840   -3.6410 oh        1 181     -0.328000
      2 CAJ         0.4340   -3.3540   -4.7460 c3        1 181     -0.043000
      3 CAK         0.6830   -1.8990   -4.4000 c3        1 181     -0.065000
      4 OAN        -0.0150   -1.5610   -3.2510 os        1 181     -0.280000
      5 CAL         0.5850   -0.4850   -2.5150 c3        1 181      0.098000
      6 NAT        -0.2680   -0.1390   -1.3670 n3        1 181     -0.289000
      7 CAS        -1.3520   -0.9150   -1.0670 c1        1 181      0.400000
      8 OAB        -1.6390   -1.8610   -1.7860 o         1 181     -0.386000
      9 NAM        -2.1770   -0.5790   -0.0170 n2        1 181     -0.361000
     10 CAR        -1.9240    0.5110    0.7180 c1        1 181      0.365000
     11 OAA        -2.7390    0.8700    1.5930 o         1 181     -0.311000
     12 CAI        -0.0040    0.9710   -0.6250 c2        1 181      0.119000
     13 CAQ        -0.8320    1.3050    0.4250 c1        1 181     -0.459000
     14 SAO        -0.5720    2.8220    1.3200 ss        1 181      0.389000
     15 CAP         0.0130    2.4580    2.9590 c2        1 181     -0.260000
     16 CAH         1.3930    2.4520    3.2250 c2        1 181     -0.116000
     17 CAF         1.8510    2.1940    4.5110 c1        1 181     -0.123000
     18 CAD         0.9320    1.9370    5.5480 c1        1 181     -0.125000
     19 CAE        -0.4400    1.9440    5.2800 c1        1 181     -0.125000
     20 CAG        -0.8980    2.2050    3.9820 c1        1 181     -0.111000
     21 HAC         0.5410   -4.9970   -3.7800 ho        1 181      0.218000
     22 HAJ1        0.9670   -3.5950   -5.5360 h1        1 181      0.092000
     23 HAJ2       -0.5320   -3.4900   -4.9450 h1        1 181      0.092000
     24 HAK1        1.6300   -1.7620   -4.2540 h1        1 181      0.106000
     25 HAK2        0.3850   -1.3350   -5.1370 h1        1 181      0.106000
     26 HAL1        1.4940   -0.7680   -2.1870 h2        1 181      0.130000
     27 HAL2        0.6790    0.2970   -3.1010 h2        1 181      0.130000
     28 HAM        -2.9220   -1.1190    0.1870 hn        1 181      0.271000
     29 HAI         0.7630    1.5270   -0.8350 h4        1 181      0.185000
     30 HAH         2.0390    2.6340    2.4960 ha        1 181      0.138000
     31 HAF         2.8320    2.1890    4.7010 ha        1 181      0.133000
     32 HAD         1.2500    1.7570    6.4430 ha        1 181      0.133000
     33 HAE        -1.0930    1.7630    6.0110 ha        1 181      0.133000
     34 HAG        -1.8810    2.2100    3.7900 ha        1 181      0.144000
@<TRIPOS>BOND
     1    1    2 1   
     2    1   21 1   
     3    2    3 1   
     4    2   22 1   
     5    2   23 1   
     6    3    4 1   
     7    3   24 1   
     8    3   25 1   
     9    4    5 1   
    10    5    6 1   
    11    5   26 1   
    12    5   27 1   
    13    6    7 1   
    14    6   12 1   
    15    7    8 1   
    16    9   10 1   
    17    9   28 1   
    18   10   11 1   
    19   12   13 1   
    20   12   29 1   
    21   13   14 1   
    22   14   15 1   
    23   15   16 1   
    24   15   20 1   
    25   16   17 1   
    26   16   30 1   
    27   17   31 1   
    28   18   19 1   
    29   18   32 1   
    30   19   33 1   
    31   20   34 1   
@<TRIPOS>SUBSTRUCTURE
     1 181         1 TEMP              0 ****  ****    0 ROOT
