@<TRIPOS>MOLECULE
181
   34    35     1     0     0
SMALL
bcc


@<TRIPOS>ATOM
      1 OAC        -1.2970   -0.6850    0.0400 oh        1 181     -0.592800
      2 CAJ        -0.0030   -0.9200   -0.4690 c3        1 181      0.135400
      3 CAK         1.0680   -0.6700    0.5900 c3        1 181      0.071400
      4 OAN         0.9160   -1.7130    1.5520 os        1 181     -0.420600
      5 CAL         1.9080   -1.7440    2.5650 c3        1 181      0.289800
      6 NAT         1.7300   -0.7300    3.5940 n         1 181     -0.398000
      7 CAS         0.9420   -1.0460    4.7450 c         1 181      0.810500
      8 OAB         0.5090   -2.2020    4.9230 o         1 181     -0.623500
      9 NAM         0.7050   -0.0300    5.6750 ns        1 181     -0.584500
     10 CAR         1.1800    1.2890    5.5290 c         1 181      0.727700
     11 OAA         0.9350    2.0900    6.4430 o         1 181     -0.590500
     12 CAI         2.1820    0.5590    3.4160 cc        1 181      0.105600
     13 CAQ         1.9390    1.5790    4.2990 cd        1 181     -0.229600
     14 SAO         2.3910    3.1360    3.8340 ss        1 181     -0.083500
     15 CAP         3.7270    3.5990    4.7760 ca        1 181     -0.032100
     16 CAH         4.5480    4.5760    4.1940 ca        1 181     -0.113500
     17 CAF         5.6410    5.0820    4.8920 ca        1 181     -0.122000
     18 CAD         5.9360    4.6070    6.1710 ca        1 181     -0.129000
     19 CAE         5.1250    3.6330    6.7520 ca        1 181     -0.122000
     20 CAG         4.0210    3.1360    6.0610 ca        1 181     -0.113500
     21 HAC        -1.4290   -1.2990    0.7740 ho        1 181      0.415000
     22 HAJ1        0.1200   -0.1850   -1.3090 h1        1 181      0.058200
     23 HAJ2        0.0820   -1.9690   -0.8590 h1        1 181      0.058200
     24 HAK1        0.9090    0.3260    1.0810 h1        1 181      0.042200
     25 HAK2        2.0920   -0.7130    0.1350 h1        1 181      0.042200
     26 HAL1        1.7720   -2.7650    3.0350 h2        1 181      0.093700
     27 HAL2        2.9360   -1.6150    2.1190 h2        1 181      0.093700
     28 HAM         0.1600   -0.2680    6.4780 hn        1 181      0.356500
     29 HAI         2.7700    0.7370    2.4910 h4        1 181      0.172000
     30 HAH         4.3220    4.9460    3.1810 ha        1 181      0.141000
     31 HAF         6.2740    5.8540    4.4310 ha        1 181      0.134000
     32 HAD         6.8040    5.0020    6.7180 ha        1 181      0.132000
     33 HAE         5.3480    3.2610    7.7630 ha        1 181      0.134000
     34 HAG         3.3640    2.3920    6.5380 ha        1 181      0.141000
@<TRIPOS>BOND
     1    1    2 1   
     2    1   21 1   
     3    2    3 1   
     4    2   22 1   
     5    2   23 1   
     6    3    4 1   
     7    3   24 1   
     8    3   25 1   
     9    4    5 1   
    10    5    6 1   
    11    5   26 1   
    12    5   27 1   
    13    6    7 1   
    14    6   12 1   
    15    7    8 2   
    16    7    9 1   
    17    9   10 1   
    18    9   28 1   
    19   10   11 2   
    20   10   13 1   
    21   12   13 2   
    22   12   29 1   
    23   13   14 1   
    24   14   15 1   
    25   15   16 ar  
    26   15   20 ar  
    27   16   17 ar  
    28   16   30 1   
    29   17   18 ar  
    30   17   31 1   
    31   18   19 ar  
    32   18   32 1   
    33   19   20 ar  
    34   19   33 1   
    35   20   34 1   
@<TRIPOS>SUBSTRUCTURE
     1 181         1 TEMP              0 ****  ****    0 ROOT
