@<TRIPOS>MOLECULE
181
   34    35     1     0     0
SMALL
bcc


@<TRIPOS>ATOM
      1 OAC        -4.9050   -1.5390   -1.9720 oh        1 181     -0.592800
      2 CAJ        -4.4990   -2.6910   -1.2670 c3        1 181      0.135400
      3 CAK        -3.2360   -2.4290   -0.4480 c3        1 181      0.071400
      4 OAN        -3.6280   -1.5420    0.5990 os        1 181     -0.420600
      5 CAL        -2.6240   -1.2710    1.5630 c3        1 181      0.289800
      6 NAT        -1.6100   -0.3310    1.1080 n         1 181     -0.398000
      7 CAS        -1.8130    1.0660    1.3350 c         1 181      0.810500
      8 OAB        -2.7820    1.4680    2.0100 o         1 181     -0.623500
      9 NAM        -0.8760    1.9580    0.8080 n         1 181     -0.584500
     10 CAR         0.2430    1.5580    0.0480 c         1 181      0.727700
     11 OAA         1.0240    2.4430   -0.3320 o         1 181     -0.590500
     12 CAI        -0.5400   -0.7440    0.3450 cc        1 181      0.105600
     13 CAQ         0.3770    0.1120   -0.2060 cd        1 181     -0.229600
     14 SAO         1.5070   -0.5400   -1.2750 ss        1 181     -0.083500
     15 CAP         3.0240   -0.5270   -0.5090 ca        1 181     -0.032100
     16 CAH         3.9340   -1.4820   -0.9860 ca        1 181     -0.113500
     17 CAF         5.2290   -1.5320   -0.4800 ca        1 181     -0.122000
     18 CAD         5.6270   -0.6410    0.5180 ca        1 181     -0.129000
     19 CAE         4.7250    0.3070    0.9990 ca        1 181     -0.122000
     20 CAG         3.4310    0.3690    0.4820 ca        1 181     -0.113500
     21 HAC        -5.0900   -0.8550   -1.3160 ho        1 181      0.415000
     22 HAJ1       -5.3220   -3.0510   -0.5950 h1        1 181      0.058200
     23 HAJ2       -4.2810   -3.4570   -2.0580 h1        1 181      0.058200
     24 HAK1       -2.8410   -3.3840   -0.0150 h1        1 181      0.042200
     25 HAK2       -2.4510   -1.9420   -1.0840 h1        1 181      0.042200
     26 HAL1       -3.1990   -0.7980    2.4160 h2        1 181      0.093700
     27 HAL2       -2.1060   -2.2220    1.8760 h2        1 181      0.093700
     28 HAM        -1.0260    2.9300    0.9820 hn        1 181      0.356500
     29 HAI        -0.4560   -1.8410    0.1930 h4        1 181      0.172000
     30 HAH         3.6200   -2.1910   -1.7680 ha        1 181      0.141000
     31 HAF         5.9390   -2.2780   -0.8670 ha        1 181      0.134000
     32 HAD         6.6480   -0.6860    0.9220 ha        1 181      0.132000
     33 HAE         5.0340    1.0180    1.7800 ha        1 181      0.134000
     34 HAG         2.7330    1.1430    0.8410 ha        1 181      0.141000
@<TRIPOS>BOND
     1    1    2 1   
     2    1   21 1   
     3    2    3 1   
     4    2   22 1   
     5    2   23 1   
     6    3    4 1   
     7    3   24 1   
     8    3   25 1   
     9    4    5 1   
    10    5    6 1   
    11    5   26 1   
    12    5   27 1   
    13    6    7 1   
    14    6   12 1   
    15    7    8 2   
    16    7    9 1   
    17    9   10 1   
    18    9   28 1   
    19   10   11 2   
    20   10   13 1   
    21   12   13 2   
    22   12   29 1   
    23   13   14 1   
    24   14   15 1   
    25   15   16 ar  
    26   15   20 ar  
    27   16   17 ar  
    28   16   30 1   
    29   17   18 ar  
    30   17   31 1   
    31   18   19 ar  
    32   18   32 1   
    33   19   20 ar  
    34   19   33 1   
    35   20   34 1   
@<TRIPOS>SUBSTRUCTURE
     1 181         1 TEMP              0 ****  ****    0 ROOT
