@<TRIPOS>MOLECULE
182
   34    35     1     0     0
SMALL
bcc


@<TRIPOS>ATOM
      1 OAC         0.6070   -0.9680    0.9650 oh        1 182     -0.609800
      2 CAJ         1.0260    0.3120    0.5200 c3        1 182      0.109400
      3 CAK         1.9230    0.8990    1.6050 c3        1 182      0.113400
      4 OAN         1.1110    1.5660    2.5720 os        1 182     -0.428600
      5 CAL         1.2020    1.0670    3.8950 c3        1 182      0.290800
      6 NAT         0.5010   -0.1930    4.0960 n         1 182     -0.389000
      7 CAS         1.2530   -1.4070    4.1340 c         1 182      0.818500
      8 OAB         2.5020   -1.3820    4.0940 o         1 182     -0.645500
      9 NAM         0.5530   -2.6090    4.2540 ns        1 182     -0.577500
     10 CAR        -0.8560   -2.6920    4.2570 c         1 182      0.730700
     11 OAA        -1.3610   -3.8250    4.2900 o         1 182     -0.599500
     12 CAI        -0.8740   -0.2490    4.0720 cc        1 182      0.132600
     13 CAQ        -1.5870   -1.4140    4.2080 cd        1 182     -0.243600
     14 SE         -3.2490   -1.2890    4.4550 ss        1 182     -0.083500
     15 CAP        -4.0310   -1.7850    3.0310 ca        1 182     -0.029100
     16 CAH        -5.3190   -1.2610    2.8480 ca        1 182     -0.115000
     17 CAF        -6.0830   -1.6430    1.7490 ca        1 182     -0.124000
     18 CAD        -5.5660   -2.5390    0.8120 ca        1 182     -0.132000
     19 CAE        -4.2850   -3.0600    0.9880 ca        1 182     -0.124000
     20 CAG        -3.5230   -2.6900    2.0960 ca        1 182     -0.115000
     21 HAC         0.0030   -1.3110    0.2960 ho        1 182      0.408000
     22 HAJ1        1.6110    0.2100   -0.4330 h1        1 182      0.038700
     23 HAJ2        0.1370    0.9750    0.3470 h1        1 182      0.038700
     24 HAK1        2.5730    1.7000    1.1590 h1        1 182      0.070700
     25 HAK2        2.5550    0.0980    2.0700 h1        1 182      0.070700
     26 HAL1        2.2790    0.9260    4.1990 h2        1 182      0.091700
     27 HAL2        0.6930    1.8650    4.5120 h2        1 182      0.091700
     28 HAM         1.0920   -3.4500    4.2680 hn        1 182      0.354500
     29 HAI        -1.3890    0.7300    3.9680 h4        1 182      0.179000
     30 HAH        -5.7260   -0.5470    3.5810 ha        1 182      0.141500
     31 HAF        -7.0960   -1.2330    1.6180 ha        1 182      0.132000
     32 HAD        -6.1690   -2.8350   -0.0580 ha        1 182      0.131000
     33 HAE        -3.8750   -3.7740    0.2590 ha        1 182      0.132000
     34 HAG        -2.5240   -3.1310    2.2480 ha        1 182      0.141500
@<TRIPOS>BOND
     1    1    2 1   
     2    1   21 1   
     3    2    3 1   
     4    2   22 1   
     5    2   23 1   
     6    3    4 1   
     7    3   24 1   
     8    3   25 1   
     9    4    5 1   
    10    5    6 1   
    11    5   26 1   
    12    5   27 1   
    13    6    7 1   
    14    6   12 1   
    15    7    8 2   
    16    7    9 1   
    17    9   10 1   
    18    9   28 1   
    19   10   11 2   
    20   10   13 1   
    21   12   13 2   
    22   12   29 1   
    23   13   14 1   
    24   14   15 1   
    25   15   16 ar  
    26   15   20 ar  
    27   16   17 ar  
    28   16   30 1   
    29   17   18 ar  
    30   17   31 1   
    31   18   19 ar  
    32   18   32 1   
    33   19   20 ar  
    34   19   33 1   
    35   20   34 1   
@<TRIPOS>SUBSTRUCTURE
     1 182         1 TEMP              0 ****  ****    0 ROOT
