@<TRIPOS>MOLECULE
182
   34    35     1     0     0
SMALL
bcc


@<TRIPOS>ATOM
      1 OAC         0.6020   -0.9350    0.9610 oh        1 182     -0.609800
      2 CAJ         1.0160    0.3530    0.5380 c3        1 182      0.109400
      3 CAK         1.9160    0.9230    1.6300 c3        1 182      0.113400
      4 OAN         1.1050    1.5710    2.6110 os        1 182     -0.428600
      5 CAL         1.2020    1.0480    3.9250 c3        1 182      0.290800
      6 NAT         0.5040   -0.2170    4.1050 n         1 182     -0.389000
      7 CAS         1.2590   -1.4300    4.1200 c         1 182      0.818500
      8 OAB         2.5080   -1.4010    4.0760 o         1 182     -0.645500
      9 NAM         0.5620   -2.6360    4.2200 n         1 182     -0.577500
     10 CAR        -0.8470   -2.7210    4.2260 c         1 182      0.730700
     11 OAA        -1.3490   -3.8560    4.2390 o         1 182     -0.599500
     12 CAI        -0.8710   -0.2760    4.0850 cc        1 182      0.132600
     13 CAQ        -1.5800   -1.4450    4.2020 cd        1 182     -0.243600
     14 SE         -3.2430   -1.3280    4.4570 ss        1 182     -0.083500
     15 CAP        -4.0280   -1.8000    3.0260 ca        1 182     -0.029100
     16 CAH        -5.3170   -1.2740    2.8560 ca        1 182     -0.115000
     17 CAF        -6.0840   -1.6370    1.7530 ca        1 182     -0.124000
     18 CAD        -5.5680   -2.5160    0.7990 ca        1 182     -0.132000
     19 CAE        -4.2860   -3.0390    0.9620 ca        1 182     -0.124000
     20 CAG        -3.5220   -2.6880    2.0730 ca        1 182     -0.115000
     21 HAC        -0.0040   -1.2680    0.2880 ho        1 182      0.408000
     22 HAJ1        1.5980    0.2700   -0.4190 h1        1 182      0.038700
     23 HAJ2        0.1250    1.0170    0.3790 h1        1 182      0.038700
     24 HAK1        2.5620    1.7330    1.1970 h1        1 182      0.070700
     25 HAK2        2.5510    0.1150    2.0790 h1        1 182      0.070700
     26 HAL1        2.2800    0.9030    4.2230 h2        1 182      0.091700
     27 HAL2        0.6930    1.8340    4.5580 h2        1 182      0.091700
     28 HAM         1.1030   -3.4750    4.2160 hn        1 182      0.354500
     29 HAI        -1.3890    0.7040    4.0000 h4        1 182      0.179000
     30 HAH        -5.7230   -0.5730    3.6020 ha        1 182      0.141500
     31 HAF        -7.0970   -1.2270    1.6320 ha        1 182      0.132000
     32 HAD        -6.1730   -2.7980   -0.0750 ha        1 182      0.131000
     33 HAE        -3.8780   -3.7400    0.2190 ha        1 182      0.132000
     34 HAG        -2.5220   -3.1290    2.2160 ha        1 182      0.141500
@<TRIPOS>BOND
     1    1    2 1   
     2    1   21 1   
     3    2    3 1   
     4    2   22 1   
     5    2   23 1   
     6    3    4 1   
     7    3   24 1   
     8    3   25 1   
     9    4    5 1   
    10    5    6 1   
    11    5   26 1   
    12    5   27 1   
    13    6    7 1   
    14    6   12 1   
    15    7    8 2   
    16    7    9 1   
    17    9   10 1   
    18    9   28 1   
    19   10   11 2   
    20   10   13 1   
    21   12   13 2   
    22   12   29 1   
    23   13   14 1   
    24   14   15 1   
    25   15   16 ar  
    26   15   20 ar  
    27   16   17 ar  
    28   16   30 1   
    29   17   18 ar  
    30   17   31 1   
    31   18   19 ar  
    32   18   32 1   
    33   19   20 ar  
    34   19   33 1   
    35   20   34 1   
@<TRIPOS>SUBSTRUCTURE
     1 182         1 TEMP              0 ****  ****    0 ROOT
