@<TRIPOS>MOLECULE
182
   34    31     1     0     0
SMALL
bcc


@<TRIPOS>ATOM
      1 OAC         5.8370    2.4140   -2.6240 oh        1 182     -0.323000
      2 CAJ         5.1270    1.3360   -2.0380 c3        1 182     -0.058000
      3 CAK         3.6540    1.6010   -2.1300 c3        1 182     -0.029000
      4 OAN         2.8880    0.4340   -1.5060 os        1 182     -0.278000
      5 CAL         1.7010    0.1430   -2.1390 c3        1 182      0.093000
      6 NAT         0.8600   -0.6120   -1.2550 n3        1 182     -0.291000
      7 CAS         1.3960   -1.6070   -0.4750 c1        1 182      0.395000
      8 OAB         2.5700   -1.8700   -0.5600 o         1 182     -0.366000
      9 NAM         0.5850   -2.3660    0.2970 n2        1 182     -0.364000
     10 CAR        -0.7210   -2.1470    0.3010 c1        1 182      0.365000
     11 OAA        -1.4240   -2.8410    0.9060 o         1 182     -0.316000
     12 CAI        -0.4530   -0.3990   -1.2450 c2        1 182      0.121000
     13 CAQ        -1.2530   -1.1580   -0.4740 c1        1 182     -0.463000
     14 SE         -3.1530   -0.8110   -0.4090 ss        1 182      0.386000
     15 CAP        -3.6310   -0.2920    1.3400 c2        1 182     -0.259000
     16 CAH        -4.4600   -1.1100    2.1070 c2        1 182     -0.110000
     17 CAF        -4.8620   -0.6980    3.3660 c1        1 182     -0.123000
     18 CAD        -4.4370    0.5370    3.8650 c1        1 182     -0.126000
     19 CAE        -3.6060    1.3550    3.0930 c1        1 182     -0.126000
     20 CAG        -3.2060    0.9470    1.8450 c1        1 182     -0.115000
     21 HAC         6.6740    2.1880   -2.7250 ho        1 182      0.208000
     22 HAJ1        5.3420    0.4980   -2.5160 h1        1 182      0.075500
     23 HAJ2        5.3980    1.2470   -1.0600 h1        1 182      0.075500
     24 HAK1        3.3900    1.7020   -3.0930 h1        1 182      0.110500
     25 HAK2        3.4510    2.3890   -1.6700 h1        1 182      0.110500
     26 HAL1        1.2500    0.9710   -2.3830 h2        1 182      0.133500
     27 HAL2        1.8950   -0.4230   -3.0160 h2        1 182      0.133500
     28 HAM         0.9210   -3.0050    0.7950 hn        1 182      0.269000
     29 HAI        -0.8370    0.3070   -1.8040 h4        1 182      0.187000
     30 HAH        -4.7640   -1.9900    1.7490 ha        1 182      0.144000
     31 HAF        -5.4490   -1.2760    3.9130 ha        1 182      0.133000
     32 HAD        -4.7310    0.8380    4.7870 ha        1 182      0.132500
     33 HAE        -3.3170    2.1950    3.4310 ha        1 182      0.132500
     34 HAG        -2.6390    1.5010    1.3270 ha        1 182      0.138000
@<TRIPOS>BOND
     1    1    2 1   
     2    1   21 1   
     3    2    3 1   
     4    2   22 1   
     5    2   23 1   
     6    3    4 1   
     7    3   24 1   
     8    3   25 1   
     9    4    5 1   
    10    5    6 1   
    11    5   26 1   
    12    5   27 1   
    13    6    7 1   
    14    6   12 1   
    15    7    8 1   
    16    9   10 1   
    17    9   28 1   
    18   10   11 1   
    19   12   13 1   
    20   12   29 1   
    21   13   14 1   
    22   14   15 1   
    23   15   16 1   
    24   15   20 1   
    25   16   17 1   
    26   16   30 1   
    27   17   31 1   
    28   18   19 1   
    29   18   32 1   
    30   19   33 1   
    31   20   34 1   
@<TRIPOS>SUBSTRUCTURE
     1 182         1 TEMP              0 ****  ****    0 ROOT
