@<TRIPOS>MOLECULE
182
   34    35     1     0     0
SMALL
bcc


@<TRIPOS>ATOM
      1 OAC         7.3140  162.0400   10.7240 oh        1 182     -0.609800
      2 CAJ         6.1710  161.3750   11.2380 c3        1 182      0.109400
      3 CAK         5.3790  162.3950   12.0490 c3        1 182      0.113400
      4 OAN         5.8870  162.4280   13.3820 os        1 182     -0.428600
      5 CAL         6.3940  163.6790   13.8130 c3        1 182      0.290800
      6 NAT         7.6960  164.0090   13.2510 n         1 182     -0.389000
      7 CAS         7.7680  164.9340   12.1640 c         1 182      0.818500
      8 OAB         6.7420  165.5250   11.7640 o         1 182     -0.645500
      9 NAM         9.0190  165.1790   11.5930 n         1 182     -0.577500
     10 CAR        10.1960  164.5030   11.9790 c         1 182      0.730700
     11 OAA        11.2310  164.7520   11.3430 o         1 182     -0.599500
     12 CAI         8.8250  163.3190   13.6290 cc        1 182      0.132600
     13 CAQ        10.0690  163.5540   13.0980 cd        1 182     -0.243600
     14 SE         11.3920  162.8450   13.8650 ss        1 182     -0.083500
     15 CAP        11.9630  161.5900   12.8730 ca        1 182     -0.029100
     16 CAH        12.6660  160.5770   13.5430 ca        1 182     -0.115000
     17 CAF        13.2350  159.5270   12.8290 ca        1 182     -0.124000
     18 CAD        13.0970  159.4660   11.4420 ca        1 182     -0.132000
     19 CAE        12.3970  160.4680   10.7720 ca        1 182     -0.124000
     20 CAG        11.8380  161.5290   11.4830 ca        1 182     -0.115000
     21 HAC         7.8330  161.3780   10.2530 ho        1 182      0.408000
     22 HAJ1        5.5370  160.9990   10.3910 h1        1 182      0.038700
     23 HAJ2        6.4810  160.5140   11.8870 h1        1 182      0.038700
     24 HAK1        5.4190  163.4050   11.5600 h1        1 182      0.070700
     25 HAK2        4.3140  162.0500   12.1450 h1        1 182      0.070700
     26 HAL1        5.6770  164.5130   13.5600 h2        1 182      0.091700
     27 HAL2        6.5060  163.5470   14.9300 h2        1 182      0.091700
     28 HAM         9.0510  165.8180   10.8270 hn        1 182      0.354500
     29 HAI         8.6770  162.5650   14.4310 h4        1 182      0.179000
     30 HAH        12.7680  160.6180   14.6390 ha        1 182      0.141500
     31 HAF        13.7920  158.7420   13.3620 ha        1 182      0.132000
     32 HAD        13.5430  158.6330   10.8800 ha        1 182      0.131000
     33 HAE        12.2930  160.4310    9.6770 ha        1 182      0.132000
     34 HAG        11.3140  162.3360   10.9460 ha        1 182      0.141500
@<TRIPOS>BOND
     1    1    2 1   
     2    1   21 1   
     3    2    3 1   
     4    2   22 1   
     5    2   23 1   
     6    3    4 1   
     7    3   24 1   
     8    3   25 1   
     9    4    5 1   
    10    5    6 1   
    11    5   26 1   
    12    5   27 1   
    13    6    7 1   
    14    6   12 1   
    15    7    8 2   
    16    7    9 1   
    17    9   10 1   
    18    9   28 1   
    19   10   11 2   
    20   10   13 1   
    21   12   13 2   
    22   12   29 1   
    23   13   14 1   
    24   14   15 1   
    25   15   16 ar  
    26   15   20 ar  
    27   16   17 ar  
    28   16   30 1   
    29   17   18 ar  
    30   17   31 1   
    31   18   19 ar  
    32   18   32 1   
    33   19   20 ar  
    34   19   33 1   
    35   20   34 1   
@<TRIPOS>SUBSTRUCTURE
     1 182         1 TEMP              0 ****  ****    0 ROOT
