@<TRIPOS>MOLECULE
183
   50    52     1     0     0
SMALL
bcc


@<TRIPOS>ATOM
      1 OAC        -0.4740    0.0130    0.2170 oh        1 183     -0.594800
      2 CAN         0.9210    0.1300    0.0440 c3        1 183      0.135400
      3 CAO         1.6430    0.2830    1.3800 c3        1 183      0.071400
      4 OAT         1.4900   -0.9670    2.0520 os        1 183     -0.426600
      5 CAR         2.2310   -1.0970    3.2550 c3        1 183      0.293800
      6 NBC         1.6800   -0.3550    4.3760 n         1 183     -0.400000
      7 CBB         0.6930   -0.9750    5.1940 c         1 183      0.809500
      8 OAB         0.4290   -2.1900    5.0760 o         1 183     -0.630500
      9 NAS         0.0510   -0.1970    6.1680 ns        1 183     -0.583500
     10 CBA         0.3090    1.1720    6.3540 c         1 183      0.719700
     11 OAA        -0.3270    1.7850    7.2280 o         1 183     -0.612500
     12 CAY         1.9420    0.9990    4.5310 cc        1 183      0.039600
     13 CAZ         1.3350    1.7680    5.4760 cd        1 183     -0.244400
     14 CAQ         1.6630    3.2050    5.6650 c3        1 183      0.023100
     15 CAW         0.9180    4.0840    4.7160 ca        1 183     -0.055300
     16 CAK        -0.4420    4.3480    4.9340 ca        1 183     -0.151000
     17 CAH        -1.1410    5.1730    4.0590 ca        1 183     -0.092000
     18 CAL        -0.5050    5.7460    2.9560 ca        1 183     -0.201000
     19 CAM         1.5710    4.6490    3.6220 ca        1 183     -0.163000
     20 CAX         0.8520    5.4800    2.7430 ca        1 183      0.126100
     21 OAU         1.6030    5.9880    1.6990 os        1 183     -0.331900
     22 CAP         0.8730    6.7500    0.7250 c3        1 183      0.174700
     23 CAV         1.8300    7.1500   -0.3480 ca        1 183     -0.095300
     24 CAJ         1.3710    7.2560   -1.6660 ca        1 183     -0.112000
     25 CAG         2.2390    7.6680   -2.6750 ca        1 183     -0.132000
     26 CAE         3.5680    7.9680   -2.3770 ca        1 183     -0.125000
     27 CAF         4.0300    7.8560   -1.0660 ca        1 183     -0.132000
     28 CAI         3.1630    7.4490   -0.0520 ca        1 183     -0.112000
     29 HAC        -0.6260   -0.7600    0.7770 ho        1 183      0.415000
     30 HAN1        1.3220   -0.7610   -0.5080 h1        1 183      0.056200
     31 HAN2        1.0630    1.0600   -0.5690 h1        1 183      0.056200
     32 HAO1        2.7300    0.5030    1.2180 h1        1 183      0.044200
     33 HAO2        1.1740    1.1000    1.9890 h1        1 183      0.044200
     34 HAR1        2.1640   -2.2040    3.4850 h2        1 183      0.090200
     35 HAR2        3.2950   -0.7590    3.1010 h2        1 183      0.090200
     36 HAS        -0.6360   -0.6510    6.7320 hn        1 183      0.354500
     37 HAY         2.7020    1.4170    3.8420 h4        1 183      0.163000
     38 HAQ1        1.4000    3.5020    6.7200 hc        1 183      0.069700
     39 HAQ2        2.7700    3.3550    5.5370 hc        1 183      0.069700
     40 HAK        -0.9460    3.8940    5.8030 ha        1 183      0.154000
     41 HAH        -2.2080    5.3780    4.2340 ha        1 183      0.136000
     42 HAL        -1.0740    6.3940    2.2760 ha        1 183      0.138000
     43 HAM         2.6390    4.4660    3.4360 ha        1 183      0.141000
     44 HAP1        0.0390    6.1220    0.3100 h1        1 183      0.049700
     45 HAP2        0.4460    7.6650    1.2210 h1        1 183      0.049700
     46 HAJ         0.3250    7.0140   -1.9050 ha        1 183      0.139000
     47 HAG         1.8740    7.7550   -3.7090 ha        1 183      0.133000
     48 HAE         4.2520    8.2920   -3.1760 ha        1 183      0.132000
     49 HAF         5.0780    8.0880   -0.8290 ha        1 183      0.133000
     50 HAI         3.5230    7.3540    0.9850 ha        1 183      0.139000
@<TRIPOS>BOND
     1    1    2 1   
     2    1   29 1   
     3    2    3 1   
     4    2   30 1   
     5    2   31 1   
     6    3    4 1   
     7    3   32 1   
     8    3   33 1   
     9    4    5 1   
    10    5    6 1   
    11    5   34 1   
    12    5   35 1   
    13    6    7 1   
    14    6   12 1   
    15    7    8 2   
    16    7    9 1   
    17    9   10 1   
    18    9   36 1   
    19   10   11 2   
    20   10   13 1   
    21   12   13 2   
    22   12   37 1   
    23   13   14 1   
    24   14   15 1   
    25   14   38 1   
    26   14   39 1   
    27   15   16 ar  
    28   15   19 ar  
    29   16   17 ar  
    30   16   40 1   
    31   17   18 ar  
    32   17   41 1   
    33   18   20 ar  
    34   18   42 1   
    35   19   20 ar  
    36   19   43 1   
    37   20   21 1   
    38   21   22 1   
    39   22   23 1   
    40   22   44 1   
    41   22   45 1   
    42   23   24 ar  
    43   23   28 ar  
    44   24   25 ar  
    45   24   46 1   
    46   25   26 ar  
    47   25   47 1   
    48   26   27 ar  
    49   26   48 1   
    50   27   28 ar  
    51   27   49 1   
    52   28   50 1   
@<TRIPOS>SUBSTRUCTURE
     1 183         1 TEMP              0 ****  ****    0 ROOT
