@<TRIPOS>MOLECULE
183
   50    46     1     0     0
SMALL
bcc


@<TRIPOS>ATOM
      1 OAC         1.0570   -8.7960   -2.5620 oh        1 183     -0.324000
      2 CAN         0.3530   -7.5520   -2.6970 c3        1 183     -0.058000
      3 CAO         1.3560   -6.4310   -3.0780 c3        1 183     -0.028000
      4 OAT         1.0040   -5.2690   -2.4320 os        1 183     -0.281000
      5 CAR         1.7200   -4.1310   -2.8690 c3        1 183      0.098000
      6 NBC         1.6090   -3.0910   -1.8990 n3        1 183     -0.293000
      7 CBB         1.6740   -3.3840   -0.5630 c1        1 183      0.395000
      8 OAB         1.9230   -4.5180   -0.2000 o         1 183     -0.374000
      9 NAS         1.5410   -2.3810    0.3690 n2        1 183     -0.363000
     10 CBA         1.3470   -1.1030   -0.0320 c1        1 183      0.360000
     11 OAA         1.1650   -0.2290    0.7950 o         1 183     -0.343000
     12 CAY         1.4140   -1.8050   -2.3070 c2        1 183      0.058000
     13 CAZ         1.2820   -0.8050   -1.3810 c1        1 183     -0.233000
     14 CAQ         0.8920    0.6540   -1.8510 c3        1 183     -0.063000
     15 CAW         1.1610    1.6390   -0.7260 c2        1 183     -0.043000
     16 CAK         2.4570    1.7650   -0.2020 c2        1 183     -0.166000
     17 CAH         2.7170    2.7060    0.7910 c1        1 183     -0.100000
     18 CAL         1.6850    3.5300    1.2690 c1        1 183     -0.156000
     19 CAM         0.1320    2.4590   -0.2500 c1        1 183     -0.197000
     20 CAX         0.3990    3.4070    0.7520 c1        1 183      0.085000
     21 OAU        -0.6680    4.2240    1.2760 os        1 183     -0.213000
     22 CAP        -1.1820    3.7730    2.5800 c3        1 183      0.015000
     23 CAV        -2.4970    4.4640    2.8680 c2        1 183     -0.085000
     24 CAJ        -3.4350    4.5790    1.8800 c2        1 183     -0.103000
     25 CAG        -4.6760    5.1380    2.1600 c1        1 183     -0.133000
     26 CAE        -4.9630    5.5770    3.4360 c1        1 183     -0.129000
     27 CAF        -4.0150    5.4610    4.4390 c1        1 183     -0.129000
     28 CAI        -2.7860    4.9070    4.1600 c1        1 183     -0.124000
     29 HAC         0.4870   -9.4340   -2.2960 ho        1 183      0.207000
     30 HAN1       -0.0910   -7.3210   -1.8250 h1        1 183      0.076000
     31 HAN2       -0.3450   -7.6380   -3.4160 h1        1 183      0.076000
     32 HAO1        1.3360   -6.2870   -4.0420 h1        1 183      0.109000
     33 HAO2        2.2720   -6.6980   -2.8020 h1        1 183      0.109000
     34 HAR1        1.3460   -3.8190   -3.7250 h2        1 183      0.131500
     35 HAR2        2.6860   -4.3720   -2.9940 h2        1 183      0.131500
     36 HAS         1.5860   -2.5850    1.2920 hn        1 183      0.267000
     37 HAY         1.3690   -1.5950   -3.2710 h4        1 183      0.176000
     38 HAQ1        1.4380    0.9030   -2.6480 hc        1 183      0.106500
     39 HAQ2       -0.0590    0.6780   -2.0870 hc        1 183      0.106500
     40 HAK         3.1870    1.1840   -0.5380 ha        1 183      0.128000
     41 HAH         3.6210    2.7930    1.1550 ha        1 183      0.133000
     42 HAL         1.8710    4.1900    1.9670 ha        1 183      0.149000
     43 HAM        -0.7720    2.3730   -0.6140 ha        1 183      0.160000
     44 HAP1       -0.5270    3.9970    3.2890 h1        1 183      0.093000
     45 HAP2       -1.3230    2.7910    2.5570 h1        1 183      0.093000
     46 HAJ        -3.2290    4.2640    0.9630 ha        1 183      0.148000
     47 HAG        -5.3430    5.2200    1.4540 ha        1 183      0.132000
     48 HAE        -5.8340    5.9690    3.6320 ha        1 183      0.131500
     49 HAF        -4.2220    5.7770    5.3590 ha        1 183      0.131500
     50 HAI        -2.1170    4.8240    4.8660 ha        1 183      0.133000
@<TRIPOS>BOND
     1    1    2 1   
     2    1   29 1   
     3    2    3 1   
     4    2   30 1   
     5    2   31 1   
     6    3    4 1   
     7    3   32 1   
     8    3   33 1   
     9    4    5 1   
    10    5    6 1   
    11    5   34 1   
    12    5   35 1   
    13    6    7 1   
    14    6   12 1   
    15    7    8 1   
    16    9   10 1   
    17    9   36 1   
    18   10   11 1   
    19   12   13 1   
    20   12   37 1   
    21   13   14 1   
    22   14   15 1   
    23   14   38 1   
    24   14   39 1   
    25   15   16 1   
    26   15   19 1   
    27   16   17 1   
    28   16   40 1   
    29   17   41 1   
    30   18   20 1   
    31   18   42 1   
    32   19   43 1   
    33   20   21 1   
    34   21   22 1   
    35   22   23 1   
    36   22   44 1   
    37   22   45 1   
    38   23   24 1   
    39   23   28 1   
    40   24   25 1   
    41   24   46 1   
    42   25   47 1   
    43   26   27 1   
    44   26   48 1   
    45   27   49 1   
    46   28   50 1   
@<TRIPOS>SUBSTRUCTURE
     1 183         1 TEMP              0 ****  ****    0 ROOT
