@<TRIPOS>MOLECULE
183
   50    52     1     0     0
SMALL
bcc


@<TRIPOS>ATOM
      1 OAC         2.7530   -2.7030    3.0160 oh        1 183     -0.595800
      2 CAN         1.6750   -3.1310    2.2130 c3        1 183      0.135400
      3 CAO         1.6050   -2.3490    0.9040 c3        1 183      0.071400
      4 OAT         2.7480   -2.7470    0.1490 os        1 183     -0.426600
      5 CAR         2.7960   -2.2430   -1.1770 c3        1 183      0.293800
      6 NBC         3.1710   -0.8420   -1.2660 n         1 183     -0.399000
      7 CBB         4.5510   -0.5020   -1.3480 c         1 183      0.809500
      8 OAB         5.4230   -1.3790   -1.5140 o         1 183     -0.632500
      9 NAS         4.9070    0.8530   -1.2770 n         1 183     -0.583500
     10 CBA         3.9730    1.8880   -1.1000 c         1 183      0.717700
     11 OAA         4.3860    3.0570   -1.0290 o         1 183     -0.610500
     12 CAY         2.2310    0.1600   -1.0750 cc        1 183      0.037600
     13 CAZ         2.5570    1.4810   -1.0110 cd        1 183     -0.248400
     14 CAQ         1.5460    2.5620   -0.8800 c3        1 183      0.019100
     15 CAW         0.4120    2.2020    0.0200 ca        1 183     -0.054300
     16 CAK         0.4770    2.5050    1.3870 ca        1 183     -0.152000
     17 CAH        -0.5870    2.1860    2.2260 ca        1 183     -0.091000
     18 CAL        -1.7290    1.5620    1.7240 ca        1 183     -0.204000
     19 CAM        -0.7240    1.5830   -0.4990 ca        1 183     -0.172000
     20 CAX        -1.7920    1.2610    0.3590 ca        1 183      0.126100
     21 OAU        -2.8530    0.6330   -0.2640 os        1 183     -0.330900
     22 CAP        -3.9940    0.3710    0.5680 c3        1 183      0.175700
     23 CAV        -5.0520   -0.2380   -0.2900 ca        1 183     -0.097300
     24 CAJ        -5.9320   -1.1690    0.2740 ca        1 183     -0.112500
     25 CAG        -6.9530   -1.7200   -0.4980 ca        1 183     -0.131000
     26 CAE        -7.0960   -1.3520   -1.8370 ca        1 183     -0.123000
     27 CAF        -6.2160   -0.4300   -2.4020 ca        1 183     -0.131000
     28 CAI        -5.1960    0.1280   -1.6320 ca        1 183     -0.112500
     29 HAC         3.5600   -2.8330    2.5010 ho        1 183      0.415000
     30 HAN1        1.7610   -4.2300    1.9980 h1        1 183      0.055700
     31 HAN2        0.7550   -2.9280    2.8230 h1        1 183      0.055700
     32 HAO1        0.6670   -2.6010    0.3440 h1        1 183      0.044700
     33 HAO2        1.6470   -1.2460    1.1030 h1        1 183      0.044700
     34 HAR1        3.6060   -2.8660   -1.6650 h2        1 183      0.091200
     35 HAR2        1.7980   -2.3710   -1.6840 h2        1 183      0.091200
     36 HAS         5.8790    1.0710   -1.3400 hn        1 183      0.354500
     37 HAY         1.1770   -0.1780   -0.9950 h4        1 183      0.171000
     38 HAQ1        2.0550    3.4900   -0.4940 hc        1 183      0.076700
     39 HAQ2        1.1500    2.8090   -1.9050 hc        1 183      0.076700
     40 HAK         1.3720    2.9990    1.7950 ha        1 183      0.144000
     41 HAH        -0.5300    2.4290    3.2980 ha        1 183      0.137000
     42 HAL        -2.5590    1.3190    2.4020 ha        1 183      0.139000
     43 HAM        -0.8070    1.3520   -1.5710 ha        1 183      0.147000
     44 HAP1       -3.6930   -0.3290    1.3940 h1        1 183      0.049200
     45 HAP2       -4.3620    1.3380    1.0080 h1        1 183      0.049200
     46 HAJ        -5.8190   -1.4660    1.3270 ha        1 183      0.139000
     47 HAG        -7.6460   -2.4480   -0.0510 ha        1 183      0.133500
     48 HAE        -7.9010   -1.7900   -2.4450 ha        1 183      0.133000
     49 HAF        -6.3240   -0.1410   -3.4580 ha        1 183      0.133500
     50 HAI        -4.4960    0.8530   -2.0740 ha        1 183      0.139000
@<TRIPOS>BOND
     1    1    2 1   
     2    1   29 1   
     3    2    3 1   
     4    2   30 1   
     5    2   31 1   
     6    3    4 1   
     7    3   32 1   
     8    3   33 1   
     9    4    5 1   
    10    5    6 1   
    11    5   34 1   
    12    5   35 1   
    13    6    7 1   
    14    6   12 1   
    15    7    8 2   
    16    7    9 1   
    17    9   10 1   
    18    9   36 1   
    19   10   11 2   
    20   10   13 1   
    21   12   13 2   
    22   12   37 1   
    23   13   14 1   
    24   14   15 1   
    25   14   38 1   
    26   14   39 1   
    27   15   16 ar  
    28   15   19 ar  
    29   16   17 ar  
    30   16   40 1   
    31   17   18 ar  
    32   17   41 1   
    33   18   20 ar  
    34   18   42 1   
    35   19   20 ar  
    36   19   43 1   
    37   20   21 1   
    38   21   22 1   
    39   22   23 1   
    40   22   44 1   
    41   22   45 1   
    42   23   24 ar  
    43   23   28 ar  
    44   24   25 ar  
    45   24   46 1   
    46   25   26 ar  
    47   25   47 1   
    48   26   27 ar  
    49   26   48 1   
    50   27   28 ar  
    51   27   49 1   
    52   28   50 1   
@<TRIPOS>SUBSTRUCTURE
     1 183         1 TEMP              0 ****  ****    0 ROOT
