@<TRIPOS>MOLECULE
183
   50    52     1     0     0
SMALL
bcc


@<TRIPOS>ATOM
      1 OAC        -1.7170   -0.6350    1.2580 oh        1 183     -0.595800
      2 CAN        -0.6760   -0.0280    0.5240 c3        1 183      0.135400
      3 CAO         0.4460    0.4570    1.4380 c3        1 183      0.071400
      4 OAT         1.0620   -0.7200    1.9590 os        1 183     -0.426600
      5 CAR         2.2360   -0.4940    2.7240 c3        1 183      0.293800
      6 NBC         1.9840    0.0170    4.0600 n         1 183     -0.399000
      7 CBB         1.7650   -0.9060    5.1220 c         1 183      0.809500
      8 OAB         1.9530   -2.1300    4.9610 o         1 183     -0.632500
      9 NAS         1.3710   -0.4030    6.3700 n         1 183     -0.583500
     10 CBA         1.1530    0.9630    6.6170 c         1 183      0.717700
     11 OAA         0.7850    1.3110    7.7520 o         1 183     -0.610500
     12 CAY         1.7600    1.3690    4.2750 cc        1 183      0.037600
     13 CAZ         1.3840    1.8770    5.4810 cd        1 183     -0.248400
     14 CAQ         1.2140    3.3310    5.7340 c3        1 183      0.019100
     15 CAW         0.6030    4.0610    4.5850 ca        1 183     -0.054300
     16 CAK        -0.7880    4.2140    4.5100 ca        1 183     -0.152000
     17 CAH        -1.3580    4.9100    3.4480 ca        1 183     -0.091000
     18 CAL        -0.5610    5.4620    2.4450 ca        1 183     -0.204000
     19 CAM         1.4170    4.6110    3.5940 ca        1 183     -0.172000
     20 CAX         0.8280    5.3090    2.5230 ca        1 183      0.126100
     21 OAU         1.7300    5.7900    1.5930 os        1 183     -0.330900
     22 CAP         1.1670    6.5800    0.5350 c3        1 183      0.175700
     23 CAV         2.2930    7.0640   -0.3180 ca        1 183     -0.097300
     24 CAJ         2.0770    7.2460   -1.6890 ca        1 183     -0.112500
     25 CAG         3.1010    7.7360   -2.4970 ca        1 183     -0.131000
     26 CAE         4.3460    8.0390   -1.9430 ca        1 183     -0.123000
     27 CAF         4.5650    7.8510   -0.5790 ca        1 183     -0.131000
     28 CAI         3.5410    7.3670    0.2340 ca        1 183     -0.112500
     29 HAC        -1.3290   -1.3780    1.7390 ho        1 183      0.415000
     30 HAN1       -0.2670   -0.7430   -0.2380 h1        1 183      0.055700
     31 HAN2       -1.1520    0.8510    0.0140 h1        1 183      0.055700
     32 HAO1        1.1940    1.0590    0.8600 h1        1 183      0.044700
     33 HAO2        0.0300    1.0710    2.2800 h1        1 183      0.044700
     34 HAR1        2.6940   -1.5260    2.8110 h2        1 183      0.091200
     35 HAR2        2.9180    0.2310    2.1950 h2        1 183      0.091200
     36 HAS         1.2270   -1.0670    7.1020 hn        1 183      0.354500
     37 HAY         1.9250    2.0290    3.3980 h4        1 183      0.171000
     38 HAQ1        0.5730    3.4680    6.6510 hc        1 183      0.076700
     39 HAQ2        2.2220    3.7740    5.9700 hc        1 183      0.076700
     40 HAK        -1.4280    3.7850    5.2950 ha        1 183      0.144000
     41 HAH        -2.4510    5.0290    3.3960 ha        1 183      0.137000
     42 HAL        -1.0300    6.0090    1.6160 ha        1 183      0.139000
     43 HAM         2.5110    4.5200    3.6410 ha        1 183      0.147000
     44 HAP1        0.4560    5.9450   -0.0590 h1        1 183      0.049200
     45 HAP2        0.6140    7.4530    0.9780 h1        1 183      0.049200
     46 HAJ         1.0990    7.0040   -2.1290 ha        1 183      0.139000
     47 HAG         2.9270    7.8820   -3.5730 ha        1 183      0.133500
     48 HAE         5.1530    8.4240   -2.5830 ha        1 183      0.133000
     49 HAF         5.5460    8.0860   -0.1410 ha        1 183      0.133500
     50 HAI         3.7100    7.2120    1.3110 ha        1 183      0.139000
@<TRIPOS>BOND
     1    1    2 1   
     2    1   29 1   
     3    2    3 1   
     4    2   30 1   
     5    2   31 1   
     6    3    4 1   
     7    3   32 1   
     8    3   33 1   
     9    4    5 1   
    10    5    6 1   
    11    5   34 1   
    12    5   35 1   
    13    6    7 1   
    14    6   12 1   
    15    7    8 2   
    16    7    9 1   
    17    9   10 1   
    18    9   36 1   
    19   10   11 2   
    20   10   13 1   
    21   12   13 2   
    22   12   37 1   
    23   13   14 1   
    24   14   15 1   
    25   14   38 1   
    26   14   39 1   
    27   15   16 ar  
    28   15   19 ar  
    29   16   17 ar  
    30   16   40 1   
    31   17   18 ar  
    32   17   41 1   
    33   18   20 ar  
    34   18   42 1   
    35   19   20 ar  
    36   19   43 1   
    37   20   21 1   
    38   21   22 1   
    39   22   23 1   
    40   22   44 1   
    41   22   45 1   
    42   23   24 ar  
    43   23   28 ar  
    44   24   25 ar  
    45   24   46 1   
    46   25   26 ar  
    47   25   47 1   
    48   26   27 ar  
    49   26   48 1   
    50   27   28 ar  
    51   27   49 1   
    52   28   50 1   
@<TRIPOS>SUBSTRUCTURE
     1 183         1 TEMP              0 ****  ****    0 ROOT
