@<TRIPOS>MOLECULE
184
   56    52     1     0     0
SMALL
bcc


@<TRIPOS>ATOM
      1 C1          2.2620    3.1930    8.3400 c1        1 184      0.356000
      2 C2          1.9820    2.6130    6.9590 c1        1 184     -0.096000
      3 C3          2.2840    1.2580    6.8100 c2        1 184     -0.079000
      4 C4          1.9540    0.5960    5.6290 c1        1 184     -0.170000
      5 C5          1.3150    1.2960    4.5810 c1        1 184     -0.043000
      6 C10         1.0170    2.6350    4.7290 c1        1 184     -0.043000
      7 C11         1.3520    3.3050    5.9270 c1        1 184     -0.115000
      8 C15        -0.1880   -0.5120   -2.5610 c1        1 184     -0.061000
      9 C16         0.5560   -1.0920   -3.8500 c2        1 184     -0.010000
     10 C17        -0.2530   -1.8040   -4.7890 c3        1 184     -0.147000
     11 C18        -1.3310   -2.6180   -4.2480 c3        1 184     -0.147000
     12 C19        -2.2400   -1.9700   -3.3490 c3        1 184     -0.011000
     13 C20        -1.6080   -0.8780   -2.3630 c2        1 184     -0.057000
     14 C23         1.6730   -2.0400   -3.3690 c3        1 184     -0.202000
     15 C24         1.2150    0.0890   -4.5910 c3        1 184     -0.202000
     16 C25        -2.8850   -3.0640   -2.4750 c3        1 184     -0.202000
     17 C26        -3.3090   -1.2560   -4.2060 c3        1 184     -0.202000
     18 O1          2.0850    2.4840    9.3690 o         1 184     -0.560500
     19 O2          2.6480    4.3890    8.4560 o         1 184     -0.560500
     20 C6          0.9800    0.6260    3.3830 c1        1 184     -0.105500
     21 C7          0.3490    1.3180    2.3490 c1        1 184     -0.138000
     22 C8          0.0470    2.6740    2.4980 c1        1 184     -0.146000
     23 C9          0.3770    3.3360    3.6800 c1        1 184     -0.105500
     24 C13        -0.1510    0.4700   -0.3380 c1        1 184     -0.105000
     25 C14         0.5040    0.1480   -1.5550 c2        1 184     -0.121000
     26 C21        -2.2440   -0.5620   -1.1710 c2        1 184     -0.133000
     27 C22        -1.5340    0.1120   -0.1450 c1        1 184     -0.111000
     28 C12         0.6430    1.1810    0.8140 c3        1 184      0.113000
     29 O3          0.8140   -0.1990    1.2180 oh        1 184     -0.329000
     30 H3          2.6950    0.7630    7.5520 ha        1 184      0.158000
     31 H4          2.1670   -0.3570    5.5250 ha        1 184      0.111000
     32 H11         1.1160    4.2510    6.0420 ha        1 184      0.155000
     33 H171       -0.6510   -1.1480   -5.4050 hc        1 184      0.077500
     34 H172        0.3380   -2.3940   -5.3120 hc        1 184      0.077500
     35 H181       -1.8590   -2.9510   -5.0090 hc        1 184      0.079500
     36 H182       -0.9180   -3.3650   -3.7590 hc        1 184      0.079500
     37 H231        1.8860   -2.6840   -4.0820 hc        1 184      0.074333
     38 H232        2.4770   -1.5150   -3.1490 hc        1 184      0.074333
     39 H233        1.3690   -2.5240   -2.5700 hc        1 184      0.074333
     40 H241        0.5280    0.5900   -5.0860 hc        1 184      0.074333
     41 H242        1.6480    0.6830   -3.9400 hc        1 184      0.074333
     42 H243        1.8890   -0.2540   -5.2210 hc        1 184      0.074333
     43 H251       -2.8370   -3.9280   -2.9420 hc        1 184      0.074500
     44 H252       -3.8280   -2.8350   -2.3050 hc        1 184      0.074500
     45 H253       -2.4040   -3.1270   -1.6200 hc        1 184      0.074500
     46 H261       -3.7840   -0.5950   -3.6540 hc        1 184      0.074500
     47 H262       -3.9510   -1.9190   -4.5490 hc        1 184      0.074500
     48 H263       -2.8730   -0.8010   -4.9600 hc        1 184      0.074500
     49 H6          1.1640   -0.3340    3.2900 ha        1 184      0.122500
     50 H8         -0.4310    3.1510    1.7860 ha        1 184      0.116000
     51 H9          0.1650    4.2890    3.7850 ha        1 184      0.122500
     52 H14         1.4300    0.4330   -1.7040 ha        1 184      0.143000
     53 H21        -3.1860   -0.8040   -1.0380 ha        1 184      0.129000
     54 H22        -1.9820    0.3280    0.7010 ha        1 184      0.149000
     55 H12        -0.1490    1.7560    0.7800 h1        1 184      0.116000
     56 HO3         1.6690   -0.4370    1.1120 ho        1 184      0.202000
@<TRIPOS>BOND
     1    1   18 1   
     2    1   19 1   
     3    2    3 1   
     4    2    7 1   
     5    3    4 1   
     6    3   30 1   
     7    4   31 1   
     8    5    6 1   
     9    5   20 1   
    10    6   23 1   
    11    7   32 1   
    12    8   13 1   
    13    8   25 1   
    14    9   10 1   
    15    9   14 1   
    16    9   15 1   
    17   10   11 1   
    18   10   33 1   
    19   10   34 1   
    20   11   12 1   
    21   11   35 1   
    22   11   36 1   
    23   12   13 1   
    24   12   16 1   
    25   12   17 1   
    26   13   26 1   
    27   14   37 1   
    28   14   38 1   
    29   14   39 1   
    30   15   40 1   
    31   15   41 1   
    32   15   42 1   
    33   16   43 1   
    34   16   44 1   
    35   16   45 1   
    36   17   46 1   
    37   17   47 1   
    38   17   48 1   
    39   20   49 1   
    40   21   22 1   
    41   21   28 1   
    42   22   50 1   
    43   23   51 1   
    44   24   25 1   
    45   24   28 1   
    46   25   52 1   
    47   26   27 1   
    48   26   53 1   
    49   27   54 1   
    50   28   29 1   
    51   28   55 1   
    52   29   56 1   
@<TRIPOS>SUBSTRUCTURE
     1 184         1 TEMP              0 ****  ****    0 ROOT
