@<TRIPOS>MOLECULE
184
   56    59     1     0     0
SMALL
bcc


@<TRIPOS>ATOM
      1 C1          1.9200    1.2910    6.0980 c         1 184      0.907200
      2 C2          1.0990    0.8610    4.8880 ca        1 184     -0.116600
      3 C3          1.1240   -0.4970    4.4770 ca        1 184     -0.079000
      4 C4          0.4000   -0.9180    3.3890 ca        1 184     -0.171000
      5 C5         -0.3910    0.0030    2.6500 ca        1 184     -0.045000
      6 C10        -0.4230    1.3640    3.0580 ca        1 184     -0.041000
      7 C11         0.3360    1.7690    4.1870 ca        1 184     -0.115000
      8 C15         0.1400    0.0210   -2.9260 ca        1 184     -0.061300
      9 C16         1.4180    0.7910   -3.1320 c3        1 184     -0.004700
     10 C17         2.3220    0.1020   -4.1550 c3        1 184     -0.069400
     11 C18         1.5600   -0.3770   -5.3650 c3        1 184     -0.068400
     12 C19         0.4990   -1.4190   -5.0070 c3        1 184     -0.003700
     13 C20        -0.2750   -1.0120   -3.7820 ca        1 184     -0.066300
     14 C23         2.1980    0.8860   -1.8210 c3        1 184     -0.085600
     15 C24         1.0830    2.2030   -3.6040 c3        1 184     -0.085600
     16 C25        -0.4360   -1.5510   -6.2090 c3        1 184     -0.083600
     17 C26         1.1630   -2.7700   -4.7560 c3        1 184     -0.083600
     18 O1          1.8830    2.5070    6.4330 o         1 184     -0.825300
     19 O2          2.5920    0.4040    6.6960 o         1 184     -0.825300
     20 C6         -1.1450   -0.3980    1.5160 ca        1 184     -0.103000
     21 C7         -1.9030    0.5120    0.8100 ca        1 184     -0.145300
     22 C8         -1.9370    1.8690    1.2240 ca        1 184     -0.146000
     23 C9         -1.2160    2.2810    2.3160 ca        1 184     -0.109000
     24 C13        -1.8450   -0.3220   -1.5460 ca        1 184     -0.112300
     25 C14        -0.6630    0.3630   -1.8270 ca        1 184     -0.110000
     26 C21        -1.4580   -1.7060   -3.4840 ca        1 184     -0.138000
     27 C22        -2.2370   -1.3710   -2.3840 ca        1 184     -0.124000
     28 C12        -2.7100    0.0970   -0.3870 c3        1 184      0.238700
     29 O3         -3.6580   -0.9120   -0.0610 oh        1 184     -0.600800
     30 H3          1.7470   -1.1900    5.0680 ha        1 184      0.158000
     31 H4          0.4190   -1.9700    3.0690 ha        1 184      0.111000
     32 H11         0.3210    2.8220    4.5140 ha        1 184      0.155000
     33 H171        2.8330   -0.7690   -3.6640 hc        1 184      0.041700
     34 H172        3.1210    0.8200   -4.4770 hc        1 184      0.041700
     35 H181        2.2740   -0.8240   -6.1050 hc        1 184      0.038200
     36 H182        1.0620    0.4950   -5.8640 hc        1 184      0.038200
     37 H231        1.6960    1.5780   -1.1050 hc        1 184      0.038367
     38 H232        2.2830   -0.1190   -1.3450 hc        1 184      0.038367
     39 H233        3.2250    1.2770   -2.0210 hc        1 184      0.038367
     40 H241        0.4190    2.7070   -2.8620 hc        1 184      0.038367
     41 H242        2.0190    2.8010   -3.7110 hc        1 184      0.038367
     42 H243        0.5590    2.1760   -4.5890 hc        1 184      0.038367
     43 H251       -1.0920   -2.4480   -6.1080 hc        1 184      0.033867
     44 H252       -1.0810   -0.6450   -6.2990 hc        1 184      0.033867
     45 H253        0.1640   -1.6610   -7.1440 hc        1 184      0.033867
     46 H261        0.3920   -3.5340   -4.4930 hc        1 184      0.033867
     47 H262        1.7050   -3.1070   -5.6720 hc        1 184      0.033867
     48 H263        1.8910   -2.6990   -3.9140 hc        1 184      0.033867
     49 H6         -1.1020   -1.4530    1.2060 ha        1 184      0.117000
     50 H8         -2.5520    2.5830    0.6580 ha        1 184      0.116000
     51 H9         -1.2390    3.3330    2.6410 ha        1 184      0.128000
     52 H14        -0.3530    1.1830   -1.1570 ha        1 184      0.150000
     53 H21        -1.7780   -2.5360   -4.1320 ha        1 184      0.123000
     54 H22        -3.1650   -1.9210   -2.1670 ha        1 184      0.141000
     55 H12        -3.3610    0.9580   -0.7320 h1        1 184      0.076700
     56 HO3        -3.1910   -1.6010    0.4260 ho        1 184      0.403000
@<TRIPOS>BOND
     1    1    2 1   
     2    1   18 1   
     3    1   19 1   
     4    2    3 ar  
     5    2    7 ar  
     6    3    4 ar  
     7    3   30 1   
     8    4    5 ar  
     9    4   31 1   
    10    5    6 ar  
    11    5   20 ar  
    12    6    7 ar  
    13    6   23 ar  
    14    7   32 1   
    15    8    9 1   
    16    8   13 ar  
    17    8   25 ar  
    18    9   10 1   
    19    9   14 1   
    20    9   15 1   
    21   10   11 1   
    22   10   33 1   
    23   10   34 1   
    24   11   12 1   
    25   11   35 1   
    26   11   36 1   
    27   12   13 1   
    28   12   16 1   
    29   12   17 1   
    30   13   26 ar  
    31   14   37 1   
    32   14   38 1   
    33   14   39 1   
    34   15   40 1   
    35   15   41 1   
    36   15   42 1   
    37   16   43 1   
    38   16   44 1   
    39   16   45 1   
    40   17   46 1   
    41   17   47 1   
    42   17   48 1   
    43   20   21 ar  
    44   20   49 1   
    45   21   22 ar  
    46   21   28 1   
    47   22   23 ar  
    48   22   50 1   
    49   23   51 1   
    50   24   25 ar  
    51   24   27 ar  
    52   24   28 1   
    53   25   52 1   
    54   26   27 ar  
    55   26   53 1   
    56   27   54 1   
    57   28   29 1   
    58   28   55 1   
    59   29   56 1   
@<TRIPOS>SUBSTRUCTURE
     1 184         1 TEMP              0 ****  ****    0 ROOT
