@<TRIPOS>MOLECULE
184
   56    59     1     0     0
SMALL
bcc


@<TRIPOS>ATOM
      1 C1          0.1790   -0.1330   -1.6970 c         1 184      0.907200
      2 C2          1.6370    0.0080   -1.2780 ca        1 184     -0.116600
      3 C3          1.9620    0.7930   -0.1410 ca        1 184     -0.079000
      4 C4          3.2670    0.9450    0.2610 ca        1 184     -0.171000
      5 C5          4.3200    0.3160   -0.4560 ca        1 184     -0.045000
      6 C10         4.0010   -0.4740   -1.5940 ca        1 184     -0.041000
      7 C11         2.6430   -0.6130   -1.9850 ca        1 184     -0.115000
      8 C15         8.7470    3.4390   -1.8750 ca        1 184     -0.061300
      9 C16         8.2440    4.1990   -3.0740 c3        1 184     -0.004700
     10 C17         8.6200    5.6790   -2.9910 c3        1 184     -0.069400
     11 C18        10.0460    5.8850   -2.5480 c3        1 184     -0.068400
     12 C19        10.3040    5.3310   -1.1460 c3        1 184     -0.003700
     13 C20         9.6860    3.9690   -0.9750 ca        1 184     -0.066300
     14 C23         6.7200    4.1180   -3.1530 c3        1 184     -0.085600
     15 C24         8.8310    3.5850   -4.3420 c3        1 184     -0.085600
     16 C25        11.8190    5.2560   -0.9550 c3        1 184     -0.083600
     17 C26         9.7280    6.2800   -0.0990 c3        1 184     -0.083600
     18 O1         -0.0770   -0.8310   -2.7170 o         1 184     -0.825300
     19 O2         -0.6910    0.4600   -0.9980 o         1 184     -0.825300
     20 C6          5.6780    0.4580   -0.0720 ca        1 184     -0.103000
     21 C7          6.6860   -0.1570   -0.7830 ca        1 184     -0.145300
     22 C8          6.3640   -0.9500   -1.9150 ca        1 184     -0.146000
     23 C9          5.0570   -1.1020   -2.3080 ca        1 184     -0.109000
     24 C13         8.6410    1.3860   -0.5590 ca        1 184     -0.112300
     25 C14         8.2510    2.1440   -1.6620 ca        1 184     -0.110000
     26 C21        10.0620    3.2060    0.1410 ca        1 184     -0.138000
     27 C22         9.5510    1.9310    0.3520 ca        1 184     -0.124000
     28 C12         8.1270   -0.0190   -0.3810 c3        1 184      0.238700
     29 O3          8.3520   -0.4840    0.9450 oh        1 184     -0.600800
     30 H3          1.1260    1.2700    0.3960 ha        1 184      0.158000
     31 H4          3.5200    1.5530    1.1410 ha        1 184      0.111000
     32 H11         2.3820   -1.2220   -2.8660 ha        1 184      0.155000
     33 H171        7.9260    6.1930   -2.2740 hc        1 184      0.041700
     34 H172        8.4690    6.1500   -3.9980 hc        1 184      0.041700
     35 H181       10.7410    5.3840   -3.2730 hc        1 184      0.038200
     36 H182       10.2870    6.9810   -2.5560 hc        1 184      0.038200
     37 H231        6.3420    4.8400   -3.9170 hc        1 184      0.038367
     38 H232        6.2650    4.3680   -2.1650 hc        1 184      0.038367
     39 H233        6.3880    3.0940   -3.4480 hc        1 184      0.038367
     40 H241        9.9430    3.6760   -4.3450 hc        1 184      0.038367
     41 H242        8.5630    2.5030   -4.4030 hc        1 184      0.038367
     42 H243        8.4250    4.1060   -5.2420 hc        1 184      0.038367
     43 H251       12.2460    4.4280   -1.5700 hc        1 184      0.033867
     44 H252       12.2880    6.2190   -1.2720 hc        1 184      0.033867
     45 H253       12.0780    5.0770    0.1150 hc        1 184      0.033867
     46 H261        9.9130    5.8790    0.9260 hc        1 184      0.033867
     47 H262        8.6270    6.3970   -0.2400 hc        1 184      0.033867
     48 H263       10.2100    7.2830   -0.1840 hc        1 184      0.033867
     49 H6          5.9110    1.0820    0.8050 ha        1 184      0.117000
     50 H8          7.1750   -1.4430   -2.4700 ha        1 184      0.116000
     51 H9          4.8020   -1.7160   -3.1850 ha        1 184      0.128000
     52 H14         7.5250    1.7130   -2.3720 ha        1 184      0.150000
     53 H21        10.7750    3.6230    0.8680 ha        1 184      0.123000
     54 H22         9.8600    1.3420    1.2290 ha        1 184      0.141000
     55 H12         8.7720   -0.7070   -1.0080 h1        1 184      0.076700
     56 HO3         7.6860   -0.0770    1.5110 ho        1 184      0.403000
@<TRIPOS>BOND
     1    1    2 1   
     2    1   18 1   
     3    1   19 1   
     4    2    3 ar  
     5    2    7 ar  
     6    3    4 ar  
     7    3   30 1   
     8    4    5 ar  
     9    4   31 1   
    10    5    6 ar  
    11    5   20 ar  
    12    6    7 ar  
    13    6   23 ar  
    14    7   32 1   
    15    8    9 1   
    16    8   13 ar  
    17    8   25 ar  
    18    9   10 1   
    19    9   14 1   
    20    9   15 1   
    21   10   11 1   
    22   10   33 1   
    23   10   34 1   
    24   11   12 1   
    25   11   35 1   
    26   11   36 1   
    27   12   13 1   
    28   12   16 1   
    29   12   17 1   
    30   13   26 ar  
    31   14   37 1   
    32   14   38 1   
    33   14   39 1   
    34   15   40 1   
    35   15   41 1   
    36   15   42 1   
    37   16   43 1   
    38   16   44 1   
    39   16   45 1   
    40   17   46 1   
    41   17   47 1   
    42   17   48 1   
    43   20   21 ar  
    44   20   49 1   
    45   21   22 ar  
    46   21   28 1   
    47   22   23 ar  
    48   22   50 1   
    49   23   51 1   
    50   24   25 ar  
    51   24   27 ar  
    52   24   28 1   
    53   25   52 1   
    54   26   27 ar  
    55   26   53 1   
    56   27   54 1   
    57   28   29 1   
    58   28   55 1   
    59   29   56 1   
@<TRIPOS>SUBSTRUCTURE
     1 184         1 TEMP              0 ****  ****    0 ROOT
