@<TRIPOS>MOLECULE
185
   45    40     1     0     0
SMALL
bcc


@<TRIPOS>ATOM
      1 C1          0.3330   -2.9160    0.9190 c1        1 185      0.062000
      2 O17        -0.1440   -2.8840   -0.3820 o         1 185     -0.135000
      3 C2          1.7230   -2.8870    1.1580 c2        1 185     -0.052000
      4 C2'         2.7100   -2.8960   -0.0410 c3        1 185     -0.180000
      5 C3          2.2050   -2.9960    2.4620 c1        1 185     -0.098000
      6 C4          1.3060   -3.1330    3.5350 c1        1 185     -0.012500
      7 C5         -0.0780   -3.1600    3.2930 c1        1 185     -0.087000
      8 C6         -0.5630   -3.0530    1.9920 c1        1 185     -0.050000
      9 C6'        -2.0560   -3.2850    1.7170 c3        1 185     -0.181000
     10 C13        -0.5850   -1.5700   -0.6980 c2        1 185      0.218000
     11 N12        -0.1770   -0.5240    0.0600 n2        1 185     -0.275000
     12 C11        -0.4160    0.7690   -0.3600 c1        1 185      0.203000
     13 N5         -0.0730    1.8910    0.5130 n2        1 185     -0.237000
     14 N16        -1.0640    0.9940   -1.5370 n2        1 185     -0.217000
     15 C15        -1.4720   -0.0520   -2.2960 c1        1 185      0.061000
     16 C18        -2.2940    0.2010   -3.5890 c2        1 185      0.015000
     17 C14        -1.2320   -1.3440   -1.8760 c2        1 185     -0.350000
     18 C21         0.2000    3.1800   -0.0500 c2        1 185      0.078000
     19 C22         1.4720    3.4820   -0.5030 c2        1 185     -0.172000
     20 C23         1.7460    4.7420   -1.0100 c1        1 185     -0.075000
     21 C24         0.7410    5.7010   -1.0630 c1        1 185     -0.012500
     22 C25        -0.5300    5.3970   -0.6100 c1        1 185     -0.087000
     23 C26        -0.8020    4.1380   -0.1030 c1        1 185     -0.118000
     24 C27         1.0180    7.0570   -1.6790 c1        1 185     -0.097500
     25 N27         1.2230    8.0790   -2.1430 n1        1 185     -0.032500
     26 C4'         1.8360   -3.2540    4.9810 c1        1 185     -0.097500
     27 N4'         2.2480   -3.3450    6.0910 n1        1 185     -0.032500
     28 O18        -3.4490   -0.6390   -3.5960 oh        1 185     -0.303000
     29 BR         -1.5270   -2.9820   -2.8620 br        1 185      0.103000
     30 H2'1        2.3660   -3.5120   -0.7470 hc        1 185      0.093667
     31 H2'2        3.6080   -3.2110    0.2660 hc        1 185      0.093667
     32 H2'3        2.7880   -1.9950   -0.4040 hc        1 185      0.093667
     33 H3          3.1770   -2.9760    2.6320 ha        1 185      0.150000
     34 H5         -0.6910   -3.2540    4.0270 ha        1 185      0.151000
     35 H6'1       -2.1580   -3.9250    0.9760 hc        1 185      0.094667
     36 H6'2       -2.4890   -2.4210    1.4730 hc        1 185      0.094667
     37 H6'3       -2.4990   -3.6620    2.5540 hc        1 185      0.094667
     38 HN5         0.0020    1.7630    1.4010 hn        1 185      0.251000
     39 H181       -2.5800    1.1630   -3.6180 h4        1 185      0.116000
     40 H182       -1.7240   -0.0070   -4.3930 h4        1 185      0.116000
     41 H22         2.1910    2.7950   -0.4640 ha        1 185      0.141000
     42 H23         2.6160    4.9490   -1.3200 ha        1 185      0.149000
     43 H25        -1.2450    6.0800   -0.6480 ha        1 185      0.151000
     44 H26        -1.6970    3.9260    0.2150 ha        1 185      0.166000
     45 H18        -3.9670   -0.4240   -4.2760 ho        1 185      0.206000
@<TRIPOS>BOND
     1    1    3 1   
     2    1    8 1   
     3    2   10 1   
     4    3    4 1   
     5    3    5 1   
     6    4   30 1   
     7    4   31 1   
     8    4   32 1   
     9    5   33 1   
    10    6    7 1   
    11    6   26 1   
    12    7   34 1   
    13    8    9 1   
    14    9   35 1   
    15    9   36 1   
    16    9   37 1   
    17   10   11 1   
    18   10   17 1   
    19   11   12 1   
    20   12   14 1   
    21   13   18 1   
    22   13   38 1   
    23   14   15 1   
    24   15   17 1   
    25   16   28 1   
    26   16   39 1   
    27   16   40 1   
    28   17   29 1   
    29   18   19 1   
    30   18   23 1   
    31   19   20 1   
    32   19   41 1   
    33   20   42 1   
    34   21   22 1   
    35   21   24 1   
    36   22   43 1   
    37   23   44 1   
    38   24   25 1   
    39   26   27 1   
    40   28   45 1   
@<TRIPOS>SUBSTRUCTURE
     1 185         1 TEMP              0 ****  ****    0 ROOT
