@<TRIPOS>MOLECULE
185
   45    47     1     0     0
SMALL
bcc


@<TRIPOS>ATOM
      1 C1          0.0720    0.0180    0.2150 ca        1 185      0.107100
      2 O17        -0.6490    0.1710   -0.9780 os        1 185     -0.349400
      3 C2          1.4700   -0.1040    0.1510 ca        1 185     -0.058800
      4 C2'         2.1930    0.0450   -1.1320 c3        1 185     -0.055300
      5 C3          2.1650   -0.3920    1.3290 ca        1 185     -0.097000
      6 C4          1.4740   -0.5490    2.5370 ca        1 185     -0.004000
      7 C5          0.0800   -0.4240    2.5810 ca        1 185     -0.097000
      8 C6         -0.6400   -0.1360    1.4170 ca        1 185     -0.058800
      9 C6'        -2.1150   -0.0210    1.4550 c3        1 185     -0.055300
     10 C13        -0.9140    1.4560   -1.4170 ca        1 185      0.716600
     11 N12        -0.4840    2.5140   -0.6960 nb        1 185     -0.803000
     12 C11        -0.7910    3.7670   -1.2120 ca        1 185      0.926900
     13 N5         -0.2830    4.8610   -0.4960 nu        1 185     -0.718300
     14 N16        -1.5130    3.9800   -2.3740 nb        1 185     -0.764000
     15 C15        -1.9130    2.8940   -3.0650 ca        1 185      0.486600
     16 C18        -2.7020    3.0980   -4.3450 c3        1 185      0.074100
     17 C14        -1.6500    1.5680   -2.6340 ca        1 185     -0.339500
     18 C21        -0.6700    6.1960   -0.7310 ca        1 185      0.161600
     19 C22        -1.0670    6.9980    0.3650 ca        1 185     -0.147500
     20 C23        -1.3820    8.3380    0.1790 ca        1 185     -0.076000
     21 C24        -1.3140    8.9090   -1.0990 ca        1 185     -0.030000
     22 C25        -0.9160    8.1230   -2.1890 ca        1 185     -0.076000
     23 C26        -0.5910    6.7820   -2.0120 ca        1 185     -0.147500
     24 C27        -1.6440   10.2780   -1.2870 cg        1 185      0.232800
     25 N27        -1.9150   11.3990   -1.4410 n1        1 185     -0.359800
     26 C4'         2.1930   -0.8370    3.7290 cg        1 185      0.230800
     27 N4'         2.7820   -1.0720    4.7050 n1        1 185     -0.356800
     28 O18        -2.6370    4.3880   -4.8990 oh        1 185     -0.577800
     29 Br         -2.2400    0.0870   -3.5890 br        1 185     -0.031100
     30 H2'1        3.2820    0.2330   -0.9630 hc        1 185      0.054367
     31 H2'2        1.7700    0.8950   -1.7230 hc        1 185      0.054367
     32 H2'3        2.0820   -0.8880   -1.7410 hc        1 185      0.054367
     33 H3          3.2610   -0.4940    1.3040 ha        1 185      0.150500
     34 H5         -0.4560   -0.5510    3.5350 ha        1 185      0.150500
     35 H6'1       -2.4770    0.1950    2.4900 hc        1 185      0.054367
     36 H6'2       -2.4620    0.7970    0.7750 hc        1 185      0.054367
     37 H6'3       -2.5780   -0.9800    1.1080 hc        1 185      0.054367
     38 HN5         0.0360    4.6620    0.4310 hn        1 185      0.456800
     39 H181       -2.2780    2.4340   -5.1510 h1        1 185      0.076700
     40 H182       -3.7710    2.8130   -4.1330 h1        1 185      0.076700
     41 H22        -1.1290    6.5710    1.3780 ha        1 185      0.154000
     42 H23        -1.6900    8.9520    1.0400 ha        1 185      0.150000
     43 H25        -0.8540    8.5680   -3.1940 ha        1 185      0.150000
     44 H26        -0.2690    6.1920   -2.8850 ha        1 185      0.154000
     45 H18        -2.9700    5.0180   -4.2470 ho        1 185      0.415000
@<TRIPOS>BOND
     1    1    2 1   
     2    1    3 ar  
     3    1    8 ar  
     4    2   10 1   
     5    3    4 1   
     6    3    5 ar  
     7    4   30 1   
     8    4   31 1   
     9    4   32 1   
    10    5    6 ar  
    11    5   33 1   
    12    6    7 ar  
    13    6   26 1   
    14    7    8 ar  
    15    7   34 1   
    16    8    9 1   
    17    9   35 1   
    18    9   36 1   
    19    9   37 1   
    20   10   11 ar  
    21   10   17 ar  
    22   11   12 ar  
    23   12   13 1   
    24   12   14 ar  
    25   13   18 1   
    26   13   38 1   
    27   14   15 ar  
    28   15   16 1   
    29   15   17 ar  
    30   16   28 1   
    31   16   39 1   
    32   16   40 1   
    33   17   29 1   
    34   18   19 ar  
    35   18   23 ar  
    36   19   20 ar  
    37   19   41 1   
    38   20   21 ar  
    39   20   42 1   
    40   21   22 ar  
    41   21   24 1   
    42   22   23 ar  
    43   22   43 1   
    44   23   44 1   
    45   24   25 3   
    46   26   27 3   
    47   28   45 1   
@<TRIPOS>SUBSTRUCTURE
     1 185         1 TEMP              0 ****  ****    0 ROOT
