@<TRIPOS>MOLECULE
185
   46    48     1     0     0
SMALL
bcc


@<TRIPOS>ATOM
      1 C1         -0.2240    0.4730    0.2700 ca        1 185      0.064100
      2 O17        -0.9450    0.5340   -0.9390 os        1 185     -0.315400
      3 C2          1.0870   -0.0280    0.2460 ca        1 185     -0.052800
      4 C2'         1.7590   -0.3970   -1.0200 c3        1 185     -0.059300
      5 C3          1.7430   -0.2090    1.4680 ca        1 185     -0.099000
      6 C4          1.0970    0.1050    2.6710 ca        1 185      0.026000
      7 C5         -0.2160    0.5910    2.6700 ca        1 185     -0.099000
      8 C6         -0.8970    0.7840    1.4630 ca        1 185     -0.052800
      9 C6'        -2.2970    1.2630    1.4640 c3        1 185     -0.059300
     10 C13        -0.9000    1.6930   -1.6680 ca        1 185      0.714600
     11 N12        -0.1670    2.7570   -1.2350 nb        1 185     -0.736000
     12 C11        -0.2050    3.8500   -2.0560 ca        1 185      0.751900
     13 N5          0.6020    5.0340   -1.6040 n4        1 185     -0.611100
     14 N16        -0.8850    3.9960   -3.2270 nb        1 185     -0.682000
     15 C15        -1.6040    2.9150   -3.6370 ca        1 185      0.469600
     16 C18        -2.3430    3.0630   -4.9650 c3        1 185      0.072100
     17 C14        -1.6530    1.7160   -2.8900 ca        1 185     -0.254500
     18 C21        -0.2360    6.0060   -0.8910 ca        1 185     -0.042400
     19 C22        -0.2860    5.9760    0.5140 ca        1 185     -0.093500
     20 C23        -1.0600    6.9190    1.1850 ca        1 185     -0.079500
     21 C24        -1.7840    7.8800    0.4640 ca        1 185      0.064000
     22 C25        -1.7350    7.8960   -0.9380 ca        1 185     -0.079500
     23 C26        -0.9650    6.9590   -1.6230 ca        1 185     -0.093500
     24 C27        -2.5730    8.8390    1.1560 cg        1 185      0.187800
     25 N27        -3.2190    9.6230    1.7220 n1        1 185     -0.265800
     26 C4'         1.7820   -0.0720    3.9050 cg        1 185      0.207800
     27 N4'         2.3410   -0.2150    4.9150 n1        1 185     -0.311800
     28 O18        -1.5620    2.5500   -6.0130 oh        1 185     -0.559800
     29 BR         -2.6360    0.2470   -3.4670 br        1 185      0.041900
     30 H2'1        1.5250   -1.4640   -1.2730 hc        1 185      0.057700
     31 H2'2        1.4030    0.2440   -1.8640 hc        1 185      0.057700
     32 H2'3        2.8680   -0.2930   -0.9320 hc        1 185      0.057700
     33 H3          2.7710   -0.6080    1.4810 ha        1 185      0.163500
     34 H5         -0.7220    0.8170    3.6230 ha        1 185      0.163500
     35 H6'1       -2.5020    1.8960    0.5650 hc        1 185      0.057700
     36 H6'2       -2.9950    0.3860    1.4350 hc        1 185      0.057700
     37 H6'3       -2.5190    1.8590    2.3830 hc        1 185      0.057700
     38 HN5         1.3560    4.7080   -0.9800 hn        1 185      0.481800
     39 H181       -3.3440    2.5600   -4.8860 h1        1 185      0.091200
     40 H182       -2.4910    4.1510   -5.2210 h1        1 185      0.091200
     41 H22         0.2710    5.2210    1.0960 ha        1 185      0.171000
     42 H23        -1.1000    6.9070    2.2880 ha        1 185      0.182500
     43 H25        -2.3070    8.6510   -1.5050 ha        1 185      0.182500
     44 H26        -0.9450    6.9760   -2.7270 ha        1 185      0.171000
     45 H18        -1.6660    1.5890   -6.0270 ho        1 185      0.417000
     46 H52         1.0150    5.4860   -2.4340 hn        1 185      0.481800
@<TRIPOS>BOND
     1    1    2 1   
     2    1    3 ar  
     3    1    8 ar  
     4    2   10 1   
     5    3    4 1   
     6    3    5 ar  
     7    4   30 1   
     8    4   31 1   
     9    4   32 1   
    10    5    6 ar  
    11    5   33 1   
    12    6    7 ar  
    13    6   26 1   
    14    7    8 ar  
    15    7   34 1   
    16    8    9 1   
    17    9   35 1   
    18    9   36 1   
    19    9   37 1   
    20   10   11 ar  
    21   10   17 ar  
    22   11   12 ar  
    23   12   13 1   
    24   12   14 ar  
    25   13   18 1   
    26   13   38 1   
    27   13   46 1   
    28   14   15 ar  
    29   15   16 1   
    30   15   17 ar  
    31   16   28 1   
    32   16   39 1   
    33   16   40 1   
    34   17   29 1   
    35   18   19 ar  
    36   18   23 ar  
    37   19   20 ar  
    38   19   41 1   
    39   20   21 ar  
    40   20   42 1   
    41   21   22 ar  
    42   21   24 1   
    43   22   23 ar  
    44   22   43 1   
    45   23   44 1   
    46   24   25 3   
    47   26   27 3   
    48   28   45 1   
@<TRIPOS>SUBSTRUCTURE
     1 185         1 TEMP              0 ****  ****    0 ROOT
