@<TRIPOS>MOLECULE
185
   45    47     1     0     0
SMALL
bcc


@<TRIPOS>ATOM
      1 C1          0.0940   -0.0020    0.1810 ca        1 185      0.107100
      2 O17        -0.6900    0.1760   -0.9670 os        1 185     -0.350400
      3 C2          1.4870   -0.1260    0.0370 ca        1 185     -0.058300
      4 C2'         2.1390    0.0490   -1.2800 c3        1 185     -0.055300
      5 C3          2.2440   -0.4390    1.1690 ca        1 185     -0.097000
      6 C4          1.6200   -0.6190    2.4100 ca        1 185     -0.004000
      7 C5          0.2310   -0.4920    2.5330 ca        1 185     -0.097000
      8 C6         -0.5510   -0.1790    1.4170 ca        1 185     -0.058300
      9 C6'        -2.0210   -0.0620    1.5380 c3        1 185     -0.055300
     10 C13        -0.9790    1.4700   -1.3630 ca        1 185      0.716600
     11 N12        -0.5040    2.5130   -0.6480 nb        1 185     -0.801000
     12 C11        -0.8340    3.7770   -1.1220 ca        1 185      0.921900
     13 N5         -0.2750    4.8540   -0.4200 nh        1 185     -0.716300
     14 N16        -1.6270    4.0150   -2.2350 nb        1 185     -0.743000
     15 C15        -2.0790    2.9420   -2.9120 ca        1 185      0.483600
     16 C18        -2.9450    3.2270   -4.1310 c3        1 185      0.071100
     17 C14        -1.7880    1.6080   -2.5310 ca        1 185     -0.340500
     18 C21        -0.6800    6.1940   -0.5960 ca        1 185      0.159600
     19 C22        -1.0080    6.9670    0.5430 ca        1 185     -0.145000
     20 C23        -1.3380    8.3090    0.4120 ca        1 185     -0.076500
     21 C24        -1.3570    8.9110   -0.8540 ca        1 185     -0.029000
     22 C25        -1.0300    8.1540   -1.9860 ca        1 185     -0.076500
     23 C26        -0.6880    6.8110   -1.8650 ca        1 185     -0.145000
     24 C27        -1.7040   10.2820   -0.9860 cg        1 185      0.233800
     25 N27        -1.9880   11.4050   -1.0940 n1        1 185     -0.359800
     26 C4'         2.4030   -0.9330    3.5550 cg        1 185      0.230800
     27 N4'         3.0440   -1.1890    4.4920 n1        1 185     -0.356800
     28 O18        -2.2000    3.1370   -5.3230 oh        1 185     -0.575800
     29 BR         -2.4260    0.1440   -3.4850 br        1 185     -0.037100
     30 H2'1        1.9870   -0.8690   -1.9030 hc        1 185      0.054867
     31 H2'2        1.6900    0.9160   -1.8260 hc        1 185      0.054867
     32 H2'3        3.2360    0.2260   -1.1680 hc        1 185      0.054867
     33 H3          3.3370   -0.5420    1.0820 ha        1 185      0.150500
     34 H5         -0.2520   -0.6370    3.5120 ha        1 185      0.150500
     35 H6'1       -2.4020    0.7710    0.8950 hc        1 185      0.054867
     36 H6'2       -2.5060   -1.0120    1.1980 hc        1 185      0.054867
     37 H6'3       -2.3250    0.1330    2.5960 hc        1 185      0.054867
     38 HN5         0.1050    4.6360    0.4790 hn        1 185      0.455800
     39 H181       -3.8150    2.5170   -4.1360 h1        1 185      0.076700
     40 H182       -3.3280    4.2870   -4.1210 h1        1 185      0.076700
     41 H22        -1.0010    6.5140    1.5470 ha        1 185      0.153500
     42 H23        -1.5920    8.9000    1.3060 ha        1 185      0.150000
     43 H25        -1.0380    8.6230   -2.9830 ha        1 185      0.150000
     44 H26        -0.4230    6.2430   -2.7710 ha        1 185      0.153500
     45 H18        -1.9250    2.2170   -5.4320 ho        1 185      0.407000
@<TRIPOS>BOND
     1    1    2 1   
     2    1    3 ar  
     3    1    8 ar  
     4    2   10 1   
     5    3    4 1   
     6    3    5 ar  
     7    4   30 1   
     8    4   31 1   
     9    4   32 1   
    10    5    6 ar  
    11    5   33 1   
    12    6    7 ar  
    13    6   26 1   
    14    7    8 ar  
    15    7   34 1   
    16    8    9 1   
    17    9   35 1   
    18    9   36 1   
    19    9   37 1   
    20   10   11 ar  
    21   10   17 ar  
    22   11   12 ar  
    23   12   13 1   
    24   12   14 ar  
    25   13   18 1   
    26   13   38 1   
    27   14   15 ar  
    28   15   16 1   
    29   15   17 ar  
    30   16   28 1   
    31   16   39 1   
    32   16   40 1   
    33   17   29 1   
    34   18   19 ar  
    35   18   23 ar  
    36   19   20 ar  
    37   19   41 1   
    38   20   21 ar  
    39   20   42 1   
    40   21   22 ar  
    41   21   24 1   
    42   22   23 ar  
    43   22   43 1   
    44   23   44 1   
    45   24   25 3   
    46   26   27 3   
    47   28   45 1   
@<TRIPOS>SUBSTRUCTURE
     1 185         1 TEMP              0 ****  ****    0 ROOT
