@<TRIPOS>MOLECULE
185
   45    47     1     0     0
SMALL
bcc


@<TRIPOS>ATOM
      1 C1          2.9950    0.6960    0.0190 ca        1 185      0.107100
      2 O17         2.4280   -0.5850    0.0860 os        1 185     -0.350400
      3 C2          3.3690    1.2060   -1.2360 ca        1 185     -0.058300
      4 C2'         3.0670    0.4690   -2.4830 c3        1 185     -0.055300
      5 C3          4.0560    2.4230   -1.2780 ca        1 185     -0.097000
      6 C4          4.3540    3.1080   -0.0930 ca        1 185     -0.004000
      7 C5          3.9730    2.5830    1.1480 ca        1 185     -0.097000
      8 C6          3.2840    1.3680    1.2190 ca        1 185     -0.058300
      9 C6'         2.8960    0.8000    2.5290 c3        1 185     -0.055300
     10 C13         1.0490   -0.6900    0.0340 ca        1 185      0.716600
     11 N12         0.2950    0.4240   -0.0810 nb        1 185     -0.801000
     12 C11        -1.0800    0.2270   -0.1350 ca        1 185      0.921900
     13 N5         -1.8520    1.3800   -0.3320 nh        1 185     -0.716300
     14 N16        -1.6970   -1.0110   -0.0470 nb        1 185     -0.743000
     15 C15        -0.9010   -2.0920    0.0700 ca        1 185      0.483600
     16 C18        -1.6020   -3.4400    0.1630 c3        1 185      0.071100
     17 C14         0.5130   -2.0100    0.1150 ca        1 185     -0.340500
     18 C21        -3.2530    1.4160   -0.1740 ca        1 185      0.159600
     19 C22        -3.8270    2.4250    0.6340 ca        1 185     -0.145000
     20 C23        -5.2070    2.5340    0.7500 ca        1 185     -0.076500
     21 C24        -6.0450    1.6390    0.0710 ca        1 185     -0.029000
     22 C25        -5.4850    0.6400   -0.7340 ca        1 185     -0.076500
     23 C26        -4.1040    0.5280   -0.8650 ca        1 185     -0.145000
     24 C27        -7.4560    1.7480    0.1990 cg        1 185      0.233800
     25 N27        -8.6110    1.8370    0.3040 n1        1 185     -0.359800
     26 C4'         5.0490    4.3470   -0.1510 cg        1 185      0.230800
     27 N4'         5.6170    5.3620   -0.1980 n1        1 185     -0.356800
     28 O18        -1.6060   -4.1040   -1.0800 oh        1 185     -0.575800
     29 BR          1.5880   -3.5180    0.2780 br        1 185     -0.037100
     30 H2'1        3.7900   -0.3760   -2.6090 hc        1 185      0.054867
     31 H2'2        2.0350    0.0380   -2.4420 hc        1 185      0.054867
     32 H2'3        3.1410    1.1370   -3.3760 hc        1 185      0.054867
     33 H3          4.3610    2.8430   -2.2490 ha        1 185      0.150500
     34 H5          4.2130    3.1280    2.0740 ha        1 185      0.150500
     35 H6'1        1.8890    0.3170    2.4630 hc        1 185      0.054867
     36 H6'2        3.6350    0.0180    2.8370 hc        1 185      0.054867
     37 H6'3        2.8640    1.5910    3.3180 hc        1 185      0.054867
     38 HN5        -1.3810    2.2490   -0.1780 hn        1 185      0.455800
     39 H181       -1.1010   -4.0580    0.9560 h1        1 185      0.076700
     40 H182       -2.6920   -3.3180    0.4170 h1        1 185      0.076700
     41 H22        -3.1870    3.1380    1.1780 ha        1 185      0.153500
     42 H23        -5.6420    3.3240    1.3830 ha        1 185      0.150000
     43 H25        -6.1390   -0.0630   -1.2740 ha        1 185      0.150000
     44 H26        -3.6920   -0.2600   -1.5150 ha        1 185      0.153500
     45 H18        -0.6920   -4.3220   -1.3030 ho        1 185      0.407000
@<TRIPOS>BOND
     1    1    2 1   
     2    1    3 ar  
     3    1    8 ar  
     4    2   10 1   
     5    3    4 1   
     6    3    5 ar  
     7    4   30 1   
     8    4   31 1   
     9    4   32 1   
    10    5    6 ar  
    11    5   33 1   
    12    6    7 ar  
    13    6   26 1   
    14    7    8 ar  
    15    7   34 1   
    16    8    9 1   
    17    9   35 1   
    18    9   36 1   
    19    9   37 1   
    20   10   11 ar  
    21   10   17 ar  
    22   11   12 ar  
    23   12   13 1   
    24   12   14 ar  
    25   13   18 1   
    26   13   38 1   
    27   14   15 ar  
    28   15   16 1   
    29   15   17 ar  
    30   16   28 1   
    31   16   39 1   
    32   16   40 1   
    33   17   29 1   
    34   18   19 ar  
    35   18   23 ar  
    36   19   20 ar  
    37   19   41 1   
    38   20   21 ar  
    39   20   42 1   
    40   21   22 ar  
    41   21   24 1   
    42   22   23 ar  
    43   22   43 1   
    44   23   44 1   
    45   24   25 3   
    46   26   27 3   
    47   28   45 1   
@<TRIPOS>SUBSTRUCTURE
     1 185         1 TEMP              0 ****  ****    0 ROOT
