@<TRIPOS>MOLECULE
186
   54    49     1     0     0
SMALL
bcc


@<TRIPOS>ATOM
      1 O34        -1.2620    0.3960    1.9150 o         1 186     -0.424000
      2 C18        -0.1590   -0.0620    1.9340 c1        1 186      0.394000
      3 O26         0.8360    0.5330    2.7460 o         1 186     -0.269000
      4 C27         0.7310    1.9420    2.8480 c3        1 186      0.038000
      5 C28         2.1170    2.5400    2.9650 c2        1 186     -0.125000
      6 C33         2.3100    3.7470    3.6650 c1        1 186     -0.105000
      7 C32         3.5840    4.3140    3.7440 c1        1 186     -0.126000
      8 C31         4.6720    3.6810    3.1250 c1        1 186     -0.126000
      9 C30         4.4790    2.4740    2.4250 c1        1 186     -0.137000
     10 C29         3.2040    1.9080    2.3470 c2        1 186     -0.103000
     11 N17         0.1140   -1.3190    1.2600 n3        1 186     -0.335000
     12 C13        -0.5960   -1.6560    0.0820 c3        1 186      0.017000
     13 C16        -0.3270   -3.1040   -0.2730 c3        1 186     -0.131000
     14 C20        -1.4300   -3.9980    0.3350 c2        1 186     -0.091000
     15 C25        -1.0980   -4.9720    1.2590 c2        1 186     -0.131000
     16 C24        -2.0660   -5.8580    1.7120 c1        1 186     -0.125000
     17 C23        -3.3470   -5.7680    1.2440 c1        1 186     -0.126000
     18 C22        -3.6830   -4.7800    0.3070 c1        1 186     -0.126000
     19 C21        -2.7310   -3.9070   -0.1390 c1        1 186     -0.122000
     20 C12        -0.1410   -0.7580   -1.0590 c2        1 186      0.302000
     21 O19         1.0460   -0.5010   -1.1980 o         1 186     -0.398000
     22 N11        -1.0890   -0.3140   -2.0380 n         1 186     -0.365000
     23 C8         -0.6910    0.6340   -3.0530 c3        1 186      0.042000
     24 C14        -0.3280   -0.0970   -4.2980 c3        1 186     -0.220000
     25 C7         -1.8510    1.5910   -3.3390 c2        1 186     -0.130000
     26 C6         -1.6000    2.9070   -3.6390 c1        1 186     -0.217000
     27 C5         -0.1590    3.4190   -3.6890 c1        1 186      0.210000
     28 O10         0.6190    2.9660   -4.5090 o         1 186     -0.256000
     29 C4          0.3070    4.5030   -2.7020 c2        1 186      0.152000
     30 O9          0.4620    5.6620   -3.0890 o         1 186     -0.261000
     31 H271        0.2820    2.3030    2.0340 h1        1 186      0.115500
     32 H272        0.1950    2.1780    3.6560 h1        1 186      0.115500
     33 H33         1.5550    4.1870    4.0950 ha        1 186      0.151000
     34 H32         3.7160    5.1440    4.2250 ha        1 186      0.134000
     35 H31         5.5750    4.0820    3.1800 ha        1 186      0.134000
     36 H30         5.2260    2.0380    1.9980 ha        1 186      0.134000
     37 H29         3.0690    1.0650    1.8570 ha        1 186      0.134000
     38 H17         0.6790   -1.9230    1.6360 hn        1 186      0.249000
     39 H13        -1.5620   -1.5290    0.2320 h1        1 186      0.123000
     40 H161       -0.3240   -3.2060   -1.2490 hc        1 186      0.120000
     41 H162        0.5360   -3.3690    0.0830 hc        1 186      0.120000
     42 H25        -0.1770   -5.0370    1.5950 ha        1 186      0.132000
     43 H24        -1.8230   -6.5680    2.3850 ha        1 186      0.135000
     44 H23        -4.0410   -6.4030    1.5680 ha        1 186      0.134000
     45 H22        -4.6040   -4.7150   -0.0300 ha        1 186      0.134000
     46 H21        -2.9720   -3.2040   -0.8090 ha        1 186      0.134000
     47 H11        -1.9430   -0.6010   -1.9990 hn        1 186      0.255000
     48 H8          0.0850    1.1470   -2.7360 h1        1 186      0.125000
     49 H141        0.2820    0.4500   -4.8310 hc        1 186      0.088667
     50 H142        0.1060   -0.9280   -4.0670 hc        1 186      0.088667
     51 H143       -1.1350   -0.2820   -4.8140 hc        1 186      0.088667
     52 H7         -2.7890    1.2590   -3.3070 ha        1 186      0.135000
     53 H6         -2.3410    3.5160   -3.8190 ha        1 186      0.157000
     54 H4          0.4820    4.2720   -1.7670 h4        1 186      0.153000
@<TRIPOS>BOND
     1    1    2 1   
     2    2   11 1   
     3    3    4 1   
     4    4    5 1   
     5    4   31 1   
     6    4   32 1   
     7    5    6 1   
     8    5   10 1   
     9    6   33 1   
    10    7    8 1   
    11    7   34 1   
    12    8   35 1   
    13    9   10 1   
    14    9   36 1   
    15   10   37 1   
    16   11   12 1   
    17   11   38 1   
    18   12   13 1   
    19   12   20 1   
    20   12   39 1   
    21   13   14 1   
    22   13   40 1   
    23   13   41 1   
    24   14   15 1   
    25   14   19 1   
    26   15   16 1   
    27   15   42 1   
    28   16   43 1   
    29   17   18 1   
    30   17   44 1   
    31   18   45 1   
    32   19   46 1   
    33   20   21 1   
    34   20   22 1   
    35   22   23 1   
    36   22   47 1   
    37   23   24 1   
    38   23   25 1   
    39   23   48 1   
    40   24   49 1   
    41   24   50 1   
    42   24   51 1   
    43   25   26 1   
    44   25   52 1   
    45   26   53 1   
    46   27   28 1   
    47   27   29 1   
    48   29   30 1   
    49   29   54 1   
@<TRIPOS>SUBSTRUCTURE
     1 186         1 TEMP              0 ****  ****    0 ROOT
