@<TRIPOS>MOLECULE
186
   56    57     1     0     0
SMALL
bcc


@<TRIPOS>ATOM
      1 O34         1.2090    1.2720   -0.5700 o         1 186     -0.517000
      2 C18         0.9800    0.1930   -0.0260 c         1 186      0.656100
      3 O26         0.5690   -0.0630    1.2020 os        1 186     -0.383900
      4 C27         0.5610    1.0520    2.2000 c3        1 186      0.230700
      5 C28         1.8900    1.1740    2.8250 ca        1 186     -0.208300
      6 C33         2.7280    2.2510    2.4990 ca        1 186     -0.086500
      7 C32         3.9480    2.4070    3.1510 ca        1 186     -0.128000
      8 C31         4.3420    1.4890    4.1280 ca        1 186     -0.064000
      9 C30         3.5140    0.4130    4.4530 ca        1 186     -0.128000
     10 C29         2.2890    0.2560    3.8080 ca        1 186     -0.086500
     11 N17         1.1200   -1.0780   -0.8330 ny        1 186     -0.658800
     12 C13         1.0020   -0.8070   -2.3050 c3        1 186      0.062500
     13 C16         0.9710   -2.1240   -3.1150 c3        1 186     -0.039100
     14 C20        -0.0670   -3.0390   -2.5780 ca        1 186     -0.194300
     15 C25        -1.3780   -2.9860   -3.0660 ca        1 186     -0.129500
     16 C24        -2.3340   -3.8890   -2.6000 ca        1 186     -0.105000
     17 C23        -1.9860   -4.8510   -1.6510 ca        1 186     -0.076000
     18 C22        -0.6760   -4.9110   -1.1660 ca        1 186     -0.105000
     19 C21         0.2810   -4.0110   -1.6270 ca        1 186     -0.129500
     20 C12         2.2000    0.0340   -2.7760 c         1 186      0.523100
     21 O19         3.3620   -0.3030   -2.5970 o         1 186     -0.384100
     22 N11         1.8850    1.3120   -3.4590 ny        1 186     -0.675800
     23 C8          2.9910    1.8190   -4.3780 c3        1 186      0.175700
     24 C14         3.1120    0.9680   -5.6330 c3        1 186     -0.135100
     25 C7          2.7680    3.2640   -4.7130 c2        1 186     -0.163200
     26 C6          1.7380    3.8240   -5.3550 ce        1 186     -0.192200
     27 C5          0.5220    3.1810   -5.8830 c         1 186      0.467300
     28 O10         0.0440    2.1340   -5.4180 o         1 186     -0.575100
     29 C4         -0.1540    3.8960   -7.0390 c         1 186      0.493900
     30 O9         -0.2950    5.1100   -7.0140 o         1 186     -0.418100
     31 H271       -0.2250    0.6460    2.9000 h1        1 186      0.111200
     32 H272        0.2220    1.9810    1.6750 h1        1 186      0.111200
     33 H33         2.4090    2.9880    1.7460 ha        1 186      0.140000
     34 H32         4.5970    3.2640    2.9090 ha        1 186      0.162500
     35 H31         5.3050    1.6210    4.6510 ha        1 186      0.166000
     36 H30         3.8210   -0.3030    5.2320 ha        1 186      0.162500
     37 H29         1.6270   -0.5810    4.0810 ha        1 186      0.140000
     38 H17         2.0340   -1.5070   -0.6210 hn        1 186      0.500800
     39 H13         0.0200   -0.2620   -2.4550 hx        1 186      0.141700
     40 H161        1.9850   -2.6100   -3.0910 hc        1 186      0.104200
     41 H162        0.7430   -1.8530   -4.1820 hc        1 186      0.104200
     42 H25        -1.6550   -2.2490   -3.8360 ha        1 186      0.136500
     43 H24        -3.3630   -3.8520   -2.9960 ha        1 186      0.170000
     44 H23        -2.7390   -5.5740   -1.2940 ha        1 186      0.175000
     45 H22        -0.3960   -5.6860   -0.4330 ha        1 186      0.170000
     46 H21         1.3240   -4.1050   -1.2850 ha        1 186      0.136500
     47 H11         1.7120    2.0230   -2.7270 hn        1 186      0.491800
     48 H8          3.9520    1.7260   -3.7780 hx        1 186      0.129700
     49 H141        3.9460    1.3840   -6.2560 hc        1 186      0.087700
     50 H142        2.1740    0.9920   -6.2400 hc        1 186      0.087700
     51 H143        3.3680   -0.0900   -5.3790 hc        1 186      0.087700
     52 H7          3.6240    3.9050   -4.4140 ha        1 186      0.187000
     53 H6          1.7620    4.9210   -5.5530 ha        1 186      0.207000
     54 H4         -0.4990    3.2290   -7.8570 h4        1 186      0.071200
     55 H172        0.3820   -1.7610   -0.5660 hn        1 186      0.500800
     56 H112        1.0170    1.2060   -4.0220 hn        1 186      0.491800
@<TRIPOS>BOND
     1    1    2 2   
     2    2    3 1   
     3    2   11 1   
     4    3    4 1   
     5    4    5 1   
     6    4   31 1   
     7    4   32 1   
     8    5    6 ar  
     9    5   10 ar  
    10    6    7 ar  
    11    6   33 1   
    12    7    8 ar  
    13    7   34 1   
    14    8    9 ar  
    15    8   35 1   
    16    9   10 ar  
    17    9   36 1   
    18   10   37 1   
    19   11   12 1   
    20   11   38 1   
    21   11   55 1   
    22   12   13 1   
    23   12   20 1   
    24   12   39 1   
    25   13   14 1   
    26   13   40 1   
    27   13   41 1   
    28   14   15 ar  
    29   14   19 ar  
    30   15   16 ar  
    31   15   42 1   
    32   16   17 ar  
    33   16   43 1   
    34   17   18 ar  
    35   17   44 1   
    36   18   19 ar  
    37   18   45 1   
    38   19   46 1   
    39   20   21 2   
    40   20   22 1   
    41   22   23 1   
    42   22   47 1   
    43   22   56 1   
    44   23   24 1   
    45   23   25 1   
    46   23   48 1   
    47   24   49 1   
    48   24   50 1   
    49   24   51 1   
    50   25   26 2   
    51   25   52 1   
    52   26   27 1   
    53   26   53 1   
    54   27   28 2   
    55   27   29 1   
    56   29   30 2   
    57   29   54 1   
@<TRIPOS>SUBSTRUCTURE
     1 186         1 TEMP              0 ****  ****    0 ROOT
