@<TRIPOS>MOLECULE
186
   56    57     1     0     0
SMALL
bcc


@<TRIPOS>ATOM
      1 O34         1.1860    1.2900   -0.5910 o         1 186     -0.517000
      2 C18         0.9530    0.2180   -0.0350 c         1 186      0.656100
      3 O26         0.5230   -0.0210    1.1900 os        1 186     -0.384900
      4 C27         0.4920    1.1090    2.1710 c3        1 186      0.230700
      5 C28         1.8080    1.2460    2.8190 ca        1 186     -0.208300
      6 C33         2.6470    2.3220    2.4930 ca        1 186     -0.086500
      7 C32         3.8540    2.4920    3.1650 ca        1 186     -0.128000
      8 C31         4.2340    1.5900    4.1620 ca        1 186     -0.064000
      9 C30         3.4040    0.5150    4.4870 ca        1 186     -0.128000
     10 C29         2.1930    0.3430    3.8210 ca        1 186     -0.086500
     11 N17         1.1150   -1.0640   -0.8190 n4        1 186     -0.658800
     12 C13         1.0200   -0.8170   -2.2970 c3        1 186      0.062500
     13 C16         1.0100   -2.1460   -3.0870 c3        1 186     -0.039100
     14 C20        -0.0310   -3.0610   -2.5530 ca        1 186     -0.194300
     15 C25        -1.3340   -3.0230   -3.0620 ca        1 186     -0.129500
     16 C24        -2.2920   -3.9260   -2.5970 ca        1 186     -0.105000
     17 C23        -1.9520   -4.8700   -1.6270 ca        1 186     -0.076000
     18 C22        -0.6500   -4.9140   -1.1210 ca        1 186     -0.105000
     19 C21         0.3080   -4.0140   -1.5810 ca        1 186     -0.129500
     20 C12         2.2200    0.0240   -2.7610 c         1 186      0.523100
     21 O19         3.3810   -0.3040   -2.5580 o         1 186     -0.384100
     22 N11         1.9090    1.2900   -3.4690 n4        1 186     -0.675800
     23 C8          3.0260    1.7880   -4.3790 c3        1 186      0.175700
     24 C14         3.1710    0.9170   -5.6180 c3        1 186     -0.135100
     25 C7          2.8010    3.2250   -4.7410 c2        1 186     -0.163200
     26 C6          1.7780    3.7690   -5.4070 ce        1 186     -0.192200
     27 C5          0.5740    3.1110   -5.9440 c         1 186      0.467300
     28 O10         0.0940    2.0700   -5.4700 o         1 186     -0.575100
     29 C4         -0.0880    3.8030   -7.1220 c         1 186      0.493900
     30 O9         -0.2350    5.0170   -7.1200 o         1 186     -0.418100
     31 H271        0.1600    2.0280    1.6250 h1        1 186      0.111200
     32 H272       -0.3050    0.7110    2.8610 h1        1 186      0.111200
     33 H33         2.3400    3.0460    1.7230 ha        1 186      0.140000
     34 H32         4.5040    3.3480    2.9220 ha        1 186      0.163000
     35 H31         5.1860    1.7340    4.7010 ha        1 186      0.166000
     36 H30         3.6990   -0.1880    5.2820 ha        1 186      0.163000
     37 H29         1.5280   -0.4920    4.0940 ha        1 186      0.140000
     38 H17         2.0270   -1.4840   -0.5850 hn        1 186      0.500800
     39 H13         0.0370   -0.2800   -2.4720 hx        1 186      0.141700
     40 H161        0.7970   -1.8940   -4.1620 hc        1 186      0.104200
     41 H162        2.0260   -2.6250   -3.0390 hc        1 186      0.104200
     42 H25        -1.6040   -2.3010   -3.8480 ha        1 186      0.136500
     43 H24        -3.3140   -3.9020   -3.0100 ha        1 186      0.170000
     44 H23        -2.7070   -5.5930   -1.2720 ha        1 186      0.175000
     45 H22        -0.3770   -5.6750   -0.3710 ha        1 186      0.170000
     46 H21         1.3450   -4.0960   -1.2200 ha        1 186      0.136500
     47 H11         1.0510    1.1700   -4.0430 hn        1 186      0.491800
     48 H8          3.9790    1.7090   -3.7630 hx        1 186      0.130700
     49 H141        3.4280   -0.1350   -5.3430 hc        1 186      0.087700
     50 H142        4.0130    1.3280   -6.2350 hc        1 186      0.087700
     51 H143        2.2420    0.9260   -6.2400 hc        1 186      0.087700
     52 H7          3.6480    3.8760   -4.4390 ha        1 186      0.187000
     53 H6          1.7990    4.8630   -5.6240 ha        1 186      0.207000
     54 H4         -0.4160    3.1220   -7.9340 h4        1 186      0.071200
     55 H172        0.3760   -1.7480   -0.5530 hn        1 186      0.500800
     56 H112        1.7220    2.0110   -2.7510 hn        1 186      0.491800
@<TRIPOS>BOND
     1    1    2 2   
     2    2    3 1   
     3    2   11 1   
     4    3    4 1   
     5    4    5 1   
     6    4   31 1   
     7    4   32 1   
     8    5    6 ar  
     9    5   10 ar  
    10    6    7 ar  
    11    6   33 1   
    12    7    8 ar  
    13    7   34 1   
    14    8    9 ar  
    15    8   35 1   
    16    9   10 ar  
    17    9   36 1   
    18   10   37 1   
    19   11   12 1   
    20   11   38 1   
    21   11   55 1   
    22   12   13 1   
    23   12   20 1   
    24   12   39 1   
    25   13   14 1   
    26   13   40 1   
    27   13   41 1   
    28   14   15 ar  
    29   14   19 ar  
    30   15   16 ar  
    31   15   42 1   
    32   16   17 ar  
    33   16   43 1   
    34   17   18 ar  
    35   17   44 1   
    36   18   19 ar  
    37   18   45 1   
    38   19   46 1   
    39   20   21 2   
    40   20   22 1   
    41   22   23 1   
    42   22   47 1   
    43   22   56 1   
    44   23   24 1   
    45   23   25 1   
    46   23   48 1   
    47   24   49 1   
    48   24   50 1   
    49   24   51 1   
    50   25   26 2   
    51   25   52 1   
    52   26   27 1   
    53   26   53 1   
    54   27   28 2   
    55   27   29 1   
    56   29   30 2   
    57   29   54 1   
@<TRIPOS>SUBSTRUCTURE
     1 186         1 TEMP              0 ****  ****    0 ROOT
