@<TRIPOS>MOLECULE
186
   54    55     1     0     0
SMALL
bcc


@<TRIPOS>ATOM
      1 O34         0.0410    0.6000   -1.6450 o         1 186     -0.609000
      2 C18         0.7630    0.3980   -0.6500 c         1 186      0.737100
      3 O26         1.9370   -0.3040   -0.8030 os        1 186     -0.432900
      4 C27         2.1530   -0.8360   -2.1300 c3        1 186      0.197700
      5 C28         3.4300   -1.6060   -2.0920 ca        1 186     -0.100300
      6 C33         3.5170   -2.8190   -2.7840 ca        1 186     -0.109500
      7 C32         4.7170   -3.5280   -2.7980 ca        1 186     -0.132000
      8 C31         5.8300   -3.0370   -2.1140 ca        1 186     -0.121000
      9 C30         5.7420   -1.8320   -1.4170 ca        1 186     -0.132000
     10 C29         4.5460   -1.1150   -1.4070 ca        1 186     -0.109500
     11 N17         0.5100    0.7530    0.6590 n         1 186     -0.525900
     12 C13        -0.4690    1.7770    0.9490 c3        1 186      0.043700
     13 C16        -0.1270    2.5830    2.2140 c3        1 186     -0.045100
     14 C20         1.2040    3.2380    2.1120 ca        1 186     -0.097300
     15 C25         1.3500    4.4350    1.4010 ca        1 186     -0.127000
     16 C24         2.5960    5.0540    1.3160 ca        1 186     -0.124500
     17 C23         3.7050    4.4830    1.9400 ca        1 186     -0.125000
     18 C22         3.5650    3.2920    2.6520 ca        1 186     -0.124500
     19 C21         2.3200    2.6710    2.7380 ca        1 186     -0.127000
     20 C12        -1.8800    1.1560    1.1440 c         1 186      0.653100
     21 O19        -2.4550    1.2120    2.2480 o         1 186     -0.612100
     22 N11        -2.4590    0.5970    0.0310 n         1 186     -0.561900
     23 C8         -3.7550   -0.0440    0.0730 c3        1 186      0.118900
     24 C14        -4.6530    0.3840   -1.0940 c3        1 186     -0.107100
     25 C7         -3.6440   -1.5500    0.0370 c2        1 186     -0.084200
     26 C6         -4.1150   -2.3310    1.0150 ce        1 186     -0.258200
     27 C5         -4.0330   -3.7950    0.9580 c         1 186      0.462300
     28 O10        -3.6500   -4.4370   -0.0260 o         1 186     -0.508100
     29 C4         -4.4180   -4.4990    2.2330 c         1 186      0.484900
     30 O9         -5.5760   -4.5770    2.6310 o         1 186     -0.486100
     31 H271        1.2780   -1.4820   -2.4040 h1        1 186      0.065200
     32 H272        2.2190    0.0250   -2.8480 h1        1 186      0.065200
     33 H33         2.6390   -3.2130   -3.3180 ha        1 186      0.138000
     34 H32         4.7840   -4.4790   -3.3460 ha        1 186      0.134000
     35 H31         6.7740   -3.6000   -2.1240 ha        1 186      0.133000
     36 H30         6.6170   -1.4440   -0.8750 ha        1 186      0.134000
     37 H29         4.4680   -0.1670   -0.8540 ha        1 186      0.138000
     38 H17         1.2420    0.6220    1.3240 hn        1 186      0.335500
     39 H13        -0.5320    2.4940    0.0720 h1        1 186      0.081700
     40 H161       -0.9340    3.3540    2.3440 hc        1 186      0.081700
     41 H162       -0.1730    1.9100    3.1110 hc        1 186      0.081700
     42 H25         0.4750    4.8890    0.9120 ha        1 186      0.133000
     43 H24         2.7030    5.9950    0.7560 ha        1 186      0.135000
     44 H23         4.6880    4.9730    1.8730 ha        1 186      0.135000
     45 H22         4.4370    2.8420    3.1490 ha        1 186      0.135000
     46 H21         2.2120    1.7370    3.3110 ha        1 186      0.133000
     47 H11        -1.9450    0.5400   -0.8210 hn        1 186      0.342500
     48 H8         -4.2580    0.2690    1.0410 h1        1 186      0.093700
     49 H141       -4.1930    0.1170   -2.0760 hc        1 186      0.049367
     50 H142       -5.6350   -0.1390   -1.0040 hc        1 186      0.049367
     51 H143       -4.8280    1.4860   -1.0670 hc        1 186      0.049367
     52 H7         -3.1610   -1.9800   -0.8580 ha        1 186      0.146000
     53 H6         -4.5980   -1.9160    1.9160 ha        1 186      0.151000
     54 H4         -3.5600   -4.9430    2.7860 h4        1 186      0.021200
@<TRIPOS>BOND
     1    1    2 2   
     2    2    3 1   
     3    2   11 1   
     4    3    4 1   
     5    4    5 1   
     6    4   31 1   
     7    4   32 1   
     8    5    6 ar  
     9    5   10 ar  
    10    6    7 ar  
    11    6   33 1   
    12    7    8 ar  
    13    7   34 1   
    14    8    9 ar  
    15    8   35 1   
    16    9   10 ar  
    17    9   36 1   
    18   10   37 1   
    19   11   12 1   
    20   11   38 1   
    21   12   13 1   
    22   12   20 1   
    23   12   39 1   
    24   13   14 1   
    25   13   40 1   
    26   13   41 1   
    27   14   15 ar  
    28   14   19 ar  
    29   15   16 ar  
    30   15   42 1   
    31   16   17 ar  
    32   16   43 1   
    33   17   18 ar  
    34   17   44 1   
    35   18   19 ar  
    36   18   45 1   
    37   19   46 1   
    38   20   21 2   
    39   20   22 1   
    40   22   23 1   
    41   22   47 1   
    42   23   24 1   
    43   23   25 1   
    44   23   48 1   
    45   24   49 1   
    46   24   50 1   
    47   24   51 1   
    48   25   26 2   
    49   25   52 1   
    50   26   27 1   
    51   26   53 1   
    52   27   28 2   
    53   27   29 1   
    54   29   30 2   
    55   29   54 1   
@<TRIPOS>SUBSTRUCTURE
     1 186         1 TEMP              0 ****  ****    0 ROOT
