@<TRIPOS>MOLECULE
186
   56    57     1     0     0
SMALL
bcc


@<TRIPOS>ATOM
      1 O34         1.7010    1.5160   -0.5500 o         1 186     -0.515000
      2 C18         1.2100    0.4790   -0.1070 c         1 186      0.655100
      3 O26         0.5620    0.2740    1.0260 os        1 186     -0.385900
      4 C27         0.5810    1.3520    2.0620 c3        1 186      0.229700
      5 C28         1.7960    1.2340    2.8870 ca        1 186     -0.207300
      6 C33         2.8440    2.1550    2.7370 ca        1 186     -0.087500
      7 C32         3.9560    2.0870    3.5720 ca        1 186     -0.128000
      8 C31         4.0330    1.1010    4.5580 ca        1 186     -0.065000
      9 C30         2.9940    0.1800    4.7090 ca        1 186     -0.128000
     10 C29         1.8770    0.2460    3.8800 ca        1 186     -0.087500
     11 N17         1.2750   -0.7830   -0.9340 n4        1 186     -0.656800
     12 C13         1.3960   -0.4900   -2.4020 c3        1 186      0.063500
     13 C16         1.3260   -1.7950   -3.2290 c3        1 186     -0.041100
     14 C20         0.1530   -2.6110   -2.8270 ca        1 186     -0.194300
     15 C25        -1.0860   -2.4280   -3.4520 ca        1 186     -0.128000
     16 C24        -2.1670   -3.2420   -3.1120 ca        1 186     -0.106500
     17 C23        -2.0170   -4.2420   -2.1510 ca        1 186     -0.077000
     18 C22        -0.7800   -4.4310   -1.5280 ca        1 186     -0.106500
     19 C21         0.3020   -3.6210   -1.8630 ca        1 186     -0.128000
     20 C12         2.7390    0.2010   -2.6850 c         1 186      0.527100
     21 O19         3.8240   -0.3170   -2.4630 o         1 186     -0.383100
     22 N11         2.7000    1.5880   -3.2250 n4        1 186     -0.669800
     23 C8          3.1380    1.6960   -4.6820 c3        1 186      0.175700
     24 C14         2.7020    0.5090   -5.5260 c3        1 186     -0.143100
     25 C7          2.6460    2.9860   -5.2720 c2        1 186     -0.157200
     26 C6          1.3760    3.3390   -5.4940 ce        1 186     -0.195200
     27 C5          0.1750    2.5430   -5.1840 c         1 186      0.473300
     28 O10         0.0280    1.9400   -4.1080 o         1 186     -0.589100
     29 C4         -0.8880    2.5060   -6.2620 c         1 186      0.497900
     30 O9         -0.9860    1.5320   -6.9940 o         1 186     -0.429100
     31 H271        0.4870    2.3350    1.5360 h1        1 186      0.110200
     32 H272       -0.3610    1.0720    2.6150 h1        1 186      0.110200
     33 H33         2.7760    2.9460    1.9740 ha        1 186      0.140000
     34 H32         4.7700    2.8220    3.4650 ha        1 186      0.162000
     35 H31         4.9100    1.0560    5.2260 ha        1 186      0.166000
     36 H30         3.0500   -0.5910    5.4960 ha        1 186      0.162000
     37 H29         1.0480   -0.4680    4.0140 ha        1 186      0.140000
     38 H17         0.4150   -1.3530   -0.7880 hn        1 186      0.499800
     39 H13         0.5130    0.1700   -2.6850 hx        1 186      0.162700
     40 H161        1.2440   -1.4960   -4.3110 hc        1 186      0.102700
     41 H162        2.2800   -2.3770   -3.1030 hc        1 186      0.102700
     42 H25        -1.2070   -1.6590   -4.2310 ha        1 186      0.137000
     43 H24        -3.1380   -3.1030   -3.6180 ha        1 186      0.169000
     44 H23        -2.8690   -4.8950   -1.8950 ha        1 186      0.174000
     45 H22        -0.6560   -5.2370   -0.7850 ha        1 186      0.169000
     46 H21         1.2860   -3.8160   -1.4100 ha        1 186      0.137000
     47 H11         3.3340    2.1710   -2.6570 hn        1 186      0.486300
     48 H8          4.2740    1.7080   -4.6470 hx        1 186      0.132700
     49 H141        3.1240   -0.4490   -5.1330 hc        1 186      0.088700
     50 H142        3.1040    0.6570   -6.5650 hc        1 186      0.088700
     51 H143        1.5890    0.4340   -5.5950 hc        1 186      0.088700
     52 H7          3.4660    3.6610   -5.5940 ha        1 186      0.193000
     53 H6          1.1570    4.3110   -5.9860 ha        1 186      0.201000
     54 H4         -1.5340    3.4090   -6.3090 h4        1 186      0.077200
     55 H172        2.0780   -1.3460   -0.6160 hn        1 186      0.499800
     56 H112        1.7420    1.9720   -3.1170 hn        1 186      0.486300
@<TRIPOS>BOND
     1    1    2 2   
     2    2    3 1   
     3    2   11 1   
     4    3    4 1   
     5    4    5 1   
     6    4   31 1   
     7    4   32 1   
     8    5    6 ar  
     9    5   10 ar  
    10    6    7 ar  
    11    6   33 1   
    12    7    8 ar  
    13    7   34 1   
    14    8    9 ar  
    15    8   35 1   
    16    9   10 ar  
    17    9   36 1   
    18   10   37 1   
    19   11   12 1   
    20   11   38 1   
    21   11   55 1   
    22   12   13 1   
    23   12   20 1   
    24   12   39 1   
    25   13   14 1   
    26   13   40 1   
    27   13   41 1   
    28   14   15 ar  
    29   14   19 ar  
    30   15   16 ar  
    31   15   42 1   
    32   16   17 ar  
    33   16   43 1   
    34   17   18 ar  
    35   17   44 1   
    36   18   19 ar  
    37   18   45 1   
    38   19   46 1   
    39   20   21 2   
    40   20   22 1   
    41   22   23 1   
    42   22   47 1   
    43   22   56 1   
    44   23   24 1   
    45   23   25 1   
    46   23   48 1   
    47   24   49 1   
    48   24   50 1   
    49   24   51 1   
    50   25   26 2   
    51   25   52 1   
    52   26   27 1   
    53   26   53 1   
    54   27   28 2   
    55   27   29 1   
    56   29   30 2   
    57   29   54 1   
@<TRIPOS>SUBSTRUCTURE
     1 186         1 TEMP              0 ****  ****    0 ROOT
