@<TRIPOS>MOLECULE
187
   55    59     1     0     0
SMALL
bcc


@<TRIPOS>ATOM
      1 C1         -0.1680    0.5350    0.0010 ca        1 187     -0.082000
      2 C2          1.1990    0.2680   -0.0220 ca        1 187     -0.101000
      3 C3          1.9050    0.0500    1.1590 ca        1 187     -0.048000
      4 C4          1.2310    0.0960    2.3990 ca        1 187      0.043800
      5 C5         -0.1500    0.3690    2.4330 ca        1 187     -0.093000
      6 C6         -0.8330    0.5820    1.2310 ca        1 187     -0.257900
      7 C20        -2.2770    0.8920    1.2650 ce        1 187      0.591800
      8 N3         -2.9290    1.9530    0.9870 n2        1 187     -0.704100
      9 N4         -3.0860   -0.3020    1.7090 nz        1 187     -0.825600
     10 N1          1.9370   -0.1130    3.6210 na        1 187      0.173300
     11 N6          1.7290    0.6650    4.6930 nc        1 187     -0.433800
     12 N5          4.5930   -2.6660    3.1040 ns        1 187     -0.438100
     13 C7          5.2050   -3.6660    2.3230 ca        1 187     -0.010400
     14 C44         6.6290   -3.7720    2.3210 ca        1 187      0.115900
     15 C14         7.2770   -4.7690    1.5810 ca        1 187     -0.169000
     16 C16         6.5310   -5.6760    0.8030 ca        1 187      0.061800
     17 N7          7.1620   -6.6680    0.0480 na        1 187     -0.120400
     18 C18         5.1220   -5.5720    0.8080 ca        1 187     -0.153000
     19 C22         4.4790   -4.5960    1.5560 ca        1 187     -0.098000
     20 C9          8.4330   -6.6330   -0.5650 ca        1 187     -0.062200
     21 C15         6.6600   -7.9850   -0.1720 cc        1 187      0.429700
     22 C23         8.6260   -7.9550   -1.1380 ca        1 187      0.066400
     23 N2          7.4930   -8.7590   -0.8640 nd        1 187     -0.539100
     24 C13         2.9270   -1.0960    3.8750 cc        1 187     -0.150900
     25 C12         3.3520   -0.8970    5.1970 cd        1 187     -0.191300
     26 C8          3.3240   -2.1630    2.9190 c         1 187      0.703700
     27 C10         2.5670    0.2200    5.6690 cd        1 187      0.227600
     28 O3          2.5310   -2.5630    2.0430 o         1 187     -0.605100
     29 C11         2.6310    0.8410    7.0540 c3        1 187      0.632600
     30 F1          1.4400    0.7940    7.7310 f         1 187     -0.217300
     31 F3          3.5360    0.2240    7.8790 f         1 187     -0.217300
     32 F2          2.9880    2.1630    7.0520 f         1 187     -0.217300
     33 C17         9.8030   -8.2430   -1.8370 ca        1 187     -0.060000
     34 C21        10.7530   -7.2380   -1.9660 ca        1 187     -0.145000
     35 C25        10.5520   -5.9600   -1.4230 ca        1 187     -0.104000
     36 C27         9.3960   -5.6340   -0.7220 ca        1 187     -0.137000
     37 F4          7.3780   -2.9120    3.0560 f         1 187     -0.135900
     38 H1         -0.7120    0.7100   -0.9410 ha        1 187      0.156000
     39 H2          1.7340    0.2290   -0.9870 ha        1 187      0.175000
     40 H3          2.9840   -0.1770    1.1160 ha        1 187      0.177000
     41 H5         -0.6810    0.4460    3.3960 ha        1 187      0.159000
     42 HN3        -2.4250    2.7670    0.6990 hn        1 187      0.493400
     43 HN41       -2.9770   -1.0430    1.0090 hn        1 187      0.471800
     44 HN42       -2.7070   -0.6270    2.6050 hn        1 187      0.471800
     45 HN5         5.1800   -2.2350    3.7880 hn        1 187      0.340500
     46 H14         8.3770   -4.8310    1.6300 ha        1 187      0.176000
     47 H18         4.5110   -6.2680    0.2100 ha        1 187      0.153000
     48 H22         3.3760   -4.5500    1.5320 ha        1 187      0.171000
     49 H15         5.6810   -8.2890    0.2190 h5        1 187      0.072800
     50 H12         4.0900   -1.4510    5.7730 ha        1 187      0.201000
     51 H17         9.9620   -9.2410   -2.2720 ha        1 187      0.157000
     52 H21        11.6880   -7.4450   -2.5090 ha        1 187      0.143000
     53 H25        11.3300   -5.1920   -1.5580 ha        1 187      0.139000
     54 H27         9.2480   -4.6230   -0.3190 ha        1 187      0.137000
     55 H43        -4.0830   -0.0770    1.8170 hn        1 187      0.471800
@<TRIPOS>BOND
     1    1    2 ar  
     2    1    6 ar  
     3    1   38 1   
     4    2    3 ar  
     5    2   39 1   
     6    3    4 ar  
     7    3   40 1   
     8    4    5 ar  
     9    4   10 1   
    10    5    6 ar  
    11    5   41 1   
    12    6    7 1   
    13    7    8 2   
    14    7    9 1   
    15    8   42 1   
    16    9   43 1   
    17    9   44 1   
    18    9   55 1   
    19   10   11 1   
    20   10   24 1   
    21   11   27 2   
    22   12   13 1   
    23   12   26 1   
    24   12   45 1   
    25   13   14 ar  
    26   13   19 ar  
    27   14   15 ar  
    28   14   37 1   
    29   15   16 ar  
    30   15   46 1   
    31   16   17 1   
    32   16   18 ar  
    33   17   20 1   
    34   17   21 1   
    35   18   19 ar  
    36   18   47 1   
    37   19   48 1   
    38   20   22 ar  
    39   20   36 ar  
    40   21   23 2   
    41   21   49 1   
    42   22   23 1   
    43   22   33 ar  
    44   24   25 2   
    45   24   26 1   
    46   25   27 1   
    47   25   50 1   
    48   26   28 2   
    49   27   29 1   
    50   29   30 1   
    51   29   31 1   
    52   29   32 1   
    53   33   34 ar  
    54   33   51 1   
    55   34   35 ar  
    56   34   52 1   
    57   35   36 ar  
    58   35   53 1   
    59   36   54 1   
@<TRIPOS>SUBSTRUCTURE
     1 187         1 TEMP              0 ****  ****    0 ROOT
