@<TRIPOS>MOLECULE
187
   54    58     1     0     0
SMALL
bcc


@<TRIPOS>ATOM
      1 C1         -3.7350    4.0340    1.1440 ca        1 187     -0.101000
      2 C2         -2.6550    3.2890    1.6130 ca        1 187     -0.117000
      3 C3         -2.5320    1.9390    1.2950 ca        1 187     -0.098000
      4 C4         -3.5070    1.3260    0.4850 ca        1 187      0.000800
      5 C5         -4.6040    2.0710    0.0110 ca        1 187     -0.075000
      6 C6         -4.7070    3.4220    0.3490 ca        1 187     -0.179900
      7 C20        -5.8890    4.2060   -0.1410 ce        1 187      0.639800
      8 N3         -7.1230    3.9230    0.1580 n2        1 187     -0.827100
      9 N4         -5.5590    5.2510   -1.0230 nh        1 187     -0.895800
     10 N1         -3.3980   -0.0650    0.1580 na        1 187      0.216300
     11 N6         -4.4380   -0.8940    0.2420 nc        1 187     -0.420800
     12 N5          0.1770   -0.9120   -0.1590 n         1 187     -0.459100
     13 C7          1.5340   -0.5960   -0.3220 ca        1 187      0.027600
     14 C44         2.5200   -1.4470    0.2680 ca        1 187      0.092900
     15 C14         3.8870   -1.1830    0.1230 ca        1 187     -0.160000
     16 C16         4.3180   -0.0540   -0.5980 ca        1 187      0.029800
     17 N7          5.6840    0.2280   -0.7460 na        1 187     -0.111400
     18 C18         3.3490    0.7880   -1.1830 ca        1 187     -0.139000
     19 C22         1.9940    0.5170   -1.0520 ca        1 187     -0.116000
     20 C9          6.7290   -0.0060    0.1690 ca        1 187     -0.062200
     21 C15         6.2970    0.7580   -1.9130 cc        1 187      0.431700
     22 C23         7.9440    0.4110   -0.5120 ca        1 187      0.065400
     23 N2          7.6220    0.8780   -1.8080 nd        1 187     -0.554100
     24 C13        -2.2240   -0.7450   -0.2400 cc        1 187     -0.167900
     25 C12        -2.5810   -2.0950   -0.4140 cd        1 187     -0.204300
     26 C8         -0.9070   -0.1140   -0.4970 c         1 187      0.709700
     27 C10        -3.9850   -2.1380   -0.1030 cd        1 187      0.203600
     28 O3         -0.8020    1.0210   -0.9910 o         1 187     -0.564100
     29 C11        -4.8730   -3.3620   -0.1360 c3        1 187      0.634600
     30 F1         -5.9290   -3.2680   -1.0050 f         1 187     -0.226300
     31 F3         -4.2110   -4.5040   -0.5140 f         1 187     -0.226300
     32 F2         -5.4420   -3.6770    1.0720 f         1 187     -0.226300
     33 C17         9.1750    0.3130    0.1470 ca        1 187     -0.065000
     34 C21         9.1890   -0.1790    1.4450 ca        1 187     -0.150000
     35 C25         8.0090   -0.5670    2.0990 ca        1 187     -0.110000
     36 C27         6.7670   -0.4860    1.4820 ca        1 187     -0.133000
     37 F4          2.1420   -2.5430    0.9760 f         1 187     -0.140900
     38 H1         -3.8240    5.0990    1.4080 ha        1 187      0.142000
     39 H2         -1.8880    3.7680    2.2420 ha        1 187      0.148000
     40 H3         -1.6650    1.3680    1.6630 ha        1 187      0.148000
     41 H5         -5.3770    1.6060   -0.6230 ha        1 187      0.169000
     42 HN3        -7.2360    3.0990    0.7070 hn        1 187      0.399400
     43 HN41       -6.2920    5.8910   -1.2340 hn        1 187      0.403800
     44 HN42       -4.6840    5.6820   -0.8290 hn        1 187      0.403800
     45 HN5        -0.0120   -1.7920    0.2750 hn        1 187      0.336500
     46 H14         4.6100   -1.8790    0.5790 ha        1 187      0.168000
     47 H18         3.6570    1.6800   -1.7520 ha        1 187      0.151000
     48 H22         1.2720    1.2030   -1.5310 ha        1 187      0.184000
     49 H15         5.7000    1.0220   -2.7960 h5        1 187      0.073800
     50 H12        -1.9620   -2.9290   -0.7320 ha        1 187      0.188000
     51 H17        10.1020    0.6220   -0.3580 ha        1 187      0.151000
     52 H21        10.1470   -0.2660    1.9790 ha        1 187      0.136000
     53 H25         8.0690   -0.9440    3.1320 ha        1 187      0.135000
     54 H27         5.8510   -0.7780    2.0110 ha        1 187      0.140000
@<TRIPOS>BOND
     1    1    2 ar  
     2    1    6 ar  
     3    1   38 1   
     4    2    3 ar  
     5    2   39 1   
     6    3    4 ar  
     7    3   40 1   
     8    4    5 ar  
     9    4   10 1   
    10    5    6 ar  
    11    5   41 1   
    12    6    7 1   
    13    7    8 2   
    14    7    9 1   
    15    8   42 1   
    16    9   43 1   
    17    9   44 1   
    18   10   11 1   
    19   10   24 1   
    20   11   27 2   
    21   12   13 1   
    22   12   26 1   
    23   12   45 1   
    24   13   14 ar  
    25   13   19 ar  
    26   14   15 ar  
    27   14   37 1   
    28   15   16 ar  
    29   15   46 1   
    30   16   17 1   
    31   16   18 ar  
    32   17   20 1   
    33   17   21 1   
    34   18   19 ar  
    35   18   47 1   
    36   19   48 1   
    37   20   22 ar  
    38   20   36 ar  
    39   21   23 2   
    40   21   49 1   
    41   22   23 1   
    42   22   33 ar  
    43   24   25 2   
    44   24   26 1   
    45   25   27 1   
    46   25   50 1   
    47   26   28 2   
    48   27   29 1   
    49   29   30 1   
    50   29   31 1   
    51   29   32 1   
    52   33   34 ar  
    53   33   51 1   
    54   34   35 ar  
    55   34   52 1   
    56   35   36 ar  
    57   35   53 1   
    58   36   54 1   
@<TRIPOS>SUBSTRUCTURE
     1 187         1 TEMP              0 ****  ****    0 ROOT
