@<TRIPOS>MOLECULE
187
   55    59     1     0     0
SMALL
bcc


@<TRIPOS>ATOM
      1 C1         -0.1800    0.5150   -0.0160 ca        1 187     -0.082000
      2 C2          1.1880    0.2500   -0.0410 ca        1 187     -0.101000
      3 C3          1.8970    0.0440    1.1400 ca        1 187     -0.048000
      4 C4          1.2270    0.0980    2.3810 ca        1 187      0.043800
      5 C5         -0.1540    0.3680    2.4170 ca        1 187     -0.093000
      6 C6         -0.8410    0.5700    1.2150 ca        1 187     -0.257900
      7 C20        -2.2870    0.8770    1.2500 ce        1 187      0.591800
      8 N3         -2.9420    1.9330    0.9650 n2        1 187     -0.704100
      9 N4         -3.0910   -0.3150    1.7070 n4        1 187     -0.825600
     10 N1          1.9370   -0.1000    3.6030 na        1 187      0.173300
     11 N6          1.7300    0.6860    4.6700 nc        1 187     -0.433800
     12 N5          4.5960   -2.6520    3.1000 n         1 187     -0.438100
     13 C7          5.2080   -3.6580    2.3250 ca        1 187     -0.010400
     14 C44         6.6320   -3.7620    2.3230 ca        1 187      0.115900
     15 C14         7.2800   -4.7640    1.5910 ca        1 187     -0.169000
     16 C16         6.5340   -5.6780    0.8200 ca        1 187      0.061800
     17 N7          7.1650   -6.6750    0.0720 na        1 187     -0.120400
     18 C18         5.1250   -5.5750    0.8260 ca        1 187     -0.153000
     19 C22         4.4820   -4.5940    1.5660 ca        1 187     -0.098000
     20 C9          8.4360   -6.6440   -0.5420 ca        1 187     -0.062200
     21 C15         6.6650   -7.9940   -0.1360 cc        1 187      0.429700
     22 C23         8.6300   -7.9700   -1.1040 ca        1 187      0.066400
     23 N2          7.4980   -8.7740   -0.8230 nd        1 187     -0.539100
     24 C13         2.9300   -1.0790    3.8620 cc        1 187     -0.150900
     25 C12         3.3570   -0.8690    5.1810 cd        1 187     -0.191300
     26 C8          3.3260   -2.1530    2.9140 c         1 187      0.703700
     27 C10         2.5710    0.2500    5.6470 cd        1 187      0.227600
     28 O3          2.5320   -2.5610    2.0420 o         1 187     -0.605100
     29 C11         2.6370    0.8820    7.0260 c3        1 187      0.632600
     30 F1          1.4480    0.8380    7.7070 f         1 187     -0.217300
     31 F3          3.5450    0.2740    7.8540 f         1 187     -0.217300
     32 F2          2.9920    2.2050    7.0140 f         1 187     -0.217300
     33 C17         9.8070   -8.2640   -1.8010 ca        1 187     -0.060000
     34 C21        10.7570   -7.2580   -1.9380 ca        1 187     -0.145000
     35 C25        10.5540   -5.9760   -1.4060 ca        1 187     -0.104000
     36 C27         9.3990   -5.6450   -0.7070 ca        1 187     -0.137000
     37 F4          7.3810   -2.8960    3.0510 f         1 187     -0.135900
     38 H1         -0.7260    0.6810   -0.9580 ha        1 187      0.156000
     39 H2          1.7200    0.2050   -1.0070 ha        1 187      0.175000
     40 H3          2.9770   -0.1810    1.0960 ha        1 187      0.177000
     41 H5         -0.6830    0.4510    3.3810 ha        1 187      0.159000
     42 HN3        -2.4400    2.7460    0.6690 hn        1 187      0.493400
     43 HN41       -2.9820   -1.0620    1.0120 hn        1 187      0.471800
     44 HN42       -4.0880   -0.0920    1.8160 hn        1 187      0.471800
     45 HN5         5.1840   -2.2150    3.7790 hn        1 187      0.340500
     46 H14         8.3810   -4.8250    1.6390 ha        1 187      0.176000
     47 H18         4.5150   -6.2760    0.2340 ha        1 187      0.153000
     48 H22         3.3790   -4.5490    1.5430 ha        1 187      0.171000
     49 H15         5.6860   -8.2960    0.2570 h5        1 187      0.072800
     50 H12         4.0980   -1.4170    5.7600 ha        1 187      0.201000
     51 H17         9.9670   -9.2650   -2.2280 ha        1 187      0.157000
     52 H21        11.6910   -7.4700   -2.4800 ha        1 187      0.143000
     53 H25        11.3320   -5.2090   -1.5470 ha        1 187      0.139000
     54 H27         9.2500   -4.6310   -0.3130 ha        1 187      0.137000
     55 H43        -2.7080   -0.6320    2.6050 hn        1 187      0.471800
@<TRIPOS>BOND
     1    1    2 ar  
     2    1    6 ar  
     3    1   38 1   
     4    2    3 ar  
     5    2   39 1   
     6    3    4 ar  
     7    3   40 1   
     8    4    5 ar  
     9    4   10 1   
    10    5    6 ar  
    11    5   41 1   
    12    6    7 1   
    13    7    8 2   
    14    7    9 1   
    15    8   42 1   
    16    9   43 1   
    17    9   44 1   
    18    9   55 1   
    19   10   11 1   
    20   10   24 1   
    21   11   27 2   
    22   12   13 1   
    23   12   26 1   
    24   12   45 1   
    25   13   14 ar  
    26   13   19 ar  
    27   14   15 ar  
    28   14   37 1   
    29   15   16 ar  
    30   15   46 1   
    31   16   17 1   
    32   16   18 ar  
    33   17   20 1   
    34   17   21 1   
    35   18   19 ar  
    36   18   47 1   
    37   19   48 1   
    38   20   22 ar  
    39   20   36 ar  
    40   21   23 2   
    41   21   49 1   
    42   22   23 1   
    43   22   33 ar  
    44   24   25 2   
    45   24   26 1   
    46   25   27 1   
    47   25   50 1   
    48   26   28 2   
    49   27   29 1   
    50   29   30 1   
    51   29   31 1   
    52   29   32 1   
    53   33   34 ar  
    54   33   51 1   
    55   34   35 ar  
    56   34   52 1   
    57   35   36 ar  
    58   35   53 1   
    59   36   54 1   
@<TRIPOS>SUBSTRUCTURE
     1 187         1 TEMP              0 ****  ****    0 ROOT
