@<TRIPOS>MOLECULE
187
   54    42     1     0     0
SMALL
bcc


@<TRIPOS>ATOM
      1 C1         -3.1860    3.3340   -1.6700 c1        1 187     -0.077000
      2 C2         -1.8610    3.7360   -1.6330 c1        1 187     -0.118750
      3 C3         -1.1620    3.7110   -0.4360 c1        1 187     -0.118750
      4 C4         -1.7900    3.2840    0.7230 c1        1 187      0.007667
      5 C5         -3.1150    2.8810    0.6860 c1        1 187     -0.097667
      6 C6         -3.8140    2.9060   -0.5110 c1        1 187     -0.114000
      7 C20        -5.2730    2.5130   -0.5420 c2        1 187      0.114000
      8 N3         -5.6120    1.2800   -0.8130 n1        1 187     -0.293000
      9 N4         -6.2740    3.4820   -0.2780 n3        1 187     -0.329000
     10 N1         -1.1210    3.2800    1.8840 n2        1 187     -0.007500
     11 N6         -1.2460    4.2050    2.8900 n2        1 187     -0.007500
     12 N5          1.3170    0.3570    1.9390 n3        1 187     -0.307000
     13 C7          1.7370   -0.7710    1.1870 c2        1 187      0.034000
     14 C44         0.9390   -1.9030    1.1320 c2        1 187      0.060000
     15 C14         1.3280   -2.9890    0.3630 c1        1 187     -0.160000
     16 C16         2.5150   -2.9430   -0.3500 c1        1 187      0.007667
     17 N7          2.8990   -4.0000   -1.0820 n2        1 187     -0.163000
     18 C18         3.3130   -1.8120   -0.2950 c1        1 187     -0.097667
     19 C22         2.9240   -0.7260    0.4730 c1        1 187     -0.116000
     20 C9          2.5960   -4.5070   -2.3030 c1        1 187     -0.017000
     21 C15         3.8080   -4.8250   -0.4980 c1        1 187     -0.024000
     22 C23         3.3200   -5.6500   -2.4750 c1        1 187      0.007667
     23 N2          4.0670   -5.8440   -1.3590 n1        1 187     -0.127000
     24 C13        -0.1740    2.3910    2.2500 c1        1 187     -0.173000
     25 C12         0.2940    2.7550    3.4790 c1        1 187     -0.141000
     26 C8          0.3100    1.2150    1.4270 c1        1 187      0.390000
     27 C10        -0.3750    3.8790    3.8680 c1        1 187     -0.173000
     28 O3         -0.1930    0.9840    0.3450 o         1 187     -0.337000
     29 C11        -0.2930    4.7140    5.1270 c2        1 187      0.515000
     30 F1         -0.5880    3.9530    6.1880 f         1 187     -0.155667
     31 F3          0.9480    5.2010    5.2580 f         1 187     -0.155667
     32 F2         -1.1640    5.7280    5.0480 f         1 187     -0.155667
     33 C17         3.1870   -6.3960   -3.6620 c1        1 187     -0.097667
     34 C21         2.3210   -5.9680   -4.6550 c1        1 187     -0.118750
     35 C25         1.5860   -4.8070   -4.4810 c1        1 187     -0.118750
     36 C27         1.7160   -4.0730   -3.3130 c1        1 187     -0.133000
     37 F4         -0.2190   -1.9390    1.8040 f         1 187     -0.105000
     38 H1         -3.6780    3.3510   -2.5130 ha        1 187      0.159000
     39 H2         -1.4190    4.0360   -2.4500 ha        1 187      0.149250
     40 H3         -0.2290    3.9940   -0.4100 ha        1 187      0.149250
     41 H5         -3.5570    2.5810    1.5030 ha        1 187      0.154333
     42 HN3        -4.9670    0.6560   -0.9830 DU        1 187      0.181667
     43 HN41       -6.0460    4.2860    0.0920 hn        1 187      0.196000
     44 HN42       -7.1460    3.3090   -0.4920 hn        1 187      0.196000
     45 HN5         1.6870    0.5250    2.7550 hn        1 187      0.252000
     46 H14         0.7660   -3.7870    0.3250 ha        1 187      0.168000
     47 H18         4.1500   -1.7790   -0.7980 ha        1 187      0.154333
     48 H22         3.4860    0.0720    0.5120 ha        1 187      0.183000
     49 H15         4.1950   -4.7130    0.3910 DU        1 187      0.181667
     50 H12         0.9850    2.2930    3.9910 DU        1 187      0.181667
     51 H17         3.7050   -7.2140   -3.7850 ha        1 187      0.154333
     52 H21         2.2290   -6.4850   -5.4780 ha        1 187      0.149250
     53 H25         0.9760   -4.5060   -5.1810 ha        1 187      0.149250
     54 H27         1.1980   -3.2550   -3.1900 ha        1 187      0.140000
@<TRIPOS>BOND
     1    1    6 1   
     2    1   38 1   
     3    2    3 1   
     4    2   39 1   
     5    3   40 1   
     6    4    5 1   
     7    5   41 1   
     8    6    7 1   
     9    7    8 1   
    10    7    9 1   
    11    9   43 1   
    12    9   44 1   
    13   10   11 1   
    14   10   24 1   
    15   11   27 1   
    16   12   13 1   
    17   12   26 1   
    18   12   45 1   
    19   13   14 1   
    20   13   19 1   
    21   14   15 1   
    22   14   37 1   
    23   15   46 1   
    24   16   18 1   
    25   17   20 1   
    26   17   21 1   
    27   18   47 1   
    28   19   48 1   
    29   20   36 1   
    30   21   23 1   
    31   22   33 1   
    32   24   25 1   
    33   25   27 1   
    34   26   28 1   
    35   29   30 1   
    36   29   31 1   
    37   29   32 1   
    38   33   51 1   
    39   34   35 1   
    40   34   52 1   
    41   35   53 1   
    42   36   54 1   
@<TRIPOS>SUBSTRUCTURE
     1 187         1 TEMP              0 ****  ****    0 ROOT
