@<TRIPOS>MOLECULE
187
   56    60     1     0     0
SMALL
bcc


@<TRIPOS>ATOM
      1 C1         -1.5180   -0.3560    0.4720 ca        1 187     -0.078000
      2 C2         -0.5240   -1.2430    0.0650 ca        1 187     -0.097000
      3 C3          0.6750   -1.3450    0.7700 ca        1 187     -0.053000
      4 C4          0.8730   -0.5640    1.9250 ca        1 187     -0.009200
      5 C5         -0.1340    0.3270    2.3540 ca        1 187     -0.059000
      6 C6         -1.3160    0.4280    1.6140 ca        1 187     -0.242900
      7 C20        -2.3080    1.4590    2.0010 ce        1 187      0.574800
      8 N3         -2.2160    2.7300    2.0490 n2        1 187     -0.682100
      9 N4         -3.6380    0.8700    2.3890 n4        1 187     -0.821600
     10 N1          2.1240   -0.5880    2.6280 na        1 187      0.213300
     11 N6          2.7380    0.5470    2.9460 nc        1 187     -0.376800
     12 N5          3.3690   -4.1290    3.5740 n4        1 187     -0.503200
     13 C7          4.4210   -4.6300    2.6950 ca        1 187     -0.198400
     14 C44         5.7930   -4.4210    3.0090 ca        1 187      0.206900
     15 C14         6.7950   -4.9430    2.1950 ca        1 187     -0.208000
     16 C16         6.4690   -5.6850    1.0280 ca        1 187      0.170800
     17 N7          7.4360   -6.1890    0.1950 na        1 187     -0.121400
     18 C18         5.0840   -5.8960    0.7390 ca        1 187     -0.183000
     19 C22         4.0950   -5.3850    1.5500 ca        1 187     -0.033000
     20 C9          8.8180   -5.8510    0.1060 ca        1 187     -0.076200
     21 C15         7.2810   -7.3630   -0.6410 cc        1 187      0.427700
     22 C23         9.4090   -6.8390   -0.7780 ca        1 187      0.072400
     23 N2          8.4070   -7.7550   -1.2080 nd        1 187     -0.482100
     24 C13         2.8840   -1.7170    3.0540 cc        1 187     -0.226900
     25 C12         4.0480   -1.2000    3.6690 cd        1 187     -0.139300
     26 C8          2.4900   -3.1000    2.8910 c         1 187      0.604700
     27 C10         3.9080    0.2250    3.5760 cd        1 187      0.225600
     28 O3          1.5210   -3.5530    2.2900 o         1 187     -0.450100
     29 C11         4.8930    1.2710    4.0920 c3        1 187      0.637600
     30 F1          4.3460    2.1120    5.0210 f         1 187     -0.202967
     31 F3          5.9820    0.7040    4.6990 f         1 187     -0.202967
     32 F2          5.3930    2.0750    3.1050 f         1 187     -0.202967
     33 C17        10.7650   -6.7800   -1.0950 ca        1 187     -0.042000
     34 C21        11.5190   -5.7390   -0.5500 ca        1 187     -0.122000
     35 C25        10.9390   -4.7710    0.2750 ca        1 187     -0.091000
     36 C27         9.5820   -4.8020    0.6100 ca        1 187     -0.131000
     37 F4          6.1230   -3.7240    4.1230 f         1 187     -0.127900
     38 H1         -2.4370   -0.2600   -0.1290 ha        1 187      0.158000
     39 H2         -0.6730   -1.8580   -0.8410 ha        1 187      0.185000
     40 H3          1.4570   -2.0350    0.4090 ha        1 187      0.174000
     41 H5          0.0140    0.9600    3.2470 ha        1 187      0.176000
     42 HN3        -1.3590    3.1760    1.7920 hn        1 187      0.500400
     43 HN41       -3.5160    0.3170    3.2430 hn        1 187      0.476133
     44 HN42       -3.9580    0.2590    1.6300 hn        1 187      0.476133
     45 HN5         3.7970   -3.7240    4.4180 hn        1 187      0.473800
     46 H14         7.8470   -4.8000    2.4990 ha        1 187      0.200000
     47 H18         4.7880   -6.4710   -0.1560 ha        1 187      0.177000
     48 H22         3.0360   -5.5670    1.2900 ha        1 187      0.164000
     49 H15         6.3050   -7.8540   -0.7500 h5        1 187      0.082800
     50 H12         4.8960   -1.7240    4.1120 ha        1 187      0.209000
     51 H17        11.2210   -7.5290   -1.7600 ha        1 187      0.175000
     52 H21        12.5940   -5.6760   -0.7830 ha        1 187      0.162000
     53 H25        11.5650   -3.9550    0.6710 ha        1 187      0.154000
     54 H27         9.1560   -4.0040    1.2300 ha        1 187      0.135000
     55 H43        -4.3450    1.6020    2.5580 hn        1 187      0.476133
     56 H52         2.7740   -4.9280    3.8450 hn        1 187      0.473800
@<TRIPOS>BOND
     1    1    2 ar  
     2    1    6 ar  
     3    1   38 1   
     4    2    3 ar  
     5    2   39 1   
     6    3    4 ar  
     7    3   40 1   
     8    4    5 ar  
     9    4   10 1   
    10    5    6 ar  
    11    5   41 1   
    12    6    7 1   
    13    7    8 2   
    14    7    9 1   
    15    8   42 1   
    16    9   43 1   
    17    9   44 1   
    18    9   55 1   
    19   10   11 1   
    20   10   24 1   
    21   11   27 2   
    22   12   13 1   
    23   12   26 1   
    24   12   45 1   
    25   12   56 1   
    26   13   14 ar  
    27   13   19 ar  
    28   14   15 ar  
    29   14   37 1   
    30   15   16 ar  
    31   15   46 1   
    32   16   17 1   
    33   16   18 ar  
    34   17   20 1   
    35   17   21 1   
    36   18   19 ar  
    37   18   47 1   
    38   19   48 1   
    39   20   22 ar  
    40   20   36 ar  
    41   21   23 2   
    42   21   49 1   
    43   22   23 1   
    44   22   33 ar  
    45   24   25 2   
    46   24   26 1   
    47   25   27 1   
    48   25   50 1   
    49   26   28 2   
    50   27   29 1   
    51   29   30 1   
    52   29   31 1   
    53   29   32 1   
    54   33   34 ar  
    55   33   51 1   
    56   34   35 ar  
    57   34   52 1   
    58   35   36 ar  
    59   35   53 1   
    60   36   54 1   
@<TRIPOS>SUBSTRUCTURE
     1 187         1 TEMP              0 ****  ****    0 ROOT
