@<TRIPOS>MOLECULE
189
   86    88     1     0     0
SMALL
bcc


@<TRIPOS>ATOM
      1 C1          0.9660   -2.8030    4.3220 ca        1 189      0.034000
      2 C6          0.1120   -2.0750    3.4860 ca        1 189     -0.144500
      3 C5          0.6020   -1.0080    2.7520 ca        1 189      0.020500
      4 C4          1.9690   -0.6280    2.8220 ca        1 189     -0.599500
      5 S10         2.5280    0.5350    1.9350 s4        1 189      1.656300
      6 O15         3.8910    0.6710    1.8480 o         1 189     -0.461400
      7 O14         1.7200    1.0570    0.9690 o         1 189     -0.461400
      8 N13         2.2440    2.1500    3.4510 n3        1 189     -0.917200
      9 C20         3.3200    3.1500    3.3480 c3        1 189      0.118800
     10 C21         3.3600    3.9540    2.0450 c3        1 189     -0.094700
     11 C25         4.8110    4.3250    1.6710 c3        1 189     -0.114700
     12 C26         5.2500    3.5410    0.4360 c3        1 189      0.103800
     13 N27         6.6300    3.8780   -0.0230 n4        1 189     -0.591200
     14 C35         6.8110    3.6570   -1.5140 c         1 189      0.544100
     15 O46         6.0220    2.9170   -2.0810 o         1 189     -0.418100
     16 C36         7.9580    4.3890   -2.1850 c3        1 189      0.064400
     17 O37         8.5330    5.3170   -1.2700 os        1 189     -0.379900
     18 C38         9.0680    6.4560   -1.8890 ca        1 189      0.038100
     19 C43         8.2170    7.5110   -2.2620 ca        1 189     -0.070800
     20 C45         6.7450    7.4190   -2.1450 c3        1 189     -0.052800
     21 C42         8.7990    8.6790   -2.7670 ca        1 189     -0.114500
     22 C41        10.1830    8.7830   -2.8970 ca        1 189     -0.090000
     23 C40        11.0090    7.7240   -2.5260 ca        1 189     -0.114500
     24 C39        10.4650    6.5380   -2.0180 ca        1 189     -0.070800
     25 C44        11.3590    5.4280   -1.6180 c3        1 189     -0.052800
     26 C24         4.7900    5.8540    1.4160 c3        1 189      0.143800
     27 N23         3.5370    6.4050    1.8970 n3        1 189     -0.786200
     28 C22         2.6140    5.3110    2.1530 c3        1 189      0.149800
     29 C3          2.8090   -1.3840    3.6810 ca        1 189      0.020500
     30 C2          2.3190   -2.4490    4.4160 ca        1 189     -0.144500
     31 C16         0.8900    3.8930    5.5990 c3        1 189     -0.102600
     32 C17         0.1710    2.8880    4.7270 c3        1 189     -0.082700
     33 C19         0.8770    2.6870    3.3790 c3        1 189      0.112800
     34 C18        -1.2510    3.3380    4.4580 c3        1 189     -0.102600
     35 C28         7.7070    3.1670    0.7610 c3        1 189      0.184100
     36 C29         8.0120    1.7820    0.3030 ca        1 189     -0.179300
     37 C34         9.1550    1.5600   -0.4790 ca        1 189     -0.104000
     38 C33         9.5050    0.2650   -0.8540 ca        1 189     -0.119000
     39 C32         8.7180   -0.8160   -0.4510 ca        1 189     -0.074000
     40 C31         7.5850   -0.5980    0.3340 ca        1 189     -0.119000
     41 C30         7.2320    0.6950    0.7160 ca        1 189     -0.104000
     42 H1          0.5760   -3.6580    4.9050 ha        1 189      0.187000
     43 H6         -0.9540   -2.3560    3.4070 ha        1 189      0.187500
     44 H5         -0.0780   -0.4450    2.0830 ha        1 189      0.169000
     45 H201        3.2560    3.8690    4.2180 h1        1 189      0.083200
     46 H202        4.2860    2.5710    3.4510 h1        1 189      0.083200
     47 H21         2.8940    3.3600    1.2110 hc        1 189      0.071700
     48 H25         5.5020    4.1060    2.5280 hc        1 189      0.072700
     49 H261        5.2110    2.4330    0.6470 hx        1 189      0.114200
     50 H262        4.5400    3.7610   -0.4160 hx        1 189      0.114200
     51 H361        7.5560    4.8990   -3.1050 h1        1 189      0.119700
     52 H362        8.7350    3.6230   -2.4660 h1        1 189      0.119700
     53 H451        6.3240    8.3690   -1.7290 hc        1 189      0.048200
     54 H452        6.4420    6.5770   -1.4720 hc        1 189      0.048200
     55 H453        6.2870    7.2490   -3.1520 hc        1 189      0.048200
     56 H42         8.1530    9.5210   -3.0630 ha        1 189      0.157500
     57 H41        10.6270    9.7090   -3.2980 ha        1 189      0.161000
     58 H40        12.1030    7.8130   -2.6320 ha        1 189      0.157500
     59 H441       11.8860    5.6880   -0.6650 hc        1 189      0.048200
     60 H442       10.7860    4.4820   -1.4570 hc        1 189      0.048200
     61 H443       12.1340    5.2480   -2.4050 hc        1 189      0.048200
     62 H241        4.8350    6.0670    0.3100 h1        1 189      0.061200
     63 H242        5.6750    6.3470    1.9010 h1        1 189      0.061200
     64 H23         3.6710    6.9760    2.7110 hn        1 189      0.384800
     65 H221        2.1150    5.4240    3.1550 h1        1 189      0.070700
     66 H222        1.8140    5.3560    1.3610 h1        1 189      0.070700
     67 H3          3.8820   -1.1200    3.7490 ha        1 189      0.169000
     68 H2          2.9940   -3.0260    5.0720 ha        1 189      0.187500
     69 H161        0.2790    4.1060    6.5130 hc        1 189      0.053033
     70 H162        1.0440    4.8560    5.0540 hc        1 189      0.053033
     71 H163        1.8810    3.5030    5.9330 hc        1 189      0.053033
     72 H17         0.1350    1.9010    5.2700 hc        1 189      0.055700
     73 H191        0.2740    1.9500    2.7700 h1        1 189      0.080700
     74 H192        0.8770    3.6630    2.8160 h1        1 189      0.080700
     75 H181       -1.7870    2.5980    3.8160 hc        1 189      0.053033
     76 H182       -1.2630    4.3300    3.9450 hc        1 189      0.053033
     77 H183       -1.8060    3.4350    5.4230 hc        1 189      0.053033
     78 H281        8.6340    3.8120    0.6680 hx        1 189      0.107200
     79 H282        7.3750    3.1550    1.8390 hx        1 189      0.107200
     80 H34         9.7920    2.4070   -0.7820 ha        1 189      0.138000
     81 H33        10.4080    0.0930   -1.4630 ha        1 189      0.155500
     82 H32         8.9970   -1.8410   -0.7470 ha        1 189      0.164000
     83 H31         6.9720   -1.4520    0.6590 ha        1 189      0.155500
     84 H30         6.3460    0.8470    1.3520 ha        1 189      0.138000
     85 H131        2.3540    1.6930    4.3510 hn        1 189      0.410800
     86 H271        6.7830    4.8910    0.1280 hn        1 189      0.468800
@<TRIPOS>BOND
     1    1    2 ar  
     2    1   30 ar  
     3    1   42 1   
     4    2    3 ar  
     5    2   43 1   
     6    3    4 ar  
     7    3   44 1   
     8    4    5 1   
     9    4   29 ar  
    10    5    6 1   
    11    5    7 1   
    12    8    9 1   
    13    8   33 1   
    14    8   85 1   
    15    9   10 1   
    16    9   45 1   
    17    9   46 1   
    18   10   11 1   
    19   10   28 1   
    20   10   47 1   
    21   11   12 1   
    22   11   26 1   
    23   11   48 1   
    24   12   13 1   
    25   12   49 1   
    26   12   50 1   
    27   13   14 1   
    28   13   35 1   
    29   13   86 1   
    30   14   15 2   
    31   14   16 1   
    32   16   17 1   
    33   16   51 1   
    34   16   52 1   
    35   17   18 1   
    36   18   19 ar  
    37   18   24 ar  
    38   19   20 1   
    39   19   21 ar  
    40   20   53 1   
    41   20   54 1   
    42   20   55 1   
    43   21   22 ar  
    44   21   56 1   
    45   22   23 ar  
    46   22   57 1   
    47   23   24 ar  
    48   23   58 1   
    49   24   25 1   
    50   25   59 1   
    51   25   60 1   
    52   25   61 1   
    53   26   27 1   
    54   26   62 1   
    55   26   63 1   
    56   27   28 1   
    57   27   64 1   
    58   28   65 1   
    59   28   66 1   
    60   29   30 ar  
    61   29   67 1   
    62   30   68 1   
    63   31   32 1   
    64   31   69 1   
    65   31   70 1   
    66   31   71 1   
    67   32   33 1   
    68   32   34 1   
    69   32   72 1   
    70   33   73 1   
    71   33   74 1   
    72   34   75 1   
    73   34   76 1   
    74   34   77 1   
    75   35   36 1   
    76   35   78 1   
    77   35   79 1   
    78   36   37 ar  
    79   36   41 ar  
    80   37   38 ar  
    81   37   80 1   
    82   38   39 ar  
    83   38   81 1   
    84   39   40 ar  
    85   39   82 1   
    86   40   41 ar  
    87   40   83 1   
    88   41   84 1   
@<TRIPOS>SUBSTRUCTURE
     1 189         1 TEMP              0 ****  ****    0 ROOT
