@<TRIPOS>MOLECULE
189
   84    87     1     0     0
SMALL
bcc


@<TRIPOS>ATOM
      1 C1         -4.2650    1.3030    3.9480 ca        1 189     -0.065000
      2 C6         -3.0050    1.1320    3.3730 ca        1 189     -0.155000
      3 C5         -2.8850    1.0190    1.9900 ca        1 189     -0.020000
      4 C4         -4.0130    1.0720    1.1630 ca        1 189     -0.380500
      5 S10        -3.8550    0.9770   -0.5160 sy        1 189      1.503200
      6 O15        -4.9660    1.6200   -1.1020 o         1 189     -0.659300
      7 O14        -2.5780    1.4820   -0.8760 o         1 189     -0.659300
      8 N13        -3.9020   -0.6270   -0.8120 n3        1 189     -0.807500
      9 C20        -2.7290   -1.3280   -1.2680 c3        1 189      0.225800
     10 C21        -1.8150   -1.8520   -0.1550 c3        1 189     -0.116700
     11 C25        -0.3320   -1.7510   -0.5520 c3        1 189     -0.099700
     12 C26         0.2700   -0.4700    0.0340 c3        1 189      0.084000
     13 N27         1.6100   -0.1630   -0.4120 n         1 189     -0.476800
     14 C35         2.6850   -0.4180    0.4310 c         1 189      0.654100
     15 O46         2.5110   -1.0190    1.5090 o         1 189     -0.593100
     16 C36         4.0750    0.0210   -0.0170 c3        1 189      0.058400
     17 O37         4.9160    0.0070    1.1420 os        1 189     -0.313900
     18 C38         6.2010   -0.4680    0.8850 ca        1 189      0.077100
     19 C43         7.2520    0.4680    0.8430 ca        1 189     -0.075800
     20 C45         6.9900    1.9180    0.9840 c3        1 189     -0.060800
     21 C42         8.5600   -0.0030    0.6930 ca        1 189     -0.131500
     22 C41         8.8140   -1.3690    0.5860 ca        1 189     -0.126000
     23 C40         7.7660   -2.2840    0.6350 ca        1 189     -0.131500
     24 C39         6.4440   -1.8490    0.7870 ca        1 189     -0.075800
     25 C44         5.3420   -2.8350    0.8500 c3        1 189     -0.060800
     26 C24         0.3160   -3.0460   -0.0160 c3        1 189      0.138800
     27 N23        -0.7270   -3.9460    0.4760 n3        1 189     -0.795200
     28 C22        -2.0220   -3.3470    0.1670 c3        1 189      0.150800
     29 C3         -5.2690    1.2520    1.7550 ca        1 189     -0.020000
     30 C2         -5.3990    1.3660    3.1370 ca        1 189     -0.155000
     31 C16        -5.5540   -2.1370   -2.9610 c3        1 189     -0.088600
     32 C17        -6.1020   -1.4150   -1.7520 c3        1 189     -0.095700
     33 C19        -5.0920   -1.4060   -0.5900 c3        1 189      0.228800
     34 C18        -7.3790   -2.0760   -1.2740 c3        1 189     -0.088600
     35 C28         1.7600    0.4710   -1.7000 c3        1 189      0.145300
     36 C29         1.7550    1.9760   -1.7100 ca        1 189     -0.124300
     37 C34         2.9240    2.6730   -2.0350 ca        1 189     -0.118500
     38 C33         2.9220    4.0660   -2.0850 ca        1 189     -0.131000
     39 C32         1.7510    4.7730   -1.8130 ca        1 189     -0.124000
     40 C31         0.5810    4.0820   -1.5030 ca        1 189     -0.131000
     41 C30         0.5780    2.6870   -1.4550 ca        1 189     -0.118500
     42 H1         -4.3640    1.3930    5.0410 ha        1 189      0.139000
     43 H6         -2.1080    1.0920    4.0090 ha        1 189      0.144000
     44 H5         -1.8840    0.9030    1.5340 ha        1 189      0.152000
     45 H201       -3.0440   -2.1870   -1.9280 h1        1 189      0.066200
     46 H202       -2.1330   -0.6120   -1.9110 h1        1 189      0.066200
     47 H21        -1.9810   -1.2630    0.7890 hc        1 189      0.054700
     48 H25        -0.2360   -1.7370   -1.6700 hc        1 189      0.057700
     49 H261       -0.4090    0.3890   -0.2510 h1        1 189      0.071200
     50 H262        0.2760   -0.5550    1.1600 h1        1 189      0.071200
     51 H361        4.4460   -0.6810   -0.8080 h1        1 189      0.068700
     52 H362        4.0590    1.0790   -0.3970 h1        1 189      0.068700
     53 H451        7.0640    2.2120    2.0620 hc        1 189      0.052033
     54 H452        7.7330    2.5170    0.4020 hc        1 189      0.052033
     55 H453        5.9610    2.1720    0.6280 hc        1 189      0.052033
     56 H42         9.3930    0.7160    0.6610 ha        1 189      0.133500
     57 H41         9.8480   -1.7250    0.4670 ha        1 189      0.132000
     58 H40         7.9720   -3.3620    0.5610 ha        1 189      0.133500
     59 H441        5.6450   -3.7240    1.4550 hc        1 189      0.052033
     60 H442        4.4270   -2.3820    1.3150 hc        1 189      0.052033
     61 H443        5.0810   -3.1860   -0.1800 hc        1 189      0.052033
     62 H241        1.0740   -2.8070    0.7810 h1        1 189      0.061200
     63 H242        0.8480   -3.5770   -0.8520 h1        1 189      0.061200
     64 H23        -0.6310   -4.0740    1.4660 hn        1 189      0.351800
     65 H221       -2.7520   -3.4740    1.0090 h1        1 189      0.047200
     66 H222       -2.4350   -3.8850   -0.7310 h1        1 189      0.047200
     67 H3         -6.1640    1.3240    1.1100 ha        1 189      0.152000
     68 H2         -6.3920    1.5100    3.5870 ha        1 189      0.144000
     69 H161       -6.3390   -2.2100   -3.7530 hc        1 189      0.035867
     70 H162       -4.6790   -1.5880   -3.3860 hc        1 189      0.035867
     71 H163       -5.2280   -3.1710   -2.6920 hc        1 189      0.035867
     72 H17        -6.3340   -0.3490   -2.0390 hc        1 189      0.078700
     73 H191       -5.6150   -0.9870    0.3220 h1        1 189      0.047700
     74 H192       -4.8040   -2.4710   -0.3540 h1        1 189      0.047700
     75 H181       -7.1850   -3.1300   -0.9600 hc        1 189      0.035867
     76 H182       -7.8090   -1.5210   -0.4060 hc        1 189      0.035867
     77 H183       -8.1340   -2.0860   -2.0960 hc        1 189      0.035867
     78 H281        2.7180    0.1040   -2.1720 h1        1 189      0.054200
     79 H282        0.9060    0.1220   -2.3550 h1        1 189      0.054200
     80 H34         3.8490    2.1240   -2.2670 ha        1 189      0.146500
     81 H33         3.8450    4.6060   -2.3410 ha        1 189      0.135000
     82 H32         1.7510    5.8720   -1.8490 ha        1 189      0.131000
     83 H31        -0.3490    4.6340   -1.2990 ha        1 189      0.135000
     84 H30        -0.3660    2.1590   -1.2310 ha        1 189      0.146500
@<TRIPOS>BOND
     1    1    2 ar  
     2    1   30 ar  
     3    1   42 1   
     4    2    3 ar  
     5    2   43 1   
     6    3    4 ar  
     7    3   44 1   
     8    4    5 1   
     9    4   29 ar  
    10    5    6 2   
    11    5    7 2   
    12    5    8 1   
    13    8    9 1   
    14    8   33 1   
    15    9   10 1   
    16    9   45 1   
    17    9   46 1   
    18   10   11 1   
    19   10   28 1   
    20   10   47 1   
    21   11   12 1   
    22   11   26 1   
    23   11   48 1   
    24   12   13 1   
    25   12   49 1   
    26   12   50 1   
    27   13   14 1   
    28   13   35 1   
    29   14   15 2   
    30   14   16 1   
    31   16   17 1   
    32   16   51 1   
    33   16   52 1   
    34   17   18 1   
    35   18   19 ar  
    36   18   24 ar  
    37   19   20 1   
    38   19   21 ar  
    39   20   53 1   
    40   20   54 1   
    41   20   55 1   
    42   21   22 ar  
    43   21   56 1   
    44   22   23 ar  
    45   22   57 1   
    46   23   24 ar  
    47   23   58 1   
    48   24   25 1   
    49   25   59 1   
    50   25   60 1   
    51   25   61 1   
    52   26   27 1   
    53   26   62 1   
    54   26   63 1   
    55   27   28 1   
    56   27   64 1   
    57   28   65 1   
    58   28   66 1   
    59   29   30 ar  
    60   29   67 1   
    61   30   68 1   
    62   31   32 1   
    63   31   69 1   
    64   31   70 1   
    65   31   71 1   
    66   32   33 1   
    67   32   34 1   
    68   32   72 1   
    69   33   73 1   
    70   33   74 1   
    71   34   75 1   
    72   34   76 1   
    73   34   77 1   
    74   35   36 1   
    75   35   78 1   
    76   35   79 1   
    77   36   37 ar  
    78   36   41 ar  
    79   37   38 ar  
    80   37   80 1   
    81   38   39 ar  
    82   38   81 1   
    83   39   40 ar  
    84   39   82 1   
    85   40   41 ar  
    86   40   83 1   
    87   41   84 1   
@<TRIPOS>SUBSTRUCTURE
     1 189         1 TEMP              0 ****  ****    0 ROOT
