@<TRIPOS>MOLECULE
189
   86    88     1     0     0
SMALL
bcc


@<TRIPOS>ATOM
      1 C1         -1.7210   -1.7860    3.1060 ca        1 189      0.036000
      2 C6         -1.6370   -1.1260    1.8730 ca        1 189     -0.147500
      3 C5         -0.4510   -0.5260    1.4860 ca        1 189      0.025500
      4 C4          0.7020   -0.5600    2.3170 ca        1 189     -0.603500
      5 S10         2.0600    0.0450    1.8430 s4        1 189      1.667300
      6 O15         3.1830   -0.2250    2.5660 o         1 189     -0.450400
      7 O14         2.1420    0.4770    0.5510 o         1 189     -0.450400
      8 N13         1.8060    2.2120    2.6390 n7        1 189     -0.910200
      9 C20         3.0470    2.9720    2.4340 c3        1 189      0.121800
     10 C21         3.2530    3.4560    0.9980 c3        1 189     -0.112700
     11 C25         4.5730    4.2430    0.8730 c3        1 189     -0.108700
     12 C26         5.5760    3.4590    0.0320 c3        1 189      0.104800
     13 N27         6.9110    4.1160   -0.0860 nx        1 189     -0.592200
     14 C35         7.6630    3.6630   -1.3250 c         1 189      0.531100
     15 O46         7.3000    2.6320   -1.8700 o         1 189     -0.413100
     16 C36         8.8190    4.5370   -1.7810 c3        1 189      0.064400
     17 O37         8.7390    5.8110   -1.1540 os        1 189     -0.370900
     18 C38         8.9810    6.8890   -2.0190 ca        1 189      0.035100
     19 C43         7.9080    7.4520   -2.7330 ca        1 189     -0.069800
     20 C45         6.5410    6.8870   -2.6730 c3        1 189     -0.051800
     21 C42         8.1520    8.5950   -3.5000 ca        1 189     -0.114000
     22 C41         9.4290    9.1550   -3.5500 ca        1 189     -0.089000
     23 C40        10.4790    8.5840   -2.8360 ca        1 189     -0.114000
     24 C39        10.2740    7.4360   -2.0580 ca        1 189     -0.069800
     25 C44        11.4010    6.8560   -1.2950 c3        1 189     -0.051800
     26 C24         4.1830    5.5990    0.2290 c3        1 189      0.144800
     27 N23         2.7580    5.6130   -0.0590 n7        1 189     -0.784200
     28 C22         2.1470    4.4510    0.5640 c3        1 189      0.146800
     29 C3          0.5820   -1.2310    3.5640 ca        1 189      0.025500
     30 C2         -0.6040   -1.8320    3.9490 ca        1 189     -0.147500
     31 C16         3.1470    2.7550    5.6850 c3        1 189     -0.100600
     32 C17         2.2280    1.7000    5.1050 c3        1 189     -0.080700
     33 C19         1.3070    2.2830    4.0200 c3        1 189      0.115800
     34 C18         1.3650    1.1140    6.2070 c3        1 189     -0.100600
     35 C28         7.7700    3.9590    1.1450 c3        1 189      0.180100
     36 C29         8.1690    2.5610    1.4640 ca        1 189     -0.173300
     37 C34         9.3930    2.0590    1.0040 ca        1 189     -0.104500
     38 C33         9.8050    0.7780    1.3670 ca        1 189     -0.114000
     39 C32         9.0000   -0.0080    2.1930 ca        1 189     -0.076000
     40 C31         7.7830    0.4920    2.6610 ca        1 189     -0.114000
     41 C30         7.3680    1.7720    2.3000 ca        1 189     -0.104500
     42 H1         -2.6670   -2.2720    3.4110 ha        1 189      0.186000
     43 H6         -2.5170   -1.0930    1.2050 ha        1 189      0.187500
     44 H5         -0.3890   -0.0210    0.5030 ha        1 189      0.171000
     45 H201        3.9010    2.2950    2.7320 h1        1 189      0.081200
     46 H202        3.0680    3.8730    3.1170 h1        1 189      0.081200
     47 H21         3.2550    2.5770    0.2960 hc        1 189      0.084700
     48 H25         5.0020    4.4330    1.8940 hc        1 189      0.076700
     49 H261        5.1650    3.3230   -1.0120 hx        1 189      0.110700
     50 H262        5.7400    2.4340    0.4770 hx        1 189      0.110700
     51 H361        9.7740    4.0400   -1.4450 h1        1 189      0.120700
     52 H362        8.7880    4.6010   -2.9040 h1        1 189      0.120700
     53 H451        6.5670    5.7950   -2.4290 hc        1 189      0.047200
     54 H452        6.0150    7.0160   -3.6520 hc        1 189      0.047200
     55 H453        5.9450    7.4120   -1.8840 hc        1 189      0.047200
     56 H42         7.3280    9.0550   -4.0680 ha        1 189      0.157500
     57 H41         9.6060   10.0570   -4.1590 ha        1 189      0.162000
     58 H40        11.4850    9.0330   -2.8770 ha        1 189      0.157500
     59 H441       11.6340    7.5030   -0.4100 hc        1 189      0.047200
     60 H442       12.3190    6.7990   -1.9340 hc        1 189      0.047200
     61 H443       11.1590    5.8300   -0.9250 hc        1 189      0.047200
     62 H241        4.7830    5.8080   -0.6990 h1        1 189      0.061700
     63 H242        4.3840    6.4290    0.9630 h1        1 189      0.061700
     64 H23         2.5800    5.6390   -1.0450 hn        1 189      0.380800
     65 H221        1.4150    3.9490   -0.1230 h1        1 189      0.064200
     66 H222        1.5840    4.8240    1.4660 h1        1 189      0.064200
     67 H3          1.4640   -1.2780    4.2320 ha        1 189      0.171000
     68 H2         -0.6680   -2.3550    4.9200 ha        1 189      0.187500
     69 H161        3.7170    2.3270    6.5470 hc        1 189      0.051200
     70 H162        3.8830    3.1090    4.9260 hc        1 189      0.051200
     71 H163        2.5630    3.6310    6.0570 hc        1 189      0.051200
     72 H17         2.8620    0.8740    4.6720 hc        1 189      0.054700
     73 H191        0.3310    1.7130    4.0250 h1        1 189      0.076700
     74 H192        1.0710    3.3530    4.2940 h1        1 189      0.076700
     75 H181        0.7290    0.2840    5.8130 hc        1 189      0.051200
     76 H182        2.0130    0.7070    7.0220 hc        1 189      0.051200
     77 H183        0.6990    1.8960    6.6460 hc        1 189      0.051200
     78 H281        7.1850    4.3990    2.0040 hx        1 189      0.109700
     79 H282        8.6880    4.6000    0.9680 hx        1 189      0.109700
     80 H34        10.0450    2.6810    0.3700 ha        1 189      0.127000
     81 H33        10.7720    0.3900    1.0070 ha        1 189      0.159500
     82 H32         9.3300   -1.0190    2.4840 ha        1 189      0.164000
     83 H31         7.1550   -0.1230    3.3240 ha        1 189      0.159500
     84 H30         6.4210    2.1710    2.6930 ha        1 189      0.127000
     85 H131        1.0910    2.6070    2.0390 hn        1 189      0.398800
     86 H271        6.7680    5.1350   -0.2080 hn        1 189      0.468800
@<TRIPOS>BOND
     1    1    2 ar  
     2    1   30 ar  
     3    1   42 1   
     4    2    3 ar  
     5    2   43 1   
     6    3    4 ar  
     7    3   44 1   
     8    4    5 1   
     9    4   29 ar  
    10    5    6 1   
    11    5    7 1   
    12    8    9 1   
    13    8   33 1   
    14    8   85 1   
    15    9   10 1   
    16    9   45 1   
    17    9   46 1   
    18   10   11 1   
    19   10   28 1   
    20   10   47 1   
    21   11   12 1   
    22   11   26 1   
    23   11   48 1   
    24   12   13 1   
    25   12   49 1   
    26   12   50 1   
    27   13   14 1   
    28   13   35 1   
    29   13   86 1   
    30   14   15 2   
    31   14   16 1   
    32   16   17 1   
    33   16   51 1   
    34   16   52 1   
    35   17   18 1   
    36   18   19 ar  
    37   18   24 ar  
    38   19   20 1   
    39   19   21 ar  
    40   20   53 1   
    41   20   54 1   
    42   20   55 1   
    43   21   22 ar  
    44   21   56 1   
    45   22   23 ar  
    46   22   57 1   
    47   23   24 ar  
    48   23   58 1   
    49   24   25 1   
    50   25   59 1   
    51   25   60 1   
    52   25   61 1   
    53   26   27 1   
    54   26   62 1   
    55   26   63 1   
    56   27   28 1   
    57   27   64 1   
    58   28   65 1   
    59   28   66 1   
    60   29   30 ar  
    61   29   67 1   
    62   30   68 1   
    63   31   32 1   
    64   31   69 1   
    65   31   70 1   
    66   31   71 1   
    67   32   33 1   
    68   32   34 1   
    69   32   72 1   
    70   33   73 1   
    71   33   74 1   
    72   34   75 1   
    73   34   76 1   
    74   34   77 1   
    75   35   36 1   
    76   35   78 1   
    77   35   79 1   
    78   36   37 ar  
    79   36   41 ar  
    80   37   38 ar  
    81   37   80 1   
    82   38   39 ar  
    83   38   81 1   
    84   39   40 ar  
    85   39   82 1   
    86   40   41 ar  
    87   40   83 1   
    88   41   84 1   
@<TRIPOS>SUBSTRUCTURE
     1 189         1 TEMP              0 ****  ****    0 ROOT
