@<TRIPOS>MOLECULE
189
   86    88     1     0     0
SMALL
bcc


@<TRIPOS>ATOM
      1 C1          0.1550   -2.7840    3.4600 ca        1 189      0.034000
      2 C6         -0.6130   -1.7490    2.9130 ca        1 189     -0.145500
      3 C5          0.0080   -0.6520    2.3410 ca        1 189      0.022500
      4 C4          1.4230   -0.5450    2.2910 ca        1 189     -0.600500
      5 S10         2.1180    0.6640    1.5810 s4        1 189      1.659300
      6 O15         3.4650    0.5850    1.3560 o         1 189     -0.456400
      7 O14         1.3390    1.5240    0.8650 o         1 189     -0.456400
      8 N13         2.3380    1.9600    3.4210 n3        1 189     -0.914200
      9 C20         3.4720    2.8870    3.2790 c3        1 189      0.120800
     10 C21         3.3860    3.8960    2.1300 c3        1 189     -0.085700
     11 C25         4.8010    4.3490    1.7080 c3        1 189     -0.101700
     12 C26         5.2580    3.6100    0.4550 c3        1 189      0.102800
     13 N27         6.5650    4.0890   -0.0860 n4        1 189     -0.588200
     14 C35         6.7610    3.6730   -1.5320 c         1 189      0.546100
     15 O46         6.0710    2.7600   -1.9600 o         1 189     -0.418100
     16 C36         7.7890    4.4360   -2.3420 c3        1 189      0.061400
     17 O37         8.1940    5.5940   -1.6130 os        1 189     -0.383900
     18 C38         8.9600    6.4840   -2.3810 ca        1 189      0.040100
     19 C43         8.3130    7.4070   -3.2210 ca        1 189     -0.069300
     20 C45         6.8470    7.3960   -3.4240 c3        1 189     -0.054800
     21 C42         9.1000    8.3580   -3.8810 ca        1 189     -0.115000
     22 C41        10.4830    8.3780   -3.7100 ca        1 189     -0.090000
     23 C40        11.1050    7.4520   -2.8760 ca        1 189     -0.115000
     24 C39        10.3530    6.4850   -2.1980 ca        1 189     -0.069300
     25 C44        11.0280    5.5200   -1.3010 c3        1 189     -0.054800
     26 C24         4.6880    5.8770    1.5000 c3        1 189      0.151800
     27 N23         3.5020    6.3440    2.1970 n3        1 189     -0.801200
     28 C22         2.6620    5.2050    2.5310 c3        1 189      0.153800
     29 C3          2.1740   -1.6090    2.8560 ca        1 189      0.022500
     30 C2          1.5540   -2.7060    3.4280 ca        1 189     -0.145500
     31 C16         1.6780    3.3420    6.0950 c3        1 189     -0.103100
     32 C17         0.6870    2.5590    5.2620 c3        1 189     -0.082700
     33 C19         1.0520    2.5750    3.7710 c3        1 189      0.116800
     34 C18        -0.7080    3.1300    5.4190 c3        1 189     -0.103100
     35 C28         7.7560    3.6880    0.7500 c3        1 189      0.177100
     36 C29         8.0810    2.2350    0.7360 ca        1 189     -0.173300
     37 C34         9.0750    1.7540   -0.1260 ca        1 189     -0.101500
     38 C33         9.4460    0.4110   -0.0850 ca        1 189     -0.115500
     39 C32         8.8310   -0.4570    0.8190 ca        1 189     -0.076000
     40 C31         7.8450    0.0210    1.6840 ca        1 189     -0.115500
     41 C30         7.4710    1.3630    1.6450 ca        1 189     -0.101500
     42 H1         -0.3410   -3.6630    3.9130 ha        1 189      0.187000
     43 H6         -1.7160   -1.8130    2.9320 ha        1 189      0.187500
     44 H5         -0.6080    0.1560    1.8970 ha        1 189      0.169000
     45 H201        3.6300    3.4550    4.2440 h1        1 189      0.083700
     46 H202        4.3810    2.2350    3.1060 h1        1 189      0.083700
     47 H21         2.8550    3.4400    1.2500 hc        1 189      0.066700
     48 H25         5.5210    4.1530    2.5490 hc        1 189      0.081700
     49 H261        5.3550    2.5040    0.6720 hx        1 189      0.112700
     50 H262        4.4890    3.7390   -0.3630 hx        1 189      0.112700
     51 H361        8.6730    3.7600   -2.5150 h1        1 189      0.116200
     52 H362        7.3200    4.7250   -3.3250 h1        1 189      0.116200
     53 H451        6.3280    6.8600   -2.5910 hc        1 189      0.049033
     54 H452        6.4500    8.4410   -3.4700 hc        1 189      0.049033
     55 H453        6.5950    6.8870   -4.3890 hc        1 189      0.049033
     56 H42         8.6150    9.0960   -4.5410 ha        1 189      0.157500
     57 H41        11.0890    9.1330   -4.2380 ha        1 189      0.161000
     58 H40        12.1990    7.4750   -2.7440 ha        1 189      0.157500
     59 H441       10.3880    4.6220   -1.1170 hc        1 189      0.049033
     60 H442       11.9990    5.1820   -1.7440 hc        1 189      0.049033
     61 H443       11.2460    6.0050   -0.3150 hc        1 189      0.049033
     62 H241        4.6550    6.1220    0.4000 h1        1 189      0.050700
     63 H242        5.5760    6.4020    1.9480 h1        1 189      0.050700
     64 H23         3.0090    7.0410    1.6740 hn        1 189      0.395800
     65 H221        1.6580    5.2540    2.0250 h1        1 189      0.063700
     66 H222        2.4930    5.2420    3.6450 h1        1 189      0.063700
     67 H3          3.2790   -1.5620    2.8190 ha        1 189      0.169000
     68 H2          2.1600   -3.5250    3.8550 ha        1 189      0.187500
     69 H161        1.8180    4.3720    5.6860 hc        1 189      0.053200
     70 H162        1.3010    3.4340    7.1450 hc        1 189      0.053200
     71 H163        2.6680    2.8280    6.1320 hc        1 189      0.053200
     72 H17         0.6770    1.4910    5.6230 hc        1 189      0.054700
     73 H191        0.2610    1.9960    3.2080 h1        1 189      0.075200
     74 H192        1.0170    3.6370    3.4000 h1        1 189      0.075200
     75 H181       -1.4430    2.5570    4.8050 hc        1 189      0.053200
     76 H182       -1.0220    3.0710    6.4910 hc        1 189      0.053200
     77 H183       -0.7360    4.2010    5.1040 hc        1 189      0.053200
     78 H281        7.5410    4.0280    1.8040 hx        1 189      0.112200
     79 H282        8.6310    4.2870    0.3460 hx        1 189      0.112200
     80 H34         9.5830    2.4380   -0.8240 ha        1 189      0.127500
     81 H33        10.2330    0.0370   -0.7600 ha        1 189      0.156000
     82 H32         9.1310   -1.5170    0.8560 ha        1 189      0.163000
     83 H31         7.3720   -0.6610    2.4070 ha        1 189      0.156000
     84 H30         6.7100    1.7390    2.3450 ha        1 189      0.127500
     85 H131        2.5860    1.3140    4.1640 hn        1 189      0.406800
     86 H271        6.5560    5.1250   -0.0870 hn        1 189      0.470800
@<TRIPOS>BOND
     1    1    2 ar  
     2    1   30 ar  
     3    1   42 1   
     4    2    3 ar  
     5    2   43 1   
     6    3    4 ar  
     7    3   44 1   
     8    4    5 1   
     9    4   29 ar  
    10    5    6 1   
    11    5    7 1   
    12    8    9 1   
    13    8   33 1   
    14    8   85 1   
    15    9   10 1   
    16    9   45 1   
    17    9   46 1   
    18   10   11 1   
    19   10   28 1   
    20   10   47 1   
    21   11   12 1   
    22   11   26 1   
    23   11   48 1   
    24   12   13 1   
    25   12   49 1   
    26   12   50 1   
    27   13   14 1   
    28   13   35 1   
    29   13   86 1   
    30   14   15 2   
    31   14   16 1   
    32   16   17 1   
    33   16   51 1   
    34   16   52 1   
    35   17   18 1   
    36   18   19 ar  
    37   18   24 ar  
    38   19   20 1   
    39   19   21 ar  
    40   20   53 1   
    41   20   54 1   
    42   20   55 1   
    43   21   22 ar  
    44   21   56 1   
    45   22   23 ar  
    46   22   57 1   
    47   23   24 ar  
    48   23   58 1   
    49   24   25 1   
    50   25   59 1   
    51   25   60 1   
    52   25   61 1   
    53   26   27 1   
    54   26   62 1   
    55   26   63 1   
    56   27   28 1   
    57   27   64 1   
    58   28   65 1   
    59   28   66 1   
    60   29   30 ar  
    61   29   67 1   
    62   30   68 1   
    63   31   32 1   
    64   31   69 1   
    65   31   70 1   
    66   31   71 1   
    67   32   33 1   
    68   32   34 1   
    69   32   72 1   
    70   33   73 1   
    71   33   74 1   
    72   34   75 1   
    73   34   76 1   
    74   34   77 1   
    75   35   36 1   
    76   35   78 1   
    77   35   79 1   
    78   36   37 ar  
    79   36   41 ar  
    80   37   38 ar  
    81   37   80 1   
    82   38   39 ar  
    83   38   81 1   
    84   39   40 ar  
    85   39   82 1   
    86   40   41 ar  
    87   40   83 1   
    88   41   84 1   
@<TRIPOS>SUBSTRUCTURE
     1 189         1 TEMP              0 ****  ****    0 ROOT
