@<TRIPOS>MOLECULE
189
   84    79     1     0     0
SMALL
bcc


@<TRIPOS>ATOM
      1 C1         -3.3030    2.1780   -8.1590 c1        1 189     -0.113000
      2 C6         -2.0460    1.8060   -7.6860 c1        1 189     -0.113000
      3 C5         -1.8620    1.5420   -6.3340 c1        1 189     -0.113000
      4 C4         -2.9390    1.6510   -5.4470 c1        1 189     -0.820000
      5 S10        -2.7650    1.0720   -3.7380 s4        1 189      2.055800
      6 O15        -4.0480    1.0510   -3.0580 o         1 189     -0.538400
      7 O14        -2.3960   -0.3360   -3.6950 o         1 189     -0.538400
      8 N13        -1.6250    2.0490   -2.8830 n2        1 189     -0.826000
      9 C20        -0.2870    1.5420   -2.6110 c3        1 189     -0.001000
     10 C21        -0.3900    0.2320   -1.7740 c3        1 189     -0.150000
     11 C25         0.5450    0.2010   -0.8310 c3        1 189     -0.141000
     12 C26         0.0140   -0.6050    0.4470 c3        1 189     -0.019000
     13 N27         0.9850   -0.4680    1.5580 n         1 189     -0.310000
     14 C35         1.5840   -1.6560    2.1510 c2        1 189      0.300000
     15 O46         2.6890   -1.9760    1.8430 o         1 189     -0.374000
     16 C36         0.6790   -2.6550    3.0230 c3        1 189     -0.039000
     17 O37         1.5410   -3.4600    3.8840 os        1 189     -0.228000
     18 C38         0.8480   -4.2180    4.8350 c2        1 189      0.032000
     19 C43         0.6080   -5.5500    4.6010 c2        1 189     -0.069000
     20 C45         0.9980   -6.1770    3.2320 c3        1 189     -0.174000
     21 C42         0.0210   -6.3480    5.6010 c1        1 189     -0.128000
     22 C41        -0.3180   -5.7810    6.8360 c1        1 189     -0.113000
     23 C40        -0.0740   -4.4330    7.0700 c1        1 189     -0.113000
     24 C39         0.5080   -3.6470    6.0720 c1        1 189     -0.071000
     25 C44         0.8970   -2.1310    6.3790 c3        1 189     -0.188000
     26 C24         1.8330   -0.5690   -1.4880 c3        1 189     -0.094000
     27 N23         1.3230   -1.5680   -2.2810 n3        1 189     -0.265000
     28 C22        -0.0870   -1.0570   -2.7100 c3        1 189     -0.102000
     29 C3         -4.2000    2.0250   -5.9240 c1        1 189     -0.018000
     30 C2         -4.3830    2.2870   -7.2700 c1        1 189     -0.113000
     31 C16        -0.6590    5.4330   -2.8500 c3        1 189     -0.210500
     32 C17        -1.7090    4.4930   -3.4160 c3        1 189     -0.128000
     33 C19        -2.0340    3.3510   -2.3440 c3        1 189     -0.021000
     34 C18        -2.9730    5.2920   -3.7310 c3        1 189     -0.210500
     35 C28         1.2290    0.8440    2.1490 c3        1 189      0.004000
     36 C29         2.5690    0.8400    2.8870 c2        1 189     -0.109000
     37 C34         2.5950    0.7090    4.2780 c2        1 189     -0.126000
     38 C33         3.7970    0.6850    4.9460 c1        1 189     -0.137000
     39 C32         4.9890    0.7920    4.2390 c1        1 189     -0.113000
     40 C31         4.9670    0.9230    2.8490 c1        1 189     -0.113000
     41 C30         3.7580    0.9460    2.1790 c1        1 189     -0.109000
     42 H1         -3.4250    2.3510   -9.0550 ha        1 189      0.138625
     43 H6         -1.2620    1.7270   -8.3310 ha        1 189      0.138625
     44 H5         -0.9520    1.2710   -5.9920 ha        1 189      0.138625
     45 H201        0.1800    2.1600   -2.1450 h1        1 189      0.091000
     46 H202        0.1820    1.3510   -3.4790 h1        1 189      0.091000
     47 H21        -1.3150    0.1550   -1.3540 hc        1 189      0.093000
     48 H25         0.8010    1.1440   -0.5650 hc        1 189      0.096000
     49 H261       -0.8480   -0.2430    0.7240 h1        1 189      0.092000
     50 H262       -0.0850   -1.5120    0.2270 h1        1 189      0.092000
     51 H361        0.1800   -3.2330    2.4340 h1        1 189      0.109000
     52 H362        0.0580   -2.1390    3.5740 h1        1 189      0.109000
     53 H451        1.1950   -7.1840    3.3580 hc        1 189      0.085333
     54 H452        1.7850   -5.7360    2.8880 hc        1 189      0.085333
     55 H453        0.2390   -6.0610    2.5800 hc        1 189      0.085333
     56 H42        -0.1470   -7.2820    5.4350 ha        1 189      0.136000
     57 H41        -0.7430   -6.3570    7.5630 ha        1 189      0.138625
     58 H40        -0.3130   -4.0290    7.9400 ha        1 189      0.138625
     59 H441        0.1650   -1.5500    6.1200 hc        1 189      0.094000
     60 H442        1.6600   -1.9030    5.8960 hc        1 189      0.094000
     61 H443        1.0780   -2.0230    7.3650 hc        1 189      0.094000
     62 H241        2.3830    0.0870   -2.0590 h1        1 189      0.102500
     63 H242        2.4360   -0.9800   -0.7270 h1        1 189      0.102500
     64 H23         1.2280   -2.3660   -1.7680 hn        1 189      0.142000
     65 H221       -0.0750   -0.7860   -3.6790 h1        1 189      0.107000
     66 H222       -0.7650   -1.7530   -2.5590 h1        1 189      0.107000
     67 H3         -4.9650    2.1030   -5.2940 ha        1 189      0.156000
     68 H2         -5.2880    2.5550   -7.6100 ha        1 189      0.138625
     69 H161       -0.5770    6.1870   -3.4130 hc        1 189      0.076667
     70 H162       -0.9300    5.7250   -1.9490 hc        1 189      0.076667
     71 H163        0.1430    5.0000   -2.8000 hc        1 189      0.076667
     72 H17        -1.3590    4.0650   -4.2650 hc        1 189      0.090000
     73 H191       -1.5310    3.5340   -1.5020 h1        1 189      0.101000
     74 H192       -3.0010    3.3390   -2.1520 h1        1 189      0.101000
     75 H181       -3.3590    5.6330   -2.8950 hc        1 189      0.076667
     76 H182       -2.7260    6.1030   -4.3590 hc        1 189      0.076667
     77 H183       -3.6330    4.7070   -4.1890 hc        1 189      0.076667
     78 H281        0.4950    1.0580    2.7970 h1        1 189      0.111500
     79 H282        1.2480    1.5340    1.4270 h1        1 189      0.111500
     80 H34         1.7730    0.6350    4.7680 ha        1 189      0.127000
     81 H33         3.8140    0.5920    5.9680 ha        1 189      0.131000
     82 H32         5.8120    0.7760    4.6970 ha        1 189      0.138625
     83 H31         5.8250    0.9980    2.3400 ha        1 189      0.138625
     84 H30         3.7410    1.0370    1.2100 ha        1 189      0.153000
@<TRIPOS>BOND
     1    1   30 1   
     2    1   42 1   
     3    2    3 1   
     4    2   43 1   
     5    3   44 1   
     6    4    5 1   
     7    4   29 1   
     8    5    6 1   
     9    5    7 1   
    10    8    9 1   
    11    8   33 1   
    12    9   10 1   
    13    9   45 1   
    14    9   46 1   
    15   10   11 1   
    16   10   28 1   
    17   10   47 1   
    18   11   12 1   
    19   11   26 1   
    20   11   48 1   
    21   12   13 1   
    22   12   49 1   
    23   12   50 1   
    24   13   14 1   
    25   13   35 1   
    26   14   15 1   
    27   14   16 1   
    28   16   17 1   
    29   16   51 1   
    30   16   52 1   
    31   17   18 1   
    32   18   19 1   
    33   18   24 1   
    34   19   20 1   
    35   19   21 1   
    36   20   53 1   
    37   20   54 1   
    38   20   55 1   
    39   21   56 1   
    40   22   23 1   
    41   22   57 1   
    42   23   58 1   
    43   24   25 1   
    44   25   59 1   
    45   25   60 1   
    46   25   61 1   
    47   26   27 1   
    48   26   62 1   
    49   26   63 1   
    50   27   28 1   
    51   27   64 1   
    52   28   65 1   
    53   28   66 1   
    54   29   67 1   
    55   30   68 1   
    56   31   32 1   
    57   31   69 1   
    58   31   70 1   
    59   31   71 1   
    60   32   33 1   
    61   32   34 1   
    62   32   72 1   
    63   33   73 1   
    64   33   74 1   
    65   34   75 1   
    66   34   76 1   
    67   34   77 1   
    68   35   36 1   
    69   35   78 1   
    70   35   79 1   
    71   36   37 1   
    72   36   41 1   
    73   37   38 1   
    74   37   80 1   
    75   38   81 1   
    76   39   40 1   
    77   39   82 1   
    78   40   83 1   
    79   41   84 1   
@<TRIPOS>SUBSTRUCTURE
     1 189         1 TEMP              0 ****  ****    0 ROOT
