@<TRIPOS>MOLECULE
18A
   43    36     1     0     0
SMALL
bcc


@<TRIPOS>ATOM
      1 C2         -6.1690   -1.1610    1.8980 c3        1 18A     -0.181000
      2 C3         -4.6600   -1.2580    1.8500 c1        1 18A      0.307000
      3 C4          2.0200    0.4230   -0.8170 c1        1 18A     -0.076000
      4 O4         -4.0440   -1.6220    2.8310 o         1 18A     -0.345000
      5 C5          2.5330    0.0120   -2.0380 c1        1 18A     -0.088000
      6 C6         -2.5490   -0.9930    0.6210 c1        1 18A      0.082000
      7 C7         -1.7840    0.1270    0.9100 c1        1 18A     -0.190000
      8 C1         -6.6680   -1.7090    3.2180 c3        1 18A     -0.205000
      9 C8         -0.4010    0.0280    0.9600 c1        1 18A     -0.086000
     10 N5         -3.9640   -0.9120    0.6630 n2        1 18A     -0.329000
     11 C9          0.2160   -1.1900    0.7220 c1        1 18A     -0.080000
     12 C10        -0.5490   -2.3090    0.4330 c2        1 18A     -0.095000
     13 C11        -1.9320   -2.2100    0.3830 c1        1 18A     -0.160000
     14 C12         1.7140   -1.3290    0.9160 c1        1 18A     -0.111000
     15 C13         2.5630   -0.5670    0.1900 c2        1 18A     -0.117000
     16 C14         3.5230    0.7580   -2.6590 c1        1 18A     -0.093000
     17 C15         4.0010    1.9130   -2.0600 c1        1 18A      0.079000
     18 C16         3.4880    2.3230   -0.8380 c1        1 18A     -0.152000
     19 C17         2.4970    1.5780   -0.2170 c2        1 18A     -0.089000
     20 O18         4.9920    2.6800   -2.7000 o         1 18A     -0.252000
     21 C19         3.9800    3.6070   -0.2040 c2        1 18A     -0.173000
     22 C21         4.1090    0.2900   -3.9760 c2        1 18A     -0.173000
     23 H1         -6.5520   -1.6810    1.1640 hc        1 18A      0.102000
     24 H2         -6.4380   -0.2250    1.8100 hc        1 18A      0.102000
     25 H3          2.1960   -0.8010   -2.4600 ha        1 18A      0.148000
     26 H4         -2.2180    0.9850    1.0780 ha        1 18A      0.129000
     27 H5         -6.3180   -1.1610    3.9520 hc        1 18A      0.087667
     28 H6         -7.6470   -1.6850    3.2310 hc        1 18A      0.087667
     29 H7         -6.3610   -2.6330    3.3250 hc        1 18A      0.087667
     30 H8          0.1370    0.8160    1.1630 ha        1 18A      0.144000
     31 H9         -4.4270   -0.6400   -0.0740 hn        1 18A      0.227000
     32 H10        -0.1150   -3.1670    0.2650 ha        1 18A      0.135000
     33 H11        -2.4710   -2.9990    0.1790 ha        1 18A      0.174000
     34 H12         2.0650   -1.9670    1.5650 ha        1 18A      0.124000
     35 H13         3.5270   -0.6570    0.3150 ha        1 18A      0.123000
     36 H14         2.1360    1.8670    0.6420 ha        1 18A      0.133000
     37 H15         4.6080    3.2530   -3.2600 ho        1 18A      0.218000
     38 H16         3.7150    4.3690   -0.7600 ha        1 18A      0.084667
     39 H17         3.5870    3.7010    0.6900 ha        1 18A      0.084667
     40 H18         4.9570    3.5810   -0.1290 ha        1 18A      0.084667
     41 H19         3.4080   -0.1370   -4.5120 ha        1 18A      0.084667
     42 H20         4.4700    1.0600   -4.4650 ha        1 18A      0.084667
     43 H21         4.8270   -0.3540   -3.8040 ha        1 18A      0.084667
@<TRIPOS>BOND
     1    1    2 1   
     2    1    8 1   
     3    1   23 1   
     4    1   24 1   
     5    2    4 1   
     6    3   15 1   
     7    3   19 1   
     8    5   16 1   
     9    5   25 1   
    10    6    7 1   
    11    6   10 1   
    12    7   26 1   
    13    8   27 1   
    14    8   28 1   
    15    8   29 1   
    16    9   11 1   
    17    9   30 1   
    18   10   31 1   
    19   11   12 1   
    20   12   13 1   
    21   12   32 1   
    22   13   33 1   
    23   14   15 1   
    24   14   34 1   
    25   15   35 1   
    26   16   17 1   
    27   17   18 1   
    28   18   19 1   
    29   19   36 1   
    30   20   37 1   
    31   21   38 1   
    32   21   39 1   
    33   21   40 1   
    34   22   41 1   
    35   22   42 1   
    36   22   43 1   
@<TRIPOS>SUBSTRUCTURE
     1 18A         1 TEMP              0 ****  ****    0 ROOT
