@<TRIPOS>MOLECULE
18A
   43    44     1     0     0
SMALL
bcc


@<TRIPOS>ATOM
      1 C2          1.7900   -1.9270    0.2300 c3        1 18A     -0.158400
      2 C3          2.7960   -0.8670    0.6550 c         1 18A      0.664100
      3 C4          9.6430    2.4750   -1.4170 ca        1 18A     -0.088800
      4 O4          2.8040   -0.4350    1.8210 o         1 18A     -0.588100
      5 C5         10.4210    2.8700   -2.5170 ca        1 18A     -0.088000
      6 C6          4.7020    0.5180   -0.2030 ca        1 18A      0.072600
      7 C7          5.4940    0.8030   -1.3440 ca        1 18A     -0.175000
      8 C1          0.8600   -1.4350   -0.8470 c3        1 18A     -0.095100
      9 C8          6.5120    1.7440   -1.2790 ca        1 18A     -0.091000
     10 N5          3.6890   -0.4460   -0.3210 ns        1 18A     -0.471100
     11 C9          6.7800    2.4380   -0.0920 ca        1 18A     -0.089800
     12 C10         5.9910    2.1630    1.0330 ca        1 18A     -0.091000
     13 C11         4.9730    1.2180    0.9920 ca        1 18A     -0.175000
     14 C12         7.8020    3.4670   -0.0140 ce        1 18A     -0.102200
     15 C13         9.0070    3.4960   -0.6000 cf        1 18A     -0.103200
     16 C14        11.0860    1.9320   -3.3030 ca        1 18A     -0.129800
     17 C15        10.9770    0.5660   -2.9640 ca        1 18A      0.124100
     18 C16        10.2110    0.1490   -1.8610 ca        1 18A     -0.129800
     19 C17         9.5480    1.1160   -1.1010 ca        1 18A     -0.088000
     20 O18        11.6620   -0.3080   -3.7780 oh        1 18A     -0.498100
     21 C19        10.1030   -1.2840   -1.5020 c3        1 18A     -0.048300
     22 C21        11.8980    2.3400   -4.4710 c3        1 18A     -0.048300
     23 H1          1.2010   -2.2050    1.1460 hc        1 18A      0.074200
     24 H2          2.3380   -2.8440   -0.1120 hc        1 18A      0.074200
     25 H3         10.5060    3.9400   -2.7650 ha        1 18A      0.140000
     26 H4          5.3100    0.2820   -2.2960 ha        1 18A      0.151000
     27 H5          0.3760   -0.4750   -0.5450 hc        1 18A      0.043367
     28 H6          0.0570   -2.1920   -1.0260 hc        1 18A      0.043367
     29 H7          1.4000   -1.2700   -1.8100 hc        1 18A      0.043367
     30 H8          7.1240    1.9470   -2.1730 ha        1 18A      0.140000
     31 H9          3.5830   -0.8460   -1.2270 hn        1 18A      0.315500
     32 H10         6.1800    2.7030    1.9740 ha        1 18A      0.140000
     33 H11         4.3810    1.0260    1.9030 ha        1 18A      0.151000
     34 H12         7.5100    4.3300    0.6160 ha        1 18A      0.125000
     35 H13         9.6330    4.3990   -0.4590 ha        1 18A      0.124000
     36 H14         8.9360    0.8060   -0.2390 ha        1 18A      0.140000
     37 H15        11.5430   -1.2040   -3.4320 ho        1 18A      0.420000
     38 H16         9.4460   -1.4250   -0.6090 hc        1 18A      0.045533
     39 H17        11.1110   -1.7060   -1.2620 hc        1 18A      0.045533
     40 H18         9.6670   -1.8710   -2.3500 hc        1 18A      0.045533
     41 H19        11.9310    3.4510   -4.5760 hc        1 18A      0.045533
     42 H20        11.4680    1.9010   -5.4060 hc        1 18A      0.045533
     43 H21        12.9430    1.9540   -4.3640 hc        1 18A      0.045533
@<TRIPOS>BOND
     1    1    2 1   
     2    1    8 1   
     3    1   23 1   
     4    1   24 1   
     5    2    4 2   
     6    2   10 1   
     7    3    5 ar  
     8    3   15 1   
     9    3   19 ar  
    10    5   16 ar  
    11    5   25 1   
    12    6    7 ar  
    13    6   10 1   
    14    6   13 ar  
    15    7    9 ar  
    16    7   26 1   
    17    8   27 1   
    18    8   28 1   
    19    8   29 1   
    20    9   11 ar  
    21    9   30 1   
    22   10   31 1   
    23   11   12 ar  
    24   11   14 1   
    25   12   13 ar  
    26   12   32 1   
    27   13   33 1   
    28   14   15 2   
    29   14   34 1   
    30   15   35 1   
    31   16   17 ar  
    32   16   22 1   
    33   17   18 ar  
    34   17   20 1   
    35   18   19 ar  
    36   18   21 1   
    37   19   36 1   
    38   20   37 1   
    39   21   38 1   
    40   21   39 1   
    41   21   40 1   
    42   22   41 1   
    43   22   42 1   
    44   22   43 1   
@<TRIPOS>SUBSTRUCTURE
     1 18A         1 TEMP              0 ****  ****    0 ROOT
