@<TRIPOS>MOLECULE
18A
   43    44     1     0     0
SMALL
bcc


@<TRIPOS>ATOM
      1 C2          1.7340   -1.8590    0.1800 c3        1 18A     -0.158400
      2 C3          2.7670   -0.8330    0.6220 c         1 18A      0.664100
      3 C4          9.6870    2.3820   -1.4150 ca        1 18A     -0.088800
      4 O4          2.7880   -0.4230    1.7960 o         1 18A     -0.588100
      5 C5         10.4670    2.7820   -2.5110 ca        1 18A     -0.088000
      6 C6          4.7050    0.5200   -0.2160 ca        1 18A      0.072600
      7 C7          5.4990    0.8090   -1.3540 ca        1 18A     -0.175000
      8 C1          0.8150   -1.3250   -0.8870 c3        1 18A     -0.095100
      9 C8          6.5410    1.7220   -1.2750 ca        1 18A     -0.091000
     10 N5          3.6680   -0.4160   -0.3480 n         1 18A     -0.471100
     11 C9          6.8300    2.3860   -0.0750 ca        1 18A     -0.089800
     12 C10         6.0400    2.1070    1.0490 ca        1 18A     -0.091000
     13 C11         4.9990    1.1870    0.9930 ca        1 18A     -0.175000
     14 C12         7.8780    3.3870    0.0200 ce        1 18A     -0.102200
     15 C13         9.0800    3.4000   -0.5720 cf        1 18A     -0.103200
     16 C14        11.1050    1.8460   -3.3220 ca        1 18A     -0.129800
     17 C15        10.9660    0.4750   -3.0110 ca        1 18A      0.124100
     18 C16        10.1970    0.0530   -1.9120 ca        1 18A     -0.129800
     19 C17         9.5620    1.0190   -1.1270 ca        1 18A     -0.088000
     20 O18        11.6250   -0.3970   -3.8490 oh        1 18A     -0.498100
     21 C19        10.0570   -1.3840   -1.5830 c3        1 18A     -0.048300
     22 C21        11.9190    2.2590   -4.4860 c3        1 18A     -0.048300
     23 H1          1.1390   -2.1380    1.0910 hc        1 18A      0.074200
     24 H2          2.2580   -2.7830   -0.1800 hc        1 18A      0.074200
     25 H3         10.5750    3.8540   -2.7370 ha        1 18A      0.140000
     26 H4          5.2990    0.3130   -2.3160 ha        1 18A      0.151000
     27 H5         -0.0080   -2.0570   -1.0770 hc        1 18A      0.043700
     28 H6          1.3580   -1.1570   -1.8480 hc        1 18A      0.043700
     29 H7          0.3570   -0.3570   -0.5670 hc        1 18A      0.043700
     30 H8          7.1530    1.9290   -2.1670 ha        1 18A      0.140000
     31 H9          3.5500   -0.7960   -1.2620 hn        1 18A      0.315500
     32 H10         6.2460    2.6220    2.0000 ha        1 18A      0.140000
     33 H11         4.4060    0.9920    1.9020 ha        1 18A      0.151000
     34 H12         7.6110    4.2430    0.6710 ha        1 18A      0.125000
     35 H13         9.7290    4.2830   -0.4150 ha        1 18A      0.124000
     36 H14         8.9480    0.7050   -0.2680 ha        1 18A      0.140000
     37 H15        11.4860   -1.2970   -3.5210 ho        1 18A      0.420000
     38 H16         9.6030   -1.9420   -2.4410 hc        1 18A      0.045533
     39 H17        11.0570   -1.8350   -1.3580 hc        1 18A      0.045533
     40 H18         9.4020   -1.5290   -0.6890 hc        1 18A      0.045533
     41 H19        11.4730    1.8500   -5.4280 hc        1 18A      0.045533
     42 H20        12.9550    1.8470   -4.3940 hc        1 18A      0.045533
     43 H21        11.9770    3.3710   -4.5680 hc        1 18A      0.045533
@<TRIPOS>BOND
     1    1    2 1   
     2    1    8 1   
     3    1   23 1   
     4    1   24 1   
     5    2    4 2   
     6    2   10 1   
     7    3    5 ar  
     8    3   15 1   
     9    3   19 ar  
    10    5   16 ar  
    11    5   25 1   
    12    6    7 ar  
    13    6   10 1   
    14    6   13 ar  
    15    7    9 ar  
    16    7   26 1   
    17    8   27 1   
    18    8   28 1   
    19    8   29 1   
    20    9   11 ar  
    21    9   30 1   
    22   10   31 1   
    23   11   12 ar  
    24   11   14 1   
    25   12   13 ar  
    26   12   32 1   
    27   13   33 1   
    28   14   15 2   
    29   14   34 1   
    30   15   35 1   
    31   16   17 ar  
    32   16   22 1   
    33   17   18 ar  
    34   17   20 1   
    35   18   19 ar  
    36   18   21 1   
    37   19   36 1   
    38   20   37 1   
    39   21   38 1   
    40   21   39 1   
    41   21   40 1   
    42   22   41 1   
    43   22   42 1   
    44   22   43 1   
@<TRIPOS>SUBSTRUCTURE
     1 18A         1 TEMP              0 ****  ****    0 ROOT
