@<TRIPOS>MOLECULE
18A
   43    44     1     0     0
SMALL
bcc


@<TRIPOS>ATOM
      1 C2          7.4470   -0.4310    0.1100 c3        1 18A     -0.152400
      2 C3          6.0620    0.1970    0.0420 c         1 18A      0.664100
      3 C4         -2.9850   -0.2940    0.1360 ca        1 18A     -0.082800
      4 O4          5.9040    1.4280   -0.0230 o         1 18A     -0.584100
      5 C5         -3.8860   -1.3700    0.0760 ca        1 18A     -0.089000
      6 C6          3.6280   -0.4170    0.0070 ca        1 18A      0.075600
      7 C7          2.7150   -1.5000    0.0320 ca        1 18A     -0.173000
      8 C1          8.5220    0.6240    0.0860 c3        1 18A     -0.087100
      9 C8          1.3470   -1.2730   -0.0130 ca        1 18A     -0.092500
     10 N5          5.0010   -0.7020    0.0580 n         1 18A     -0.475100
     11 C9          0.8300    0.0280   -0.0840 ca        1 18A     -0.083800
     12 C10         1.7360    1.0990   -0.1170 ca        1 18A     -0.092500
     13 C11         3.1090    0.8930   -0.0700 ca        1 18A     -0.173000
     14 C12        -0.5940    0.3020   -0.1350 ce        1 18A     -0.102200
     15 C13        -1.5600   -0.5750    0.1880 cf        1 18A     -0.103200
     16 C14        -5.2610   -1.1590    0.0240 ca        1 18A     -0.127300
     17 C15        -5.7440    0.1680    0.0400 ca        1 18A      0.125100
     18 C16        -4.8620    1.2600    0.1100 ca        1 18A     -0.127300
     19 C17        -3.4870    1.0120    0.1570 ca        1 18A     -0.089000
     20 O18        -7.1120    0.3060   -0.0130 oh        1 18A     -0.497100
     21 C19        -5.3690    2.6520    0.1340 c3        1 18A     -0.048300
     22 C21        -6.2140   -2.2890   -0.0460 c3        1 18A     -0.048300
     23 H1          7.5280   -1.0370    1.0510 hc        1 18A      0.062700
     24 H2          7.5770   -1.1270   -0.7610 hc        1 18A      0.062700
     25 H3         -3.4990   -2.4010    0.0660 ha        1 18A      0.134000
     26 H4          3.0800   -2.5370    0.0860 ha        1 18A      0.150500
     27 H5          8.4540    1.2300   -0.8500 hc        1 18A      0.048367
     28 H6          8.4060    1.3200    0.9520 hc        1 18A      0.048367
     29 H7          9.5280    0.1430    0.1370 hc        1 18A      0.048367
     30 H8          0.6630   -2.1360   -0.0010 ha        1 18A      0.133500
     31 H9          5.2330   -1.6690    0.1110 hn        1 18A      0.313500
     32 H10         1.3540    2.1310   -0.1780 ha        1 18A      0.133500
     33 H11         3.7830    1.7650   -0.0940 ha        1 18A      0.150500
     34 H12        -0.8540    1.3240   -0.4650 ha        1 18A      0.125000
     35 H13        -1.3050   -1.5980    0.5150 ha        1 18A      0.124000
     36 H14        -2.7930    1.8650    0.2200 ha        1 18A      0.134000
     37 H15        -7.3240    1.2510    0.0040 ho        1 18A      0.420000
     38 H16        -6.0340    2.8120    1.0200 hc        1 18A      0.045700
     39 H17        -4.5280    3.3850    0.1960 hc        1 18A      0.045700
     40 H18        -5.9550    2.8730   -0.7940 hc        1 18A      0.045700
     41 H19        -6.9170   -2.2510    0.8240 hc        1 18A      0.045700
     42 H20        -6.8260   -2.2140   -0.9810 hc        1 18A      0.045700
     43 H21        -5.6840   -3.2710   -0.0400 hc        1 18A      0.045700
@<TRIPOS>BOND
     1    1    2 1   
     2    1    8 1   
     3    1   23 1   
     4    1   24 1   
     5    2    4 2   
     6    2   10 1   
     7    3    5 ar  
     8    3   15 1   
     9    3   19 ar  
    10    5   16 ar  
    11    5   25 1   
    12    6    7 ar  
    13    6   10 1   
    14    6   13 ar  
    15    7    9 ar  
    16    7   26 1   
    17    8   27 1   
    18    8   28 1   
    19    8   29 1   
    20    9   11 ar  
    21    9   30 1   
    22   10   31 1   
    23   11   12 ar  
    24   11   14 1   
    25   12   13 ar  
    26   12   32 1   
    27   13   33 1   
    28   14   15 2   
    29   14   34 1   
    30   15   35 1   
    31   16   17 ar  
    32   16   22 1   
    33   17   18 ar  
    34   17   20 1   
    35   18   19 ar  
    36   18   21 1   
    37   19   36 1   
    38   20   37 1   
    39   21   38 1   
    40   21   39 1   
    41   21   40 1   
    42   22   41 1   
    43   22   42 1   
    44   22   43 1   
@<TRIPOS>SUBSTRUCTURE
     1 18A         1 TEMP              0 ****  ****    0 ROOT
