@<TRIPOS>MOLECULE
18A
   44    45     1     0     0
SMALL
bcc


@<TRIPOS>ATOM
      1 C2          1.6000   -0.1520   -0.7090 c3        1 18A     -0.141400
      2 C3          2.5820   -1.0270   -1.4270 c         1 18A      0.553100
      3 C4          9.5180    2.0300   -0.7600 ca        1 18A     -0.139800
      4 O4          2.8070   -2.2180   -1.2960 o         1 18A     -0.406100
      5 C5          9.3280    1.6040   -2.0820 ca        1 18A     -0.082000
      6 C6          4.4260    0.5480   -1.9180 ca        1 18A     -0.091400
      7 C7          4.1930    1.9350   -1.8650 ca        1 18A     -0.097000
      8 C1          1.1050   -0.8240    0.5480 c3        1 18A     -0.105100
      9 C8          5.1590    2.7660   -1.3160 ca        1 18A     -0.112500
     10 N5          3.4210   -0.3410   -2.5030 n4        1 18A     -0.547200
     11 C9          6.3710    2.2460   -0.8200 ca        1 18A      0.041200
     12 C10         6.5840    0.8590   -0.8840 ca        1 18A     -0.112500
     13 C11         5.6280    0.0080   -1.4250 ca        1 18A     -0.097000
     14 C12         7.3270    3.1500   -0.2120 ce        1 18A     -0.187200
     15 C13         8.6640    3.0360   -0.1550 cf        1 18A     -0.007200
     16 C14        10.1900    0.6840   -2.6730 ca        1 18A     -0.126800
     17 C15        11.2640    0.1740   -1.9090 ca        1 18A      0.147100
     18 C16        11.4760    0.5920   -0.5800 ca        1 18A     -0.126800
     19 C17        10.6020    1.5290   -0.0260 ca        1 18A     -0.082000
     20 O18        12.0620   -0.7430   -2.5450 oh        1 18A     -0.487100
     21 C19        12.6090    0.0640    0.2130 c3        1 18A     -0.054800
     22 C21        10.0140    0.2470   -4.0750 c3        1 18A     -0.054800
     23 H1          2.0790    0.8350   -0.4590 hc        1 18A      0.100700
     24 H2          0.7380    0.0450   -1.4070 hc        1 18A      0.100700
     25 H3          8.4930    2.0180   -2.6690 ha        1 18A      0.138000
     26 H4          3.2610    2.3750   -2.2560 ha        1 18A      0.153500
     27 H5          0.3300   -0.1760    1.0290 hc        1 18A      0.073367
     28 H6          1.9400   -0.9780    1.2740 hc        1 18A      0.073367
     29 H7          0.6490   -1.8180    0.3180 hc        1 18A      0.073367
     30 H8          4.9770    3.8530   -1.2730 ha        1 18A      0.175500
     31 H9          2.8040    0.2040   -3.1150 hn        1 18A      0.459800
     32 H10         7.5330    0.4390   -0.5030 ha        1 18A      0.175500
     33 H11         5.8250   -1.0760   -1.4580 ha        1 18A      0.153500
     34 H12         6.8590    4.0330    0.2650 ha        1 18A      0.145000
     35 H13         9.2220    3.8090    0.4130 ha        1 18A      0.146000
     36 H14        10.7680    1.8760    1.0070 ha        1 18A      0.138000
     37 H15        12.8040   -0.9690   -1.9630 ho        1 18A      0.432000
     38 H16        12.6100    0.4870    1.2480 hc        1 18A      0.052867
     39 H17        13.5840    0.3310   -0.2690 hc        1 18A      0.052867
     40 H18        12.5470   -1.0510    0.2940 hc        1 18A      0.052867
     41 H19         9.9170   -0.8670   -4.1210 hc        1 18A      0.052867
     42 H20         9.1090    0.7110   -4.5380 hc        1 18A      0.052867
     43 H21        10.9130    0.5330   -4.6780 hc        1 18A      0.052867
     44 H52         3.9020   -1.0580   -3.0640 hn        1 18A      0.459800
@<TRIPOS>BOND
     1    1    2 1   
     2    1    8 1   
     3    1   23 1   
     4    1   24 1   
     5    2    4 2   
     6    2   10 1   
     7    3    5 ar  
     8    3   15 1   
     9    3   19 ar  
    10    5   16 ar  
    11    5   25 1   
    12    6    7 ar  
    13    6   10 1   
    14    6   13 ar  
    15    7    9 ar  
    16    7   26 1   
    17    8   27 1   
    18    8   28 1   
    19    8   29 1   
    20    9   11 ar  
    21    9   30 1   
    22   10   31 1   
    23   10   44 1   
    24   11   12 ar  
    25   11   14 1   
    26   12   13 ar  
    27   12   32 1   
    28   13   33 1   
    29   14   15 2   
    30   14   34 1   
    31   15   35 1   
    32   16   17 ar  
    33   16   22 1   
    34   17   18 ar  
    35   17   20 1   
    36   18   19 ar  
    37   18   21 1   
    38   19   36 1   
    39   20   37 1   
    40   21   38 1   
    41   21   39 1   
    42   21   40 1   
    43   22   41 1   
    44   22   42 1   
    45   22   43 1   
@<TRIPOS>SUBSTRUCTURE
     1 18A         1 TEMP              0 ****  ****    0 ROOT
