@<TRIPOS>MOLECULE
18B
   77    81     1     0     0
SMALL
bcc


@<TRIPOS>ATOM
      1 NA         -0.3790    0.0680    0.2140 na        1 18B     -0.254000
      2 NB         -3.8130    0.0480    0.2460 n         1 18B     -0.376000
      3 OB         -5.3990   -1.3620   -0.7670 o         1 18B     -0.411000
      4 NC         -1.9640    2.6110   -3.6200 n         1 18B     -0.363000
      5 ND          0.2990    0.6460   -2.7950 n2        1 18B     -0.312000
      6 C1A         0.9730   -0.1270    0.1470 c2        1 18B      0.198000
      7 O1A         5.1080   -0.3390   -0.3420 o         1 18B     -0.600500
      8 C1B        -3.3910    0.3450    1.6410 c3        1 18B      0.131000
      9 C1C        -2.3700    3.8940   -3.9790 c2        1 18B      0.324000
     10 C1D         0.4850    0.7820   -4.2000 c2        1 18B     -0.109000
     11 C2A         1.4610   -0.4290    1.5190 c2        1 18B     -0.175000
     12 O2A         6.1650   -0.2860    1.6150 o         1 18B     -0.600500
     13 C2B        -4.4290   -0.4220    2.4860 c2        1 18B     -0.019000
     14 C2C        -2.5700    3.9080   -5.4780 c2        1 18B     -0.174000
     15 C2D         1.7870    0.4590   -4.6010 c2        1 18B     -0.046000
     16 C3A         0.3820   -0.3590    2.3690 c2        1 18B     -0.003000
     17 C3B        -5.2900   -1.0850    1.6770 c2        1 18B     -0.222000
     18 C3C        -2.2130    2.6990   -5.9710 c2        1 18B     -0.081000
     19 C3D         2.5580    0.0650   -3.3650 c3        1 18B     -0.110000
     20 C4A        -0.8400   -0.0460    1.5890 c2        1 18B     -0.037000
     21 C4B        -4.8720   -0.8620    0.2460 c2        1 18B      0.320000
     22 C4C        -1.7770    1.7810   -4.8140 c3        1 18B      0.016000
     23 C4D         1.4690    0.2290   -2.2740 c2        1 18B      0.083000
     24 CAA         2.8630   -0.7790    1.8060 c3        1 18B     -0.079000
     25 CAB        -6.4290   -1.9520    2.0160 c3        1 18B     -0.083000
     26 CBA         3.8400    0.3630    1.5880 c3        1 18B     -0.217000
     27 CBB        -7.7430   -1.3890    1.5270 c3        1 18B     -0.207000
     28 CBC        -1.9090    3.0610   -8.4420 c1        1 18B     -0.084000
     29 CGA         5.1270   -0.1260    0.9100 c2        1 18B      0.329000
     30 CGD         4.6850    3.2680   -3.2390 cu        1 18B      0.285000
     31 CHA         1.8130   -0.0910   -0.9600 c2        1 18B     -0.388000
     32 CHB        -2.0540    0.0640    2.0830 c1        1 18B     -0.475000
     33 CMA         0.3460   -0.5670    3.8180 c3        1 18B     -0.157000
     34 CMB        -4.3460   -0.3510    3.9450 c3        1 18B     -0.176000
     35 CMD         2.3650    0.5320   -5.9370 c3        1 18B     -0.177000
     36 HNA        -0.9410    0.3590   -0.5420 hn        1 18B      0.238000
     37 HNB        -3.1360    0.0230   -0.4750 hn        1 18B      0.222000
     38 HNC        -1.4950    2.4030   -2.7720 hn        1 18B      0.270000
     39 HAA         2.9410   -1.1410    2.8670 hc        1 18B      0.077000
     40 HAAA        3.1560   -1.6380    1.1390 hc        1 18B      0.077000
     41 HAB        -8.5750   -2.1000    1.7480 hc        1 18B      0.069000
     42 HABA       -7.6940   -1.2210    0.4220 hc        1 18B      0.069000
     43 HAC        -3.0990    1.5710   -7.5520 hc        1 18B      0.176500
     44 HAD         4.2740    0.4940   -2.1160 hc        1 18B      0.149500
     45 HADA        2.8250   -1.0270   -3.4260 hc        1 18B      0.138000
     46 HBA         4.0960    0.8360    2.5690 hc        1 18B      0.068000
     47 HBAA        3.3790    1.1480    0.9360 hc        1 18B      0.068000
     48 HBB        -7.9660   -0.4150    2.0240 hc        1 18B      0.069000
     49 HBBA       -6.2660   -2.9600    1.5410 hc        1 18B      0.073500
     50 HBBB       -6.4750   -2.1070    3.1280 hc        1 18B      0.073500
     51 HBC        -1.5480    4.0720   -8.1930 ha        1 18B      0.039000
     52 HBCA       -1.3020    1.4130   -7.3860 hc        1 18B      0.176500
     53 HBD         4.5680    0.6160   -3.9200 hc        1 18B      0.149500
     54 HBDA        2.7070    2.6280   -2.4450 h1        1 18B      0.170000
     55 HHA         2.8800   -0.3380   -0.7670 ha        1 18B      0.198000
     56 HHB        -3.5760    1.4550    1.8010 h1        1 18B      0.105000
     57 HHD        -2.5070    0.9060   -4.7540 h1        1 18B      0.146000
     58 HMA         0.7470   -1.5790    4.0800 hc        1 18B      0.077333
     59 HMAA        0.9780    0.1980    4.3360 hc        1 18B      0.077333
     60 HMAB       -0.7070   -0.4830    4.1890 hc        1 18B      0.077333
     61 HMB        -4.7610    0.6230    4.3080 hc        1 18B      0.088333
     62 HMBA       -4.9100   -1.1830    4.4330 hc        1 18B      0.088333
     63 HMBB       -3.2610   -0.4040    4.2380 hc        1 18B      0.088333
     64 HMC        -3.7310    5.6890   -5.4850 hc        1 18B      0.081000
     65 HMCA       -3.6020    4.8480   -7.0990 hc        1 18B      0.081000
     66 HMCB       -2.1890    5.7710   -6.4330 hc        1 18B      0.081000
     67 HMD         3.0300    1.4360   -6.0070 hc        1 18B      0.090667
     68 HMDA        2.9880   -0.3730   -6.1480 hc        1 18B      0.090667
     69 HMDB        1.5610    0.6190   -6.7110 hc        1 18B      0.090667
     70 CAD         3.8290    0.8430   -3.1060 c3        1 18B     -0.164000
     71 CAC        -2.1660    2.1710   -7.3420 c3        1 18B     -0.213000
     72 OC         -2.5700    4.8430   -3.2010 o         1 18B     -0.376000
     73 CBD         3.6080    2.3170   -3.0160 cx        1 18B      0.019000
     74 CHD        -0.4940    1.1520   -5.1370 c1        1 18B     -0.106000
     75 CMC        -3.0510    5.1100   -6.1610 c3        1 18B     -0.153000
     76 O1D         5.6540    3.9870   -3.1400 o         1 18B     -0.266000
     77 O2D         3.8050    3.0970   -4.2800 os        1 18B     -0.321000
@<TRIPOS>BOND
     1    1    6 1   
     2    1   20 1   
     3    1   36 1   
     4    2    8 1   
     5    2   21 1   
     6    2   37 1   
     7    3   21 1   
     8    4    9 1   
     9    4   22 1   
    10    4   38 1   
    11    5   10 1   
    12    5   23 1   
    13    6   11 1   
    14    6   31 1   
    15    7   29 1   
    16    8   13 1   
    17    8   32 1   
    18    8   56 1   
    19    9   14 1   
    20    9   72 1   
    21   10   15 1   
    22   10   74 1   
    23   11   16 1   
    24   11   24 1   
    25   12   29 1   
    26   13   17 1   
    27   13   34 1   
    28   14   18 1   
    29   14   75 1   
    30   15   19 1   
    31   15   35 1   
    32   16   20 1   
    33   16   33 1   
    34   17   21 1   
    35   17   25 1   
    36   18   22 1   
    37   18   71 1   
    38   19   23 1   
    39   19   45 1   
    40   19   70 1   
    41   20   32 1   
    42   22   57 1   
    43   22   74 1   
    44   23   31 1   
    45   24   26 1   
    46   24   39 1   
    47   24   40 1   
    48   25   27 1   
    49   25   49 1   
    50   25   50 1   
    51   26   29 1   
    52   26   46 1   
    53   26   47 1   
    54   27   41 1   
    55   27   42 1   
    56   27   48 1   
    57   28   51 1   
    58   28   71 1   
    59   30   73 1   
    60   30   76 1   
    61   30   77 1   
    62   31   55 1   
    63   33   58 1   
    64   33   59 1   
    65   33   60 1   
    66   34   61 1   
    67   34   62 1   
    68   34   63 1   
    69   35   67 1   
    70   35   68 1   
    71   35   69 1   
    72   43   71 1   
    73   44   70 1   
    74   52   71 1   
    75   53   70 1   
    76   54   73 1   
    77   64   75 1   
    78   65   75 1   
    79   66   75 1   
    80   70   73 1   
    81   73   77 1   
@<TRIPOS>SUBSTRUCTURE
     1 18B         1 TEMP              0 ****  ****    0 ROOT
