@<TRIPOS>MOLECULE
18B
   77    80     1     0     0
SMALL
bcc


@<TRIPOS>ATOM
      1 NA         -0.2920    1.5190   -0.3330 na        1 18B     -0.149100
      2 NB          2.6310    1.7460   -1.4790 n         1 18B     -0.473100
      3 OB          4.4120    0.7950   -2.6840 o         1 18B     -0.628500
      4 NC          2.3080   -1.7600    1.3570 n         1 18B     -0.476100
      5 ND         -0.4140   -1.4190   -0.0080 nc        1 18B     -0.625300
      6 C1A        -1.6820    1.3530   -0.3190 cc        1 18B     -0.111100
      7 O1A        -5.8130    5.3790    1.4830 o         1 18B     -0.853800
      8 C1B         2.4530    2.9540   -0.7500 cc        1 18B     -0.029400
      9 C1C         3.5830   -1.7160    1.9370 c         1 18B      0.693700
     10 C1D        -0.2730   -2.7440   -0.0270 cd        1 18B      0.464900
     11 C2A        -2.2840    2.6480   -0.2760 cd        1 18B     -0.059300
     12 O2A        -4.5540    5.7110   -0.3250 o         1 18B     -0.853800
     13 C2B         3.7940    3.5960   -0.6380 cc        1 18B     -0.024200
     14 C2C         4.2010   -3.0790    1.7310 cd        1 18B     -0.168400
     15 C2D        -1.5530   -3.4340   -0.3460 cd        1 18B     -0.247800
     16 C3A        -1.2220    3.6030   -0.2300 cd        1 18B     -0.094300
     17 C3B         4.7010    2.8380   -1.3210 cd        1 18B     -0.199400
     18 C3C         3.2980   -3.8580    1.0620 cc        1 18B     -0.022000
     19 C3D        -2.5020   -2.4470   -0.4910 cc        1 18B     -0.032200
     20 C4A         0.0030    2.8780   -0.2570 cc        1 18B     -0.127100
     21 C4B         3.9660    1.6730   -1.9320 c         1 18B      0.691700
     22 C4C         2.0630   -3.0420    0.8130 cc        1 18B      0.044600
     23 C4D        -1.7910   -1.1450   -0.2950 cc        1 18B      0.030600
     24 CAA        -3.7180    2.9850   -0.3030 c3        1 18B     -0.022100
     25 CAB         6.1450    3.0240   -1.5160 c3        1 18B     -0.015200
     26 CBA        -4.1910    3.6860    0.9580 c3        1 18B     -0.192400
     27 CBB         6.9400    2.7200   -0.2670 c3        1 18B     -0.088100
     28 CBC         4.2790   -6.1150    1.0930 c2        1 18B     -0.211000
     29 CGA        -4.9110    5.0170    0.6750 c         1 18B      0.904600
     30 CGD        -5.3550   -4.7020   -0.4530 c         1 18B      0.904600
     31 CHA        -2.3510    0.0890   -0.3900 cf        1 18B      0.039800
     32 CHB         1.3130    3.4540   -0.2220 ce        1 18B     -0.050200
     33 CMA        -1.3540    5.0600   -0.1890 c3        1 18B     -0.063800
     34 CMB         4.0130    4.8320    0.1180 c3        1 18B     -0.053900
     35 CMD        -1.7130   -4.8810   -0.4800 c3        1 18B     -0.059900
     36 HNA         0.3650    0.7880   -0.2200 hn        1 18B      0.314700
     37 HNB         1.8820    1.2970   -1.9440 hn        1 18B      0.336500
     38 HNC         1.6620   -1.0120    1.3280 hn        1 18B      0.364500
     39 HAA        -3.8980    3.6770   -1.1780 hc        1 18B      0.057700
     40 HAAA       -4.3290    2.0600   -0.4730 hc        1 18B      0.057700
     41 HAB         6.4890    2.3500   -2.3490 hc        1 18B      0.049200
     42 HABA        6.3450    4.0840   -1.8350 hc        1 18B      0.049200
     43 HAC         2.7310   -5.4990   -0.2160 ha        1 18B      0.138000
     44 HAD        -4.4220   -1.6240   -0.9410 hc        1 18B      0.059200
     45 HADA       -3.9790   -3.1420   -1.8340 hc        1 18B      0.059200
     46 HBA        -4.8820    3.0180    1.5300 hc        1 18B      0.033200
     47 HBAA       -3.3220    3.9250    1.6230 hc        1 18B      0.033200
     48 HBB         8.0290    2.8690   -0.4620 hc        1 18B      0.034367
     49 HBBA        6.6310    3.3940    0.5690 hc        1 18B      0.034367
     50 HBBB        6.7760    1.6640    0.0560 hc        1 18B      0.034367
     51 HBC         4.3280   -7.1390    0.7000 ha        1 18B      0.111000
     52 HBCA        4.9720   -5.8960    1.9150 ha        1 18B      0.111000
     53 HBD        -3.9950   -3.8460    0.9730 hc        1 18B      0.034200
     54 HBDA       -5.4710   -2.8480    0.6740 hc        1 18B      0.034200
     55 HHA        -3.4450    0.1580   -0.5480 ha        1 18B      0.161000
     56 HHB         1.3550    4.4410    0.2750 ha        1 18B      0.148000
     57 HHD         0.8900   -4.5430   -0.1180 ha        1 18B      0.149000
     58 HMA        -0.9350    5.4630    0.7670 hc        1 18B      0.059700
     59 HMAA       -0.7980    5.5300   -1.0380 hc        1 18B      0.059700
     60 HMAB       -2.4410    5.3600   -0.2580 hc        1 18B      0.059700
     61 HMB         3.3520    5.6490   -0.2700 hc        1 18B      0.051367
     62 HMBA        3.7690    4.6700    1.1990 hc        1 18B      0.051367
     63 HMBB        5.0780    5.1640    0.0390 hc        1 18B      0.051367
     64 HMC         6.0970   -2.4130    2.4230 hc        1 18B      0.048033
     65 HMCA        5.5150   -3.9700    3.1500 hc        1 18B      0.048033
     66 HMCB        6.1280   -3.9490    1.4420 hc        1 18B      0.048033
     67 HMD        -0.9900   -5.2910   -1.2290 hc        1 18B      0.055700
     68 HMDA       -1.5270   -5.3900    0.5000 hc        1 18B      0.055700
     69 HMDB       -2.7610   -5.1280   -0.8190 hc        1 18B      0.055700
     70 CAD        -3.9230   -2.6230   -0.8310 c3        1 18B     -0.032200
     71 CAC         3.4190   -5.2170    0.6040 ce        1 18B     -0.107000
     72 OC          4.0800   -0.7340    2.5070 o         1 18B     -0.627500
     73 CBD        -4.6840   -3.4680    0.1760 c3        1 18B     -0.191400
     74 CHD         0.9380   -3.4910    0.2150 cf        1 18B     -0.190600
     75 CMC         5.5530   -3.3670    2.2060 c3        1 18B     -0.037900
     76 O1D        -4.8270   -5.2410   -1.4720 o         1 18B     -0.853300
     77 O2D        -6.3990   -5.1470    0.1040 o         1 18B     -0.853300
@<TRIPOS>BOND
     1    1    6 1   
     2    1   20 1   
     3    1   36 1   
     4    2    8 1   
     5    2   21 1   
     6    2   37 1   
     7    3   21 2   
     8    4    9 1   
     9    4   22 1   
    10    4   38 1   
    11    5   10 2   
    12    5   23 1   
    13    6   11 2   
    14    6   31 1   
    15    7   29 1   
    16    8   13 1   
    17    8   32 2   
    18    9   14 1   
    19    9   72 2   
    20   10   15 1   
    21   10   74 1   
    22   11   16 1   
    23   11   24 1   
    24   12   29 1   
    25   13   17 2   
    26   13   34 1   
    27   14   18 2   
    28   14   75 1   
    29   15   19 2   
    30   15   35 1   
    31   16   20 2   
    32   16   33 1   
    33   17   21 1   
    34   17   25 1   
    35   18   22 1   
    36   18   71 1   
    37   19   23 1   
    38   19   70 1   
    39   20   32 1   
    40   22   74 2   
    41   23   31 2   
    42   24   26 1   
    43   24   39 1   
    44   24   40 1   
    45   25   27 1   
    46   25   41 1   
    47   25   42 1   
    48   26   29 1   
    49   26   46 1   
    50   26   47 1   
    51   27   48 1   
    52   27   49 1   
    53   27   50 1   
    54   28   51 1   
    55   28   52 1   
    56   28   71 2   
    57   30   73 1   
    58   30   76 1   
    59   30   77 1   
    60   31   55 1   
    61   32   56 1   
    62   33   58 1   
    63   33   59 1   
    64   33   60 1   
    65   34   61 1   
    66   34   62 1   
    67   34   63 1   
    68   35   67 1   
    69   35   68 1   
    70   35   69 1   
    71   43   71 1   
    72   44   70 1   
    73   45   70 1   
    74   53   73 1   
    75   54   73 1   
    76   57   74 1   
    77   64   75 1   
    78   65   75 1   
    79   66   75 1   
    80   70   73 1   
@<TRIPOS>SUBSTRUCTURE
     1 18B         1 TEMP              0 ****  ****    0 ROOT
