@<TRIPOS>MOLECULE
18B
   77    69     1     0     0
SMALL
bcc


@<TRIPOS>ATOM
      1 NA         -1.1050   -0.8940    0.7560 n2        1 18B     -0.146000
      2 NB         -3.4890   -3.2090    3.0670 n3        1 18B     -0.321000
      3 OB         -4.9340   -4.8670    4.2290 o         1 18B     -0.356000
      4 NC          3.2040    2.8380   -3.2010 n         1 18B     -0.317000
      5 OC          5.2330    4.2570   -3.4260 o         1 18B     -0.345000
      6 ND          0.4110    0.5800   -2.0130 n1        1 18B     -0.178000
      7 C1A         0.2520   -0.7600    0.7360 c1        1 18B     -0.080000
      8 O1A         4.9990   -0.7490    3.8120 o         1 18B     -0.587500
      9 C1B        -3.6680   -1.6590    3.0960 c2        1 18B      0.007000
     10 C1C         4.0240    4.1690   -3.3520 c2        1 18B      0.329000
     11 C1D         0.8070    0.9410   -3.3500 c1        1 18B     -0.011000
     12 O1D         4.6770   -3.9890   -4.6400 o         1 18B     -0.587000
     13 C2A         0.7150   -0.9180    2.0240 c1        1 18B     -0.079000
     14 O2A         3.5390   -1.1650    5.3780 o         1 18B     -0.587500
     15 C2B        -4.9530   -1.4580    3.6980 c2        1 18B     -0.035000
     16 C2C         3.0680    5.0960   -3.9120 c2        1 18B     -0.145000
     17 C2D         1.9220    0.1440   -3.7480 c1        1 18B     -0.170000
     18 O2D         5.3230   -4.1440   -2.5630 o         1 18B     -0.587000
     19 C3A        -0.3550   -1.1460    2.8280 c1        1 18B     -0.079000
     20 C3B        -5.5660   -2.5880    4.0310 c1        1 18B     -0.169000
     21 C3C         1.8670    4.5660   -4.1110 c1        1 18B     -0.020000
     22 C3D         2.2700   -0.7470   -2.6820 c1        1 18B     -0.020000
     23 C4A        -1.4870   -1.1320    2.0430 c1        1 18B     -0.080000
     24 C4B        -4.8040   -3.7750    3.7120 c1        1 18B      0.333000
     25 C4C         1.7790    3.1890   -3.7290 c1        1 18B      0.024000
     26 C4D         1.3140   -0.5240   -1.4890 c1        1 18B     -0.125000
     27 CAA         1.9600   -1.4130    2.7230 c2        1 18B     -0.105000
     28 CAB        -7.0790   -2.6470    4.0690 c3        1 18B     -0.093000
     29 CAC         0.6390    5.4420   -4.0690 c2        1 18B     -0.108000
     30 CAD         2.7780   -2.1350   -2.9940 c3        1 18B     -0.118000
     31 CBA         2.7000   -0.2410    3.3220 c3        1 18B     -0.221000
     32 CBB        -7.5350   -2.9920    5.4710 c3        1 18B     -0.211000
     33 CBC         0.1520    5.9720   -5.2060 c1        1 18B     -0.211000
     34 CBD         4.2730   -2.0860   -3.2270 c3        1 18B     -0.220000
     35 CGA         3.8080   -0.7500    4.2200 c2        1 18B      0.325000
     36 CGD         4.7890   -3.4840   -3.4920 c2        1 18B      0.324000
     37 CHA         1.2890   -1.1450   -0.2940 c1        1 18B      0.040000
     38 CHB        -2.8080   -0.7200    2.6540 c1        1 18B     -0.083000
     39 CHD         0.7040    2.3780   -3.8070 c2        1 18B     -0.086000
     40 CMA        -0.4980   -1.1120    4.3350 c2        1 18B     -0.192000
     41 CMB        -5.7660   -0.2290    3.3540 c3        1 18B     -0.174000
     42 CMC         3.2060    6.5780   -3.6420 c3        1 18B     -0.161000
     43 CMD         2.0540   -0.3070   -5.1840 c3        1 18B     -0.183000
     44 HNA        -1.6610   -0.8290    0.0360 DU        1 18B      0.187500
     45 HNB        -2.7780   -3.6810    2.7460 hn        1 18B      0.272000
     46 HNC         3.4960    2.0380   -2.8770 hn        1 18B      0.274000
     47 HAA         2.5370   -1.8670    2.0780 ha        1 18B      0.094500
     48 HAAA        1.7090   -2.0370    3.4320 ha        1 18B      0.094500
     49 HAB        -7.3940   -3.3300    3.4450 hc        1 18B      0.082000
     50 HABA       -7.4450   -1.7770    3.8120 hc        1 18B      0.082000
     51 HAC         0.2130    5.6440   -3.2150 ha        1 18B      0.134000
     52 HAD         2.5850   -2.7300   -2.2410 hc        1 18B      0.102000
     53 HADA        2.3330   -2.4720   -3.7980 hc        1 18B      0.102000
     54 HBA         2.0790    0.3030    3.8470 hc        1 18B      0.072000
     55 HBAA        3.0850    0.3030    2.6060 hc        1 18B      0.072000
     56 HBB        -8.4630   -3.3070    5.4440 hc        1 18B      0.078000
     57 HBBA       -6.9610   -3.6980    5.8370 hc        1 18B      0.078000
     58 HBBB       -7.4760   -2.1960    6.0390 hc        1 18B      0.078000
     59 HBC        -0.6440    6.5400   -5.1790 DU        1 18B      0.187500
     60 HBCA        0.5950    5.7920   -6.0590 ha        1 18B      0.114000
     61 HBD         4.4640   -1.5160   -3.9990 hc        1 18B      0.072000
     62 HBDA        4.7140   -1.7200   -2.4340 hc        1 18B      0.072000
     63 HHA         1.9400   -1.8440   -0.0940 ha        1 18B      0.162000
     64 HHB        -3.0370    0.2250    2.7290 ha        1 18B      0.131000
     65 HHD        -0.1400    2.7180   -4.1590 ha        1 18B      0.143000
     66 HMA        -1.2810   -1.6390    4.6010 ha        1 18B      0.101333
     67 HMAA       -0.6120   -0.1850    4.6310 ha        1 18B      0.101333
     68 HMAB        0.3060   -1.4910    4.7480 ha        1 18B      0.101333
     69 HMB        -5.1740    0.5490    3.2950 hc        1 18B      0.089667
     70 HMBA       -6.4390   -0.0760    4.0500 hc        1 18B      0.089667
     71 HMBB       -6.2140   -0.3650    2.4910 hc        1 18B      0.089667
     72 HMC         3.0030    7.0800   -4.4610 hc        1 18B      0.088000
     73 HMCA        2.5810    6.8410   -2.9350 hc        1 18B      0.088000
     74 HMCB        4.1220    6.7750   -3.3570 hc        1 18B      0.088000
     75 HMD         1.6710    0.3730   -5.7770 hc        1 18B      0.096333
     76 HMDA        1.5760   -1.1540   -5.3060 hc        1 18B      0.096333
     77 HMDB        3.0010   -0.4330   -5.4010 hc        1 18B      0.096333
@<TRIPOS>BOND
     1    1    7 1   
     2    1   23 1   
     3    2    9 1   
     4    2   24 1   
     5    2   45 1   
     6    3   24 1   
     7    4   10 1   
     8    4   25 1   
     9    4   46 1   
    10    5   10 1   
    11    6   11 1   
    12    7   13 1   
    13    8   35 1   
    14    9   15 1   
    15    9   38 1   
    16   10   16 1   
    17   11   39 1   
    18   12   36 1   
    19   13   19 1   
    20   14   35 1   
    21   15   20 1   
    22   15   41 1   
    23   16   21 1   
    24   16   42 1   
    25   17   22 1   
    26   17   43 1   
    27   18   36 1   
    28   19   23 1   
    29   20   28 1   
    30   21   29 1   
    31   22   30 1   
    32   25   39 1   
    33   26   37 1   
    34   27   31 1   
    35   27   47 1   
    36   27   48 1   
    37   28   32 1   
    38   28   49 1   
    39   28   50 1   
    40   29   33 1   
    41   29   51 1   
    42   30   34 1   
    43   30   52 1   
    44   30   53 1   
    45   31   35 1   
    46   31   54 1   
    47   31   55 1   
    48   32   56 1   
    49   32   57 1   
    50   32   58 1   
    51   33   60 1   
    52   34   36 1   
    53   34   61 1   
    54   34   62 1   
    55   37   63 1   
    56   38   64 1   
    57   39   65 1   
    58   40   66 1   
    59   40   67 1   
    60   40   68 1   
    61   41   69 1   
    62   41   70 1   
    63   41   71 1   
    64   42   72 1   
    65   42   73 1   
    66   42   74 1   
    67   43   75 1   
    68   43   76 1   
    69   43   77 1   
@<TRIPOS>SUBSTRUCTURE
     1 18B         1 TEMP              0 ****  ****    0 ROOT
