@<TRIPOS>MOLECULE
18B
   77   109     1     0     0
SMALL
bcc


@<TRIPOS>ATOM
      1 NA          0.0000    0.0000    0.0000 n7        1 18B      0.012000
      2 NB         -2.6020   -0.8630   -0.4390 ns        1 18B      0.079000
      3 OB         -4.0270   -1.5270   -2.0940 o         1 18B     -0.380000
      4 NC         -2.0220    2.0370   -2.4110 n7        1 18B     -0.199000
      5 ND          0.4350    0.8000   -2.6140 n2        1 18B     -0.155000
      6 C1A         1.3780    0.0000    0.0000 DU        1 18B     -0.291000
      7 O1A         5.7940    2.6020    2.6470 o         1 18B     -0.613000
      8 C1B        -2.7800   -0.3510    0.8400 c3        1 18B     -0.312000
      9 C1C        -3.2340    2.4710   -2.0300 c3        1 18B      0.208000
     10 C1D         0.2770    1.0150   -3.9170 c2        1 18B     -0.162000
     11 C2A         1.8080    0.0000    1.3310 c3        1 18B     -0.150000
     12 O2A         5.7290    0.3930    2.6260 o         1 18B     -0.613000
     13 C2B        -4.1740   -0.2590    1.0740 DU        1 18B     -0.020000
     14 C2C        -4.0530    2.6630   -3.1530 DU        1 18B     -0.448000
     15 C2D         1.4820    0.6730   -4.5790 c3        1 18B      0.541000
     16 C3A         0.6830    0.0010    2.1330 DU        1 18B     -0.175000
     17 C3B        -4.8050   -0.7050   -0.0400 c3        1 18B     -0.014000
     18 C3C        -3.3180    2.3350   -4.2800 c2        1 18B     -0.269000
     19 C3D         2.3510    0.2510   -3.6250 DU        1 18B     -0.253000
     20 C4A        -0.4330    0.0010    1.2980 c2        1 18B     -0.246000
     21 C4B        -3.8150   -1.0800   -0.9810 c2        1 18B      0.207000
     22 C4C        -1.9910    1.9270   -3.7960 c3        1 18B      0.050000
     23 C4D         1.6700    0.3390   -2.3830 c2        1 18B     -0.054000
     24 CAA         3.2390   -0.0010    1.8040 DU        1 18B      0.061000
     25 CAB        -6.2950   -0.7870   -0.2430 DU        1 18B      0.093000
     26 CBA         3.7240    1.4410    1.9630 c3        1 18B     -0.351000
     27 CBB        -6.7990    0.5210   -0.8570 DU        1 18B     -0.056000
     28 CBC        -4.2690    3.5150   -6.1770 c2        1 18B      0.197000
     29 CGA         5.1550    1.4400    2.4370 c2        1 18B      0.491000
     30 CGD         6.1460    0.4770   -3.8500 c2        1 18B      0.365000
     31 CHA         2.2000   -0.0020   -1.1300 c2        1 18B     -0.492000
     32 CHB        -1.7820    0.0020    1.7210 c2        1 18B     -0.142000
     33 CMA         0.6670    0.0020    3.6400 c3        1 18B      0.128000
     34 CMB        -4.8370    0.2440    2.3320 c3        1 18B      0.253000
     35 CMD         1.7470    0.7610   -6.0600 c3        1 18B      0.428000
     36 HNA         0.6500   -0.1790   -0.7400 DU        1 18B      0.367000
     37 HNB        -2.7170   -0.2360   -1.2110 hn        1 18B      0.100000
     38 HNC        -2.6390    2.4380   -1.7330 DU        1 18B      0.375000
     39 HAA         3.6130   -0.1390    0.7970 ha        1 18B      0.003000
     40 HAAA        2.6390    0.2070    0.9270 DU        1 18B      0.078000
     41 HAB        -5.7190   -0.0030   -0.7190 DU        1 18B     -0.265000
     42 HABA       -5.2890   -0.5950   -0.5960 DU        1 18B     -0.013000
     43 HAC        -2.7230    2.1780   -5.5170 hc        1 18B      0.324000
     44 HAD         2.8790   -0.1750   -3.2250 DU        1 18B      0.355500
     45 HADA        2.8220   -0.3640   -3.3330 DU        1 18B      0.355500
     46 HBA         2.8610    1.5080    1.3120 hc        1 18B      0.059000
     47 HBAA        3.7940    0.4570    1.5160 DU        1 18B      0.075000
     48 HBB        -5.7840    0.4170   -0.4930 DU        1 18B     -0.014000
     49 HBBA       -6.6610   -0.5530   -0.8840 DU        1 18B      0.061000
     50 HBBB       -6.7910   -0.2190   -0.0650 DU        1 18B      0.061000
     51 HBC        -3.2150    3.7390   -6.0690 ha        1 18B     -0.183000
     52 HBCA       -3.4360    2.9000   -5.8590 DU        1 18B     -0.032000
     53 HBD         4.2940    0.1410   -4.2060 DU        1 18B      0.202000
     54 HBDA        4.4920    1.1720   -2.5970 hc        1 18B      0.114000
     55 HHA         2.4230    0.4810   -0.1870 DU        1 18B      0.294000
     56 HHB        -2.7340    0.2860    1.2910 DU        1 18B      0.265000
     57 HHD        -1.9040    1.3530   -4.1000 DU        1 18B      0.117000
     58 HMA        -0.2950    0.0660    3.1450 DU        1 18B     -0.134000
     59 HMAA        0.2360    0.3630    2.7140 DU        1 18B     -0.147000
     60 HMAB        0.1170    0.2890    2.7520 DU        1 18B      0.502000
     61 HMB        -3.8500    0.2000    1.8870 DU        1 18B     -0.058667
     62 HMBA       -3.8760    0.0730    1.8610 DU        1 18B     -0.058667
     63 HMBB       -3.8410    0.1680    1.9130 DU        1 18B     -0.058667
     64 HMC        -4.9720    2.7350   -2.2710 DU        1 18B      0.238000
     65 HMCA       -4.5960    2.7960   -3.6550 DU        1 18B      0.238000
     66 HMCB       -4.8900    2.7480   -2.3180 DU        1 18B      0.238000
     67 HMD         1.6970    0.8230   -4.9800 DU        1 18B     -0.461000
     68 HMDA        1.7190    0.6010   -4.9890 DU        1 18B     -0.461000
     69 HMDB        1.1260    0.7960   -5.1730 DU        1 18B      0.074000
     70 CAD         3.7670   -0.2200   -3.8440 DU        1 18B     -0.476000
     71 CAC        -3.7730    2.3860   -5.6800 c3        1 18B     -0.260000
     72 OC         -3.5750    2.6680   -0.8740 oh        1 18B     -0.443000
     73 CBD         4.7310    0.9480   -3.6300 c3        1 18B      0.064000
     74 CHD        -0.9360    1.5190   -4.5580 c2        1 18B     -0.103000
     75 CMC        -5.4820    3.1420   -3.1360 c3        1 18B     -0.171000
     76 O1D         6.3610   -0.6750   -4.1450 o         1 18B     -0.469500
     77 O2D         7.1670    1.3370   -3.7150 o         1 18B     -0.469500
@<TRIPOS>BOND
     1    1    6 1   
     2    1   20 1   
     3    1   36 1   
     4    2    8 1   
     5    2   21 1   
     6    2   37 1   
     7    3   21 1   
     8    4    9 1   
     9    4   22 1   
    10    4   38 1   
    11    5   10 1   
    12    5   23 1   
    13    6   11 1   
    14    6   31 1   
    15    6   36 1   
    16    6   55 1   
    17    7   29 1   
    18    8   13 1   
    19    8   32 1   
    20    8   56 1   
    21    9   14 1   
    22    9   38 1   
    23    9   72 1   
    24   10   15 1   
    25   10   74 1   
    26   11   16 1   
    27   11   24 1   
    28   11   40 1   
    29   12   29 1   
    30   13   17 1   
    31   13   34 1   
    32   13   61 1   
    33   13   62 1   
    34   13   63 1   
    35   14   18 1   
    36   14   64 1   
    37   14   65 1   
    38   14   66 1   
    39   14   75 1   
    40   15   19 1   
    41   15   35 1   
    42   15   69 1   
    43   16   20 1   
    44   16   33 1   
    45   16   59 1   
    46   16   60 1   
    47   17   21 1   
    48   17   25 1   
    49   17   42 1   
    50   18   22 1   
    51   18   71 1   
    52   19   23 1   
    53   19   44 1   
    54   19   45 1   
    55   19   70 1   
    56   20   32 1   
    57   22   57 1   
    58   22   74 1   
    59   23   31 1   
    60   24   26 1   
    61   24   39 1   
    62   24   40 1   
    63   24   47 1   
    64   25   27 1   
    65   25   41 1   
    66   25   42 1   
    67   25   49 1   
    68   25   50 1   
    69   26   29 1   
    70   26   46 1   
    71   26   47 1   
    72   27   41 1   
    73   27   48 1   
    74   27   49 1   
    75   27   50 1   
    76   28   51 1   
    77   28   52 1   
    78   28   71 1   
    79   30   73 1   
    80   30   76 1   
    81   30   77 1   
    82   31   55 1   
    83   32   56 1   
    84   33   58 1   
    85   33   59 1   
    86   33   60 1   
    87   34   61 1   
    88   34   62 1   
    89   34   63 1   
    90   35   67 1   
    91   35   68 1   
    92   35   69 1   
    93   38   72 1   
    94   41   48 1   
    95   43   71 1   
    96   44   70 1   
    97   45   70 1   
    98   52   71 1   
    99   53   70 1   
   100   53   73 1   
   101   54   73 1   
   102   57   74 1   
   103   58   60 1   
   104   64   75 1   
   105   65   75 1   
   106   66   75 1   
   107   67   69 1   
   108   68   69 1   
   109   70   73 1   
@<TRIPOS>SUBSTRUCTURE
     1 18B         1 TEMP              0 ****  ****    0 ROOT
