@<TRIPOS>MOLECULE
18C
  112   111     1     0     0
SMALL
bcc


@<TRIPOS>ATOM
      1 O19         0.4670   -2.2680    0.6610 o         1 18C     -0.412100
      2 C19         1.3470   -1.4220    0.6520 c         1 18C      0.549100
      3 N2          2.0790   -1.2010    1.9600 n4        1 18C     -0.680800
      4 C2          1.1770   -1.1760    3.1660 c3        1 18C      0.086500
      5 C1          2.0120   -1.4310    4.4410 c3        1 18C      0.109400
      6 O1          2.7810   -2.6000    4.2700 oh        1 18C     -0.610800
      7 C3          0.4160    0.1730    3.2640 c3        1 18C      0.186300
      8 C4         -0.5330    0.1500    4.4100 c2        1 18C     -0.272200
      9 C5         -0.3950    0.6710    5.6330 c2        1 18C     -0.086200
     10 C6          0.7850    1.3570    6.2100 c3        1 18C     -0.083200
     11 C7          0.5880    2.8600    6.2980 c3        1 18C     -0.074400
     12 C8         -0.4240    3.2460    7.3560 c3        1 18C     -0.082400
     13 C9         -0.5790    4.7500    7.4390 c3        1 18C     -0.079400
     14 C10        -1.5870    5.1380    8.4990 c3        1 18C     -0.079400
     15 C11        -1.7420    6.6410    8.5840 c3        1 18C     -0.079400
     16 C12        -2.7490    7.0290    9.6450 c3        1 18C     -0.079400
     17 C13        -2.9040    8.5320    9.7320 c3        1 18C     -0.079400
     18 C14        -3.9110    8.9200   10.7930 c3        1 18C     -0.079400
     19 C15        -4.0650   10.4230   10.8810 c3        1 18C     -0.079400
     20 C16        -5.0710   10.8110   11.9430 c3        1 18C     -0.079400
     21 C17        -5.2260   12.3140   12.0320 c3        1 18C     -0.079400
     22 C18        -6.2270   12.7050   13.0890 c3        1 18C     -0.093100
     23 O3          1.4050    1.1910    3.2760 oh        1 18C     -0.637800
     24 C20         1.8160   -0.5680   -0.4890 c3        1 18C     -0.154400
     25 C21         1.1370   -0.9810   -1.7820 c3        1 18C     -0.082400
     26 C22         1.6050   -0.1030   -2.9230 c3        1 18C     -0.080400
     27 C23         0.9390   -0.5110   -4.2210 c3        1 18C     -0.079400
     28 C24         1.4080    0.3590   -5.3690 c3        1 18C     -0.079400
     29 C25         0.7470   -0.0510   -6.6670 c3        1 18C     -0.079400
     30 C26         1.2180    0.8130   -7.8170 c3        1 18C     -0.079400
     31 C27         0.5610    0.4010   -9.1170 c3        1 18C     -0.079400
     32 C28         1.0360    1.2610  -10.2690 c3        1 18C     -0.079400
     33 C29         0.3800    0.8470  -11.5690 c3        1 18C     -0.079400
     34 C30         0.8580    1.7040  -12.7220 c3        1 18C     -0.079400
     35 C31         0.2040    1.2890  -14.0220 c3        1 18C     -0.079400
     36 C32         0.6830    2.1440  -15.1760 c3        1 18C     -0.079400
     37 C33         0.0300    1.7270  -16.4760 c3        1 18C     -0.079400
     38 C34         0.5110    2.5810  -17.6300 c3        1 18C     -0.079400
     39 C35        -0.1410    2.1660  -18.9320 c3        1 18C     -0.080400
     40 C36         0.3350    3.0130  -20.0840 c3        1 18C     -0.093100
     41 H361        0.0920    4.0890  -19.9090 hc        1 18C      0.033367
     42 H362        1.4410    2.9200  -20.2110 hc        1 18C      0.033367
     43 H363       -0.1580    2.6900  -21.0320 hc        1 18C      0.033367
     44 H351       -1.2560    2.2520  -18.8360 hc        1 18C      0.038700
     45 H352        0.0890    1.0870  -19.1370 hc        1 18C      0.038700
     46 H341        1.6250    2.4940  -17.7240 hc        1 18C      0.039700
     47 H342        0.2800    3.6590  -17.4220 hc        1 18C      0.039700
     48 H331       -1.0840    1.8150  -16.3830 hc        1 18C      0.039700
     49 H332        0.2610    0.6490  -16.6850 hc        1 18C      0.039700
     50 H321        0.4520    3.2210  -14.9670 hc        1 18C      0.039700
     51 H322        1.7980    2.0580  -15.2700 hc        1 18C      0.039700
     52 H311        0.4350    0.2110  -14.2320 hc        1 18C      0.039700
     53 H312       -0.9110    1.3750  -13.9280 hc        1 18C      0.039700
     54 H301        0.6250    2.7810  -12.5110 hc        1 18C      0.039700
     55 H302        1.9720    1.6190  -12.8170 hc        1 18C      0.039700
     56 H291        0.6110   -0.2300  -11.7810 hc        1 18C      0.040700
     57 H292       -0.7340    0.9330  -11.4730 hc        1 18C      0.040700
     58 H281        2.1500    1.1770  -10.3660 hc        1 18C      0.040700
     59 H282        0.8020    2.3380  -10.0560 hc        1 18C      0.040700
     60 H271        0.7920   -0.6750   -9.3320 hc        1 18C      0.041200
     61 H272       -0.5540    0.4860   -9.0190 hc        1 18C      0.041200
     62 H261        2.3330    0.7310   -7.9180 hc        1 18C      0.041200
     63 H262        0.9840    1.8890   -7.6020 hc        1 18C      0.041200
     64 H251        0.9790   -1.1270   -6.8860 hc        1 18C      0.042700
     65 H252       -0.3680    0.0330   -6.5660 hc        1 18C      0.042700
     66 H241        2.5220    0.2780   -5.4720 hc        1 18C      0.042700
     67 H242        1.1720    1.4330   -5.1490 hc        1 18C      0.042700
     68 H231       -0.1750   -0.4270   -4.1160 hc        1 18C      0.048200
     69 H232        1.1730   -1.5850   -4.4430 hc        1 18C      0.048200
     70 H221        2.7190   -0.1830   -3.0320 hc        1 18C      0.048200
     71 H222        1.3670    0.9710   -2.7000 hc        1 18C      0.048200
     72 H211        1.3690   -2.0550   -2.0050 hc        1 18C      0.070200
     73 H212        0.0230   -0.8990   -1.6670 hc        1 18C      0.070200
     74 H201        1.5760    0.5080   -0.2560 hc        1 18C      0.102200
     75 H202        2.9310   -0.6580   -0.5990 hc        1 18C      0.102200
     76 HN2         2.7550   -1.9680    2.1010 hn        1 18C      0.473800
     77 H2          0.4200   -2.0060    3.0350 hx        1 18C      0.124700
     78 H11         2.7460   -0.5920    4.6010 h1        1 18C      0.094700
     79 H12         1.3100   -1.4870    5.3130 h1        1 18C      0.094700
     80 HO1         2.3230   -3.3360    4.6970 ho        1 18C      0.436000
     81 H3         -0.1900    0.3080    2.3140 h1        1 18C      0.057700
     82 HO3         1.0320    1.9690    3.7160 ho        1 18C      0.456000
     83 H4         -1.4840   -0.3530    4.1500 ha        1 18C      0.149000
     84 H5         -1.2530    0.5980    6.3310 ha        1 18C      0.150000
     85 H61         1.7120    1.1370    5.6140 hc        1 18C      0.058700
     86 H62         0.9610    0.9500    7.2450 hc        1 18C      0.058700
     87 H71         1.5760    3.3350    6.5410 hc        1 18C      0.046200
     88 H72         0.2610    3.2610    5.3030 hc        1 18C      0.046200
     89 H81        -1.4160    2.7790    7.1210 hc        1 18C      0.044700
     90 H82        -0.0970    2.8480    8.3530 hc        1 18C      0.044700
     91 H91         0.4130    5.2190    7.6740 hc        1 18C      0.042700
     92 H92        -0.9060    5.1510    6.4430 hc        1 18C      0.042700
     93 H101       -1.2600    4.7370    9.4940 hc        1 18C      0.042200
     94 H102       -2.5800    4.6700    8.2640 hc        1 18C      0.042200
     95 H111       -0.7500    7.1090    8.8190 hc        1 18C      0.041200
     96 H112       -2.0700    7.0430    7.5890 hc        1 18C      0.041200
     97 H121       -3.7420    6.5620    9.4100 hc        1 18C      0.040700
     98 H122       -2.4220    6.6270   10.6400 hc        1 18C      0.040700
     99 H131       -3.2320    8.9350    8.7370 hc        1 18C      0.040200
    100 H132       -1.9110    9.0000    9.9660 hc        1 18C      0.040200
    101 H141       -3.5830    8.5170   11.7880 hc        1 18C      0.040200
    102 H142       -4.9040    8.4530   10.5590 hc        1 18C      0.040200
    103 H151       -4.3930   10.8260    9.8870 hc        1 18C      0.040200
    104 H152       -3.0720   10.8900   11.1150 hc        1 18C      0.040200
    105 H161       -4.7430   10.4080   12.9380 hc        1 18C      0.040200
    106 H162       -6.0640   10.3440   11.7090 hc        1 18C      0.040200
    107 H171       -4.2320   12.7790   12.2650 hc        1 18C      0.038700
    108 H172       -5.5530   12.7160   11.0370 hc        1 18C      0.038700
    109 H181       -7.2310   12.2710   12.8610 hc        1 18C      0.034033
    110 H182       -6.3260   13.8160   13.1370 hc        1 18C      0.034033
    111 H183       -5.9060   12.3350   14.0930 hc        1 18C      0.034033
    112 H22         2.5920   -0.3110    1.9250 hn        1 18C      0.473800
@<TRIPOS>BOND
     1    1    2 2   
     2    2    3 1   
     3    2   24 1   
     4    3    4 1   
     5    3   76 1   
     6    3  112 1   
     7    4    5 1   
     8    4    7 1   
     9    4   77 1   
    10    5    6 1   
    11    5   78 1   
    12    5   79 1   
    13    6   80 1   
    14    7    8 1   
    15    7   23 1   
    16    7   81 1   
    17    8    9 2   
    18    8   83 1   
    19    9   10 1   
    20    9   84 1   
    21   10   11 1   
    22   10   85 1   
    23   10   86 1   
    24   11   12 1   
    25   11   87 1   
    26   11   88 1   
    27   12   13 1   
    28   12   89 1   
    29   12   90 1   
    30   13   14 1   
    31   13   91 1   
    32   13   92 1   
    33   14   15 1   
    34   14   93 1   
    35   14   94 1   
    36   15   16 1   
    37   15   95 1   
    38   15   96 1   
    39   16   17 1   
    40   16   97 1   
    41   16   98 1   
    42   17   18 1   
    43   17   99 1   
    44   17  100 1   
    45   18   19 1   
    46   18  101 1   
    47   18  102 1   
    48   19   20 1   
    49   19  103 1   
    50   19  104 1   
    51   20   21 1   
    52   20  105 1   
    53   20  106 1   
    54   21   22 1   
    55   21  107 1   
    56   21  108 1   
    57   22  109 1   
    58   22  110 1   
    59   22  111 1   
    60   23   82 1   
    61   24   25 1   
    62   24   74 1   
    63   24   75 1   
    64   25   26 1   
    65   25   72 1   
    66   25   73 1   
    67   26   27 1   
    68   26   70 1   
    69   26   71 1   
    70   27   28 1   
    71   27   68 1   
    72   27   69 1   
    73   28   29 1   
    74   28   66 1   
    75   28   67 1   
    76   29   30 1   
    77   29   64 1   
    78   29   65 1   
    79   30   31 1   
    80   30   62 1   
    81   30   63 1   
    82   31   32 1   
    83   31   60 1   
    84   31   61 1   
    85   32   33 1   
    86   32   58 1   
    87   32   59 1   
    88   33   34 1   
    89   33   56 1   
    90   33   57 1   
    91   34   35 1   
    92   34   54 1   
    93   34   55 1   
    94   35   36 1   
    95   35   52 1   
    96   35   53 1   
    97   36   37 1   
    98   36   50 1   
    99   36   51 1   
   100   37   38 1   
   101   37   48 1   
   102   37   49 1   
   103   38   39 1   
   104   38   46 1   
   105   38   47 1   
   106   39   40 1   
   107   39   44 1   
   108   39   45 1   
   109   40   41 1   
   110   40   42 1   
   111   40   43 1   
@<TRIPOS>SUBSTRUCTURE
     1 18C         1 TEMP              0 ****  ****    0 ROOT
