@<TRIPOS>MOLECULE
18C
  112   111     1     0     0
SMALL
bcc


@<TRIPOS>ATOM
      1 O19         1.7170   -3.8860    1.0680 o         1 18C     -0.412100
      2 C19         2.2930   -2.8230    1.2330 c         1 18C      0.550100
      3 N2          2.8170   -2.5740    2.6330 ny        1 18C     -0.679800
      4 C2          1.7090   -2.3360    3.6260 c3        1 18C      0.089500
      5 C1          2.2810   -2.4000    5.0600 c3        1 18C      0.109400
      6 O1          3.0090   -3.5960    5.2180 oh        1 18C     -0.608800
      7 C3          1.0020   -0.9780    3.3670 c3        1 18C      0.186300
      8 C4         -0.1000   -0.7690    4.3440 c2        1 18C     -0.274200
      9 C5         -0.1140   -0.0320    5.4590 c2        1 18C     -0.085200
     10 C6          1.0000    0.7250    6.0740 c3        1 18C     -0.083200
     11 C7          0.8640    2.2220    5.8570 c3        1 18C     -0.074400
     12 C8         -0.2700    2.8190    6.6640 c3        1 18C     -0.082400
     13 C9         -0.3650    4.3150    6.4460 c3        1 18C     -0.079400
     14 C10        -1.4970    4.9130    7.2540 c3        1 18C     -0.079400
     15 C11        -1.5920    6.4080    7.0370 c3        1 18C     -0.079400
     16 C12        -2.7240    7.0080    7.8450 c3        1 18C     -0.079400
     17 C13        -2.8200    8.5030    7.6290 c3        1 18C     -0.079400
     18 C14        -3.9510    9.1020    8.4370 c3        1 18C     -0.079400
     19 C15        -4.0470   10.5970    8.2220 c3        1 18C     -0.079400
     20 C16        -5.1780   11.1970    9.0290 c3        1 18C     -0.079400
     21 C17        -5.2760   12.6920    8.8150 c3        1 18C     -0.079400
     22 C18        -6.4010   13.2930    9.6170 c3        1 18C     -0.093100
     23 O3          2.0190    0.0100    3.3300 oh        1 18C     -0.638800
     24 C20         2.5710   -1.7300    0.2440 c3        1 18C     -0.155400
     25 C21         1.8000   -1.9610   -1.0420 c3        1 18C     -0.082400
     26 C22         2.1300   -0.8810   -2.0520 c3        1 18C     -0.080400
     27 C23         1.3600   -1.0970   -3.3380 c3        1 18C     -0.079400
     28 C24         1.6880   -0.0240   -4.3540 c3        1 18C     -0.079400
     29 C25         0.9210   -0.2390   -5.6410 c3        1 18C     -0.079400
     30 C26         1.2500    0.8330   -6.6590 c3        1 18C     -0.079400
     31 C27         0.4850    0.6170   -7.9480 c3        1 18C     -0.079400
     32 C28         0.8140    1.6870   -8.9660 c3        1 18C     -0.079400
     33 C29         0.0510    1.4690  -10.2560 c3        1 18C     -0.079400
     34 C30         0.3800    2.5380  -11.2750 c3        1 18C     -0.079400
     35 C31        -0.3810    2.3200  -12.5650 c3        1 18C     -0.079400
     36 C32        -0.0510    3.3890  -13.5850 c3        1 18C     -0.079400
     37 C33        -0.8120    3.1700  -14.8750 c3        1 18C     -0.079400
     38 C34        -0.4820    4.2380  -15.8960 c3        1 18C     -0.079400
     39 C35        -1.2430    4.0210  -17.1870 c3        1 18C     -0.080400
     40 C36        -0.9170    5.0820  -18.2060 c3        1 18C     -0.093100
     41 H361        0.1730    5.0760  -18.4470 hc        1 18C      0.033367
     42 H362       -1.4880    4.9020  -19.1490 hc        1 18C      0.033367
     43 H363       -1.1840    6.0950  -17.8190 hc        1 18C      0.033367
     44 H351       -0.9910    3.0090  -17.6020 hc        1 18C      0.038700
     45 H352       -2.3450    4.0260  -16.9760 hc        1 18C      0.038700
     46 H341       -0.7340    5.2490  -15.4780 hc        1 18C      0.039700
     47 H342        0.6200    4.2320  -16.1040 hc        1 18C      0.039700
     48 H331       -0.5610    2.1600  -15.2940 hc        1 18C      0.039700
     49 H332       -1.9150    3.1760  -14.6670 hc        1 18C      0.039700
     50 H321        1.0510    3.3830  -13.7930 hc        1 18C      0.039700
     51 H322       -0.3030    4.3990  -13.1670 hc        1 18C      0.039700
     52 H311       -0.1300    1.3100  -12.9840 hc        1 18C      0.039700
     53 H312       -1.4840    2.3270  -12.3570 hc        1 18C      0.039700
     54 H301        1.4830    2.5320  -11.4840 hc        1 18C      0.039700
     55 H302        0.1290    3.5480  -10.8560 hc        1 18C      0.039700
     56 H291       -1.0520    1.4760  -10.0460 hc        1 18C      0.040200
     57 H292        0.3010    0.4590  -10.6750 hc        1 18C      0.040200
     58 H281        1.9160    1.6800   -9.1760 hc        1 18C      0.040200
     59 H282        0.5630    2.6960   -8.5470 hc        1 18C      0.040200
     60 H271       -0.6170    0.6240   -7.7370 hc        1 18C      0.041200
     61 H272        0.7350   -0.3930   -8.3690 hc        1 18C      0.041200
     62 H261        2.3510    0.8260   -6.8700 hc        1 18C      0.041200
     63 H262        0.9990    1.8420   -6.2380 hc        1 18C      0.041200
     64 H251        1.1700   -1.2480   -6.0640 hc        1 18C      0.043200
     65 H252       -0.1800   -0.2310   -5.4290 hc        1 18C      0.043200
     66 H241        1.4380    0.9850   -3.9310 hc        1 18C      0.042700
     67 H242        2.7900   -0.0300   -4.5670 hc        1 18C      0.042700
     68 H231        1.6090   -2.1050   -3.7620 hc        1 18C      0.048200
     69 H232        0.2590   -1.0890   -3.1240 hc        1 18C      0.048200
     70 H221        1.8790    0.1270   -1.6270 hc        1 18C      0.048200
     71 H222        3.2310   -0.8880   -2.2680 hc        1 18C      0.048200
     72 H211        0.6980   -1.9600   -0.8280 hc        1 18C      0.068700
     73 H212        2.0560   -2.9700   -1.4620 hc        1 18C      0.068700
     74 H201        3.6760   -1.7160    0.0300 hc        1 18C      0.105200
     75 H202        2.2930   -0.7340    0.6910 hc        1 18C      0.105200
     76 HN2         3.4310   -1.7510    2.6380 hn        1 18C      0.472300
     77 H2          0.9550   -3.1650    3.4810 hx        1 18C      0.118700
     78 H11         3.0130   -1.5610    5.2260 h1        1 18C      0.093700
     79 H12         1.4290   -2.3030    5.7830 h1        1 18C      0.093700
     80 HO1         2.4520   -4.2400    5.6740 ho        1 18C      0.437000
     81 H3          0.5430   -1.0150    2.3290 h1        1 18C      0.056700
     82 HO3         1.6310    0.8560    3.5990 ho        1 18C      0.456000
     83 H4         -1.0270   -1.2930    4.0420 ha        1 18C      0.149000
     84 H5         -1.0670    0.0420    6.0230 ha        1 18C      0.151000
     85 H61         1.9920    0.3800    5.6750 hc        1 18C      0.058700
     86 H62         1.0040    0.5160    7.1800 hc        1 18C      0.058700
     87 H71         0.7030    2.4380    4.7680 hc        1 18C      0.046700
     88 H72         1.8280    2.7140    6.1550 hc        1 18C      0.046700
     89 H81        -0.1080    2.6090    7.7540 hc        1 18C      0.044700
     90 H82        -1.2390    2.3350    6.3720 hc        1 18C      0.044700
     91 H91         0.6030    4.8000    6.7390 hc        1 18C      0.042700
     92 H92        -0.5260    4.5280    5.3570 hc        1 18C      0.042700
     93 H101       -1.3350    4.7010    8.3430 hc        1 18C      0.042200
     94 H102       -2.4660    4.4280    6.9620 hc        1 18C      0.042200
     95 H111       -1.7540    6.6220    5.9480 hc        1 18C      0.041200
     96 H112       -0.6240    6.8940    7.3300 hc        1 18C      0.041200
     97 H121       -3.6930    6.5230    7.5530 hc        1 18C      0.040700
     98 H122       -2.5630    6.7940    8.9340 hc        1 18C      0.040700
     99 H131       -2.9810    8.7170    6.5400 hc        1 18C      0.040200
    100 H132       -1.8510    8.9880    7.9220 hc        1 18C      0.040200
    101 H141       -3.7900    8.8880    9.5260 hc        1 18C      0.040200
    102 H142       -4.9200    8.6170    8.1440 hc        1 18C      0.040200
    103 H151       -4.2080   10.8110    7.1320 hc        1 18C      0.040200
    104 H152       -3.0790   11.0820    8.5140 hc        1 18C      0.040200
    105 H161       -5.0180   10.9830   10.1180 hc        1 18C      0.040200
    106 H162       -6.1470   10.7120    8.7370 hc        1 18C      0.040200
    107 H171       -5.4350   12.9040    7.7240 hc        1 18C      0.038700
    108 H172       -4.3050   13.1750    9.1060 hc        1 18C      0.038700
    109 H181       -7.3800   12.8420    9.3230 hc        1 18C      0.034033
    110 H182       -6.2470   13.1140   10.7090 hc        1 18C      0.034033
    111 H183       -6.4540   14.3950    9.4440 hc        1 18C      0.034033
    112 H22         3.3480   -3.3940    2.9640 hn        1 18C      0.472300
@<TRIPOS>BOND
     1    1    2 2   
     2    2    3 1   
     3    2   24 1   
     4    3    4 1   
     5    3   76 1   
     6    3  112 1   
     7    4    5 1   
     8    4    7 1   
     9    4   77 1   
    10    5    6 1   
    11    5   78 1   
    12    5   79 1   
    13    6   80 1   
    14    7    8 1   
    15    7   23 1   
    16    7   81 1   
    17    8    9 2   
    18    8   83 1   
    19    9   10 1   
    20    9   84 1   
    21   10   11 1   
    22   10   85 1   
    23   10   86 1   
    24   11   12 1   
    25   11   87 1   
    26   11   88 1   
    27   12   13 1   
    28   12   89 1   
    29   12   90 1   
    30   13   14 1   
    31   13   91 1   
    32   13   92 1   
    33   14   15 1   
    34   14   93 1   
    35   14   94 1   
    36   15   16 1   
    37   15   95 1   
    38   15   96 1   
    39   16   17 1   
    40   16   97 1   
    41   16   98 1   
    42   17   18 1   
    43   17   99 1   
    44   17  100 1   
    45   18   19 1   
    46   18  101 1   
    47   18  102 1   
    48   19   20 1   
    49   19  103 1   
    50   19  104 1   
    51   20   21 1   
    52   20  105 1   
    53   20  106 1   
    54   21   22 1   
    55   21  107 1   
    56   21  108 1   
    57   22  109 1   
    58   22  110 1   
    59   22  111 1   
    60   23   82 1   
    61   24   25 1   
    62   24   74 1   
    63   24   75 1   
    64   25   26 1   
    65   25   72 1   
    66   25   73 1   
    67   26   27 1   
    68   26   70 1   
    69   26   71 1   
    70   27   28 1   
    71   27   68 1   
    72   27   69 1   
    73   28   29 1   
    74   28   66 1   
    75   28   67 1   
    76   29   30 1   
    77   29   64 1   
    78   29   65 1   
    79   30   31 1   
    80   30   62 1   
    81   30   63 1   
    82   31   32 1   
    83   31   60 1   
    84   31   61 1   
    85   32   33 1   
    86   32   58 1   
    87   32   59 1   
    88   33   34 1   
    89   33   56 1   
    90   33   57 1   
    91   34   35 1   
    92   34   54 1   
    93   34   55 1   
    94   35   36 1   
    95   35   52 1   
    96   35   53 1   
    97   36   37 1   
    98   36   50 1   
    99   36   51 1   
   100   37   38 1   
   101   37   48 1   
   102   37   49 1   
   103   38   39 1   
   104   38   46 1   
   105   38   47 1   
   106   39   40 1   
   107   39   44 1   
   108   39   45 1   
   109   40   41 1   
   110   40   42 1   
   111   40   43 1   
@<TRIPOS>SUBSTRUCTURE
     1 18C         1 TEMP              0 ****  ****    0 ROOT
