@<TRIPOS>MOLECULE
18C
  111   108     1     0     0
SMALL
bcc


@<TRIPOS>ATOM
      1 O19        -5.0860   -4.7470   -2.2090 o         1 18C     -0.388000
      2 C19        -3.9140   -5.0440   -2.3290 c1        1 18C      0.305000
      3 N2         -3.2250   -5.6590   -1.2520 n3        1 18C     -0.382000
      4 C2         -3.9330   -6.0410   -0.0820 c3        1 18C     -0.040000
      5 C1         -4.0860   -7.5460   -0.0530 c3        1 18C     -0.035000
      6 O1         -5.4500   -7.8770    0.0890 oh        1 18C     -0.333000
      7 C3         -3.1670   -5.5890    1.1410 c3        1 18C      0.053000
      8 C4         -4.0670   -5.6600    2.3540 c2        1 18C     -0.231000
      9 C5         -3.8550   -4.8360    3.3990 c1        1 18C     -0.124000
     10 C6         -2.7160   -3.8410    3.3590 c2        1 18C     -0.144000
     11 C7         -2.7450   -2.9900    4.6100 c3        1 18C     -0.155000
     12 C8         -1.6650   -1.9350    4.5270 c3        1 18C     -0.158000
     13 C9         -1.9730   -0.8200    5.5030 c3        1 18C     -0.158000
     14 C10        -1.1760    0.4100    5.1300 c3        1 18C     -0.156000
     15 C11        -1.5460    1.5500    6.0540 c3        1 18C     -0.157000
     16 C12        -1.7610    2.8080    5.2410 c3        1 18C     -0.158000
     17 C13        -1.3500    4.0130    6.0590 c3        1 18C     -0.157000
     18 C14        -2.1220    5.2270    5.5910 c3        1 18C     -0.156000
     19 C15        -1.1790    6.4030    5.4560 c3        1 18C     -0.158000
     20 C16        -1.9710    7.6490    5.1300 c3        1 18C     -0.158000
     21 C17        -1.0570    8.6780    4.5020 c3        1 18C     -0.159000
     22 C18        -1.8520    9.9190    4.1610 c3        1 18C     -0.210000
     23 O3         -2.0540   -6.4280    1.3330 oh        1 18C     -0.329000
     24 C20        -3.1960   -4.7800   -3.6340 c2        1 18C     -0.181000
     25 C21        -3.5790   -3.4110   -4.1520 c3        1 18C     -0.156000
     26 C22        -2.7730   -3.0990   -5.3940 c3        1 18C     -0.159000
     27 C23        -2.6350   -1.6000   -5.5420 c3        1 18C     -0.158000
     28 C24        -1.4300   -1.2870   -6.4010 c3        1 18C     -0.158000
     29 C25        -0.9340    0.1070   -6.0850 c3        1 18C     -0.158000
     30 C26         0.4730    0.2750   -6.6150 c3        1 18C     -0.158000
     31 C27         1.1580    1.4040   -5.8790 c3        1 18C     -0.158000
     32 C28         2.6550    1.2960   -6.0690 c3        1 18C     -0.158000
     33 C29         3.3610    2.0010   -4.9320 c3        1 18C     -0.158000
     34 C30         4.7960    1.5290   -4.8590 c3        1 18C     -0.158000
     35 C31         5.4050    1.9650   -3.5440 c3        1 18C     -0.158000
     36 C32         6.7160    1.2410   -3.3310 c3        1 18C     -0.158000
     37 C33         7.2720    1.5960   -1.9690 c3        1 18C     -0.158000
     38 C34         8.3540    0.6070   -1.5930 c3        1 18C     -0.158000
     39 C35         8.8560    0.9150   -0.2000 c3        1 18C     -0.159000
     40 C36         9.7250   -0.2240    0.2860 c3        1 18C     -0.210000
     41 H361       10.4360   -0.3940   -0.3670 hc        1 18C      0.072000
     42 H362       10.1240    0.0150    1.1490 hc        1 18C      0.072000
     43 H363        9.1780   -1.0300    0.3920 hc        1 18C      0.072000
     44 H351        8.0940    1.0250    0.4040 hc        1 18C      0.078000
     45 H352        9.3800    1.7410   -0.2170 hc        1 18C      0.078000
     46 H341        7.9890   -0.3000   -1.6150 hc        1 18C      0.079000
     47 H342        9.0940    0.6770   -2.2290 hc        1 18C      0.079000
     48 H331        7.6490    2.4980   -1.9960 hc        1 18C      0.079000
     49 H332        6.5550    1.5620   -1.3050 hc        1 18C      0.079000
     50 H321        7.3530    1.5090   -4.0230 hc        1 18C      0.079000
     51 H322        6.5670    0.2750   -3.3810 hc        1 18C      0.079000
     52 H311        5.5640    2.9300   -3.5630 hc        1 18C      0.079000
     53 H312        4.7910    1.7500   -2.8140 hc        1 18C      0.079000
     54 H301        4.8230    0.5530   -4.9230 hc        1 18C      0.079000
     55 H302        5.3050    1.9180   -5.5990 hc        1 18C      0.079000
     56 H291        2.9070    1.7950   -4.0900 hc        1 18C      0.079000
     57 H292        3.3420    2.9660   -5.0850 hc        1 18C      0.079000
     58 H281        2.9070    1.7130   -6.9170 hc        1 18C      0.079000
     59 H282        2.9150    0.3530   -6.0800 hc        1 18C      0.079000
     60 H271        0.9460    1.3480   -4.9250 hc        1 18C      0.079000
     61 H272        0.8460    2.2610   -6.2320 hc        1 18C      0.079000
     62 H261        0.9730   -0.5550   -6.4790 hc        1 18C      0.079000
     63 H262        0.4390    0.4810   -7.5710 hc        1 18C      0.079000
     64 H251       -0.9360    0.2420   -5.1160 hc        1 18C      0.079500
     65 H252       -1.5220    0.7660   -6.5070 hc        1 18C      0.079500
     66 H241       -0.7210   -1.9340   -6.2160 hc        1 18C      0.080000
     67 H242       -1.6800   -1.3380   -7.3450 hc        1 18C      0.080000
     68 H231       -3.4400   -1.2390   -5.9660 hc        1 18C      0.080500
     69 H232       -2.5210   -1.1940   -4.6600 hc        1 18C      0.080500
     70 H221       -1.8850   -3.5020   -5.3170 hc        1 18C      0.082500
     71 H222       -3.2300   -3.4640   -6.1790 hc        1 18C      0.082500
     72 H211       -4.5320   -3.4000   -4.3700 hc        1 18C      0.087500
     73 H212       -3.3930   -2.7390   -3.4660 hc        1 18C      0.087500
     74 H201       -3.4510   -5.4600   -4.2900 ha        1 18C      0.112500
     75 H202       -2.2300   -4.8150   -3.4870 ha        1 18C      0.112500
     76 HN2        -2.3310   -5.8270   -1.3190 hn        1 18C      0.237000
     77 H2         -4.8170   -5.6240   -0.0850 h1        1 18C      0.130000
     78 H11        -3.7440   -7.9240   -0.8890 h1        1 18C      0.085500
     79 H12        -3.5810   -7.9110    0.7020 h1        1 18C      0.085500
     80 HO1        -5.5510   -8.7570    0.0050 ho        1 18C      0.228000
     81 H3         -2.8640   -4.6690    1.0130 h1        1 18C      0.126000
     82 HO3        -1.4390   -6.0000    1.8120 ho        1 18C      0.204000
     83 H4         -4.8020   -6.3020    2.3800 ha        1 18C      0.140000
     84 H5         -4.4360   -4.8820    4.1830 ha        1 18C      0.126000
     85 H61        -2.8120   -3.2680    2.5720 ha        1 18C      0.098000
     86 H62        -1.8650   -4.3210    3.3110 ha        1 18C      0.098000
     87 H71        -2.5890   -3.5560    5.3930 hc        1 18C      0.081000
     88 H72        -3.6190   -2.5570    4.6890 hc        1 18C      0.081000
     89 H81        -0.8000   -2.3350    4.7520 hc        1 18C      0.080000
     90 H82        -1.6310   -1.5730    3.6190 hc        1 18C      0.080000
     91 H91        -2.9280   -0.6130    5.4690 hc        1 18C      0.080000
     92 H92        -1.7320   -1.1030    6.4080 hc        1 18C      0.080000
     93 H101       -1.3760    0.6610    4.2060 hc        1 18C      0.078500
     94 H102       -0.2200    0.2190    5.2170 hc        1 18C      0.078500
     95 H111       -2.3700    1.3270    6.5330 hc        1 18C      0.078500
     96 H112       -0.8240    1.6960    6.6970 hc        1 18C      0.078500
     97 H121       -1.2200    2.7670    4.4270 hc        1 18C      0.079500
     98 H122       -2.7060    2.8840    5.0010 hc        1 18C      0.079500
     99 H131       -0.3920    4.1720    5.9470 hc        1 18C      0.078000
    100 H132       -1.5450    3.8470    7.0030 hc        1 18C      0.078000
    101 H141       -2.8200    5.4410    6.2420 hc        1 18C      0.078000
    102 H142       -2.5330    5.0380    4.7240 hc        1 18C      0.078000
    103 H151       -0.6980    6.5330    6.2980 hc        1 18C      0.079000
    104 H152       -0.5380    6.2260    4.7390 hc        1 18C      0.079000
    105 H161       -2.6880    7.4250    4.5030 hc        1 18C      0.079000
    106 H162       -2.3580    8.0140    5.9510 hc        1 18C      0.079000
    107 H171       -0.6620    8.3090    3.6870 hc        1 18C      0.077500
    108 H172       -0.3460    8.9100    5.1330 hc        1 18C      0.077500
    109 H181       -2.0120   10.4390    4.9760 hc        1 18C      0.072000
    110 H182       -2.7110    9.6580    3.7660 hc        1 18C      0.072000
    111 H183       -1.3490   10.4630    3.5190 hc        1 18C      0.072000
@<TRIPOS>BOND
     1    1    2 1   
     2    2    3 1   
     3    3    4 1   
     4    3   76 1   
     5    4    5 1   
     6    4    7 1   
     7    4   77 1   
     8    5    6 1   
     9    5   78 1   
    10    5   79 1   
    11    6   80 1   
    12    7    8 1   
    13    7   23 1   
    14    7   81 1   
    15    8    9 1   
    16    8   83 1   
    17    9   84 1   
    18   10   11 1   
    19   10   85 1   
    20   10   86 1   
    21   11   12 1   
    22   11   87 1   
    23   11   88 1   
    24   12   13 1   
    25   12   89 1   
    26   12   90 1   
    27   13   14 1   
    28   13   91 1   
    29   13   92 1   
    30   14   15 1   
    31   14   93 1   
    32   14   94 1   
    33   15   16 1   
    34   15   95 1   
    35   15   96 1   
    36   16   17 1   
    37   16   97 1   
    38   16   98 1   
    39   17   18 1   
    40   17   99 1   
    41   17  100 1   
    42   18   19 1   
    43   18  101 1   
    44   18  102 1   
    45   19   20 1   
    46   19  103 1   
    47   19  104 1   
    48   20   21 1   
    49   20  105 1   
    50   20  106 1   
    51   21   22 1   
    52   21  107 1   
    53   21  108 1   
    54   22  109 1   
    55   22  110 1   
    56   22  111 1   
    57   23   82 1   
    58   24   25 1   
    59   24   74 1   
    60   24   75 1   
    61   25   26 1   
    62   25   72 1   
    63   25   73 1   
    64   26   27 1   
    65   26   70 1   
    66   26   71 1   
    67   27   28 1   
    68   27   68 1   
    69   27   69 1   
    70   28   29 1   
    71   28   66 1   
    72   28   67 1   
    73   29   30 1   
    74   29   64 1   
    75   29   65 1   
    76   30   31 1   
    77   30   62 1   
    78   30   63 1   
    79   31   32 1   
    80   31   60 1   
    81   31   61 1   
    82   32   33 1   
    83   32   58 1   
    84   32   59 1   
    85   33   34 1   
    86   33   56 1   
    87   33   57 1   
    88   34   35 1   
    89   34   54 1   
    90   34   55 1   
    91   35   36 1   
    92   35   52 1   
    93   35   53 1   
    94   36   37 1   
    95   36   50 1   
    96   36   51 1   
    97   37   38 1   
    98   37   48 1   
    99   37   49 1   
   100   38   39 1   
   101   38   46 1   
   102   38   47 1   
   103   39   40 1   
   104   39   44 1   
   105   39   45 1   
   106   40   41 1   
   107   40   42 1   
   108   40   43 1   
@<TRIPOS>SUBSTRUCTURE
     1 18C         1 TEMP              0 ****  ****    0 ROOT
