@<TRIPOS>MOLECULE
18C
  112   111     1     0     0
SMALL
bcc


@<TRIPOS>ATOM
      1 O19         1.2560    1.6030    1.5220 o         1 18C     -0.416100
      2 C19         1.5480    0.4400    1.2940 c         1 18C      0.550100
      3 N2          1.7610   -0.4620    2.4900 n4        1 18C     -0.678800
      4 C2          1.9680    0.2580    3.7950 c3        1 18C      0.087500
      5 C1          1.7020   -0.7070    4.9730 c3        1 18C      0.111400
      6 O1          0.4680   -1.3600    4.7740 oh        1 18C     -0.615800
      7 C3          3.4020    0.8450    3.8880 c3        1 18C      0.182300
      8 C4          3.6070    1.4930    5.2130 c2        1 18C     -0.291200
      9 C5          3.3890    2.7890    5.4630 c2        1 18C     -0.070200
     10 C6          2.9040    3.7820    4.4750 c3        1 18C     -0.072200
     11 C7          2.3100    5.0160    5.1260 c3        1 18C     -0.082400
     12 C8          1.0140    4.7120    5.8460 c3        1 18C     -0.078400
     13 C9          0.4490    5.9530    6.5030 c3        1 18C     -0.081400
     14 C10        -0.8500    5.6520    7.2200 c3        1 18C     -0.077400
     15 C11        -1.4130    6.8940    7.8780 c3        1 18C     -0.080400
     16 C12        -2.7120    6.5940    8.5950 c3        1 18C     -0.078400
     17 C13        -3.2750    7.8350    9.2520 c3        1 18C     -0.079400
     18 C14        -4.5740    7.5360    9.9700 c3        1 18C     -0.078400
     19 C15        -5.1360    8.7780   10.6270 c3        1 18C     -0.079400
     20 C16        -6.4350    8.4790   11.3440 c3        1 18C     -0.079400
     21 C17        -6.9990    9.7210   12.0030 c3        1 18C     -0.080400
     22 C18        -8.2920    9.4280   12.7180 c3        1 18C     -0.093100
     23 O3          4.2910   -0.2410    3.6540 oh        1 18C     -0.638800
     24 C20         1.7390   -0.2320   -0.0360 c3        1 18C     -0.155400
     25 C21         1.1980    0.6380   -1.1570 c3        1 18C     -0.082400
     26 C22         1.4430   -0.0230   -2.4970 c3        1 18C     -0.081400
     27 C23         0.9010    0.8320   -3.6230 c3        1 18C     -0.079400
     28 C24         1.1440    0.1780   -4.9670 c3        1 18C     -0.079400
     29 C25         0.6030    1.0310   -6.0940 c3        1 18C     -0.079400
     30 C26         0.8450    0.3790   -7.4390 c3        1 18C     -0.079400
     31 C27         0.3040    1.2310   -8.5660 c3        1 18C     -0.079400
     32 C28         0.5450    0.5790   -9.9110 c3        1 18C     -0.079400
     33 C29         0.0040    1.4310  -11.0390 c3        1 18C     -0.079400
     34 C30         0.2460    0.7800  -12.3840 c3        1 18C     -0.079400
     35 C31        -0.2960    1.6320  -13.5120 c3        1 18C     -0.079400
     36 C32        -0.0540    0.9800  -14.8570 c3        1 18C     -0.079400
     37 C33        -0.5960    1.8320  -15.9850 c3        1 18C     -0.079400
     38 C34        -0.3540    1.1810  -17.3290 c3        1 18C     -0.079400
     39 C35        -0.8950    2.0310  -18.4590 c3        1 18C     -0.080400
     40 C36        -0.6570    1.3870  -19.8000 c3        1 18C     -0.093100
     41 H361       -1.1590    0.3900  -19.8530 hc        1 18C      0.033367
     42 H362       -1.0640    2.0300  -20.6170 hc        1 18C      0.033367
     43 H363        0.4350    1.2380  -19.9780 hc        1 18C      0.033367
     44 H351       -1.9960    2.1950  -18.3090 hc        1 18C      0.038700
     45 H352       -0.4060    3.0410  -18.4340 hc        1 18C      0.038700
     46 H341        0.7460    1.0170  -17.4770 hc        1 18C      0.039700
     47 H342       -0.8440    0.1710  -17.3520 hc        1 18C      0.039700
     48 H331       -0.1060    2.8410  -15.9620 hc        1 18C      0.039700
     49 H332       -1.6960    1.9950  -15.8380 hc        1 18C      0.039700
     50 H321       -0.5440   -0.0290  -14.8790 hc        1 18C      0.039700
     51 H322        1.0460    0.8170  -15.0030 hc        1 18C      0.039700
     52 H311       -1.3960    1.7950  -13.3650 hc        1 18C      0.039700
     53 H312        0.1940    2.6410  -13.4900 hc        1 18C      0.039700
     54 H301        1.3460    0.6170  -12.5310 hc        1 18C      0.039700
     55 H302       -0.2440   -0.2290  -12.4060 hc        1 18C      0.039700
     56 H291       -1.0960    1.5950  -10.8930 hc        1 18C      0.040700
     57 H292        0.4940    2.4410  -11.0170 hc        1 18C      0.040700
     58 H281        0.0560   -0.4300   -9.9340 hc        1 18C      0.040700
     59 H282        1.6460    0.4160  -10.0580 hc        1 18C      0.040700
     60 H271        0.7940    2.2400   -8.5440 hc        1 18C      0.040700
     61 H272       -0.7970    1.3950   -8.4200 hc        1 18C      0.040700
     62 H261        1.9450    0.2160   -7.5850 hc        1 18C      0.041700
     63 H262        0.3550   -0.6300   -7.4620 hc        1 18C      0.041700
     64 H251       -0.4980    1.1940   -5.9490 hc        1 18C      0.042700
     65 H252        1.0930    2.0400   -6.0720 hc        1 18C      0.042700
     66 H241        2.2450    0.0160   -5.1140 hc        1 18C      0.043200
     67 H242        0.6540   -0.8310   -4.9900 hc        1 18C      0.043200
     68 H231        1.3920    1.8410   -3.6010 hc        1 18C      0.047700
     69 H232       -0.2000    0.9950   -3.4780 hc        1 18C      0.047700
     70 H221        0.9510   -1.0310   -2.5210 hc        1 18C      0.048700
     71 H222        2.5440   -0.1850   -2.6450 hc        1 18C      0.048700
     72 H211        0.0980    0.8050   -1.0090 hc        1 18C      0.069700
     73 H212        1.6940    1.6440   -1.1290 hc        1 18C      0.069700
     74 H201        2.8420   -0.4060   -0.1870 hc        1 18C      0.101700
     75 H202        1.2250   -1.2310   -0.0490 hc        1 18C      0.101700
     76 HN2         2.5840   -1.0570    2.3210 hn        1 18C      0.474300
     77 H2          1.2320    1.1150    3.8290 hx        1 18C      0.123700
     78 H11         1.7340   -0.1160    5.9250 h1        1 18C      0.094700
     79 H12         2.4890   -1.5110    5.0010 h1        1 18C      0.094700
     80 HO1        -0.1960   -0.9460    5.3390 ho        1 18C      0.437000
     81 H3          3.5430    1.5950    3.0520 h1        1 18C      0.066700
     82 HO3         5.1300   -0.0460    4.0930 ho        1 18C      0.453000
     83 H4          3.9900    0.8210    6.0000 ha        1 18C      0.147000
     84 H5          3.5890    3.1870    6.4760 ha        1 18C      0.153000
     85 H61         2.1410    3.3190    3.7920 hc        1 18C      0.057200
     86 H62         3.7770    4.0940    3.8340 hc        1 18C      0.057200
     87 H71         3.0480    5.4550    5.8480 hc        1 18C      0.057200
     88 H72         2.1230    5.7870    4.3320 hc        1 18C      0.057200
     89 H81         0.2650    4.3000    5.1180 hc        1 18C      0.032700
     90 H82         1.1910    3.9230    6.6230 hc        1 18C      0.032700
     91 H91         1.1940    6.3650    7.2330 hc        1 18C      0.047700
     92 H92         0.2750    6.7440    5.7260 hc        1 18C      0.047700
     93 H101       -1.5970    5.2420    6.4900 hc        1 18C      0.036700
     94 H102       -0.6770    4.8610    7.9970 hc        1 18C      0.036700
     95 H111       -1.5860    7.6850    7.1020 hc        1 18C      0.043700
     96 H112       -0.6670    7.3040    8.6080 hc        1 18C      0.043700
     97 H121       -3.4590    6.1840    7.8650 hc        1 18C      0.038200
     98 H122       -2.5400    5.8020    9.3710 hc        1 18C      0.038200
     99 H131       -2.5280    8.2460    9.9830 hc        1 18C      0.041700
    100 H132       -3.4470    8.6270    8.4760 hc        1 18C      0.041700
    101 H141       -4.4020    6.7450   10.7460 hc        1 18C      0.038700
    102 H142       -5.3210    7.1260    9.2400 hc        1 18C      0.038700
    103 H151       -5.3090    9.5700    9.8510 hc        1 18C      0.040700
    104 H152       -4.3890    9.1880   11.3570 hc        1 18C      0.040700
    105 H161       -7.1830    8.0700   10.6150 hc        1 18C      0.039200
    106 H162       -6.2630    7.6880   12.1210 hc        1 18C      0.039200
    107 H171       -7.1680   10.5120   11.2250 hc        1 18C      0.039700
    108 H172       -6.2490   10.1300   12.7310 hc        1 18C      0.039700
    109 H181       -9.0600    9.0430   12.0040 hc        1 18C      0.033700
    110 H182       -8.1380    8.6600   13.5140 hc        1 18C      0.033700
    111 H183       -8.6900   10.3560   13.1960 hc        1 18C      0.033700
    112 H22         0.9350   -1.0720    2.5990 hn        1 18C      0.474300
@<TRIPOS>BOND
     1    1    2 2   
     2    2    3 1   
     3    2   24 1   
     4    3    4 1   
     5    3   76 1   
     6    3  112 1   
     7    4    5 1   
     8    4    7 1   
     9    4   77 1   
    10    5    6 1   
    11    5   78 1   
    12    5   79 1   
    13    6   80 1   
    14    7    8 1   
    15    7   23 1   
    16    7   81 1   
    17    8    9 2   
    18    8   83 1   
    19    9   10 1   
    20    9   84 1   
    21   10   11 1   
    22   10   85 1   
    23   10   86 1   
    24   11   12 1   
    25   11   87 1   
    26   11   88 1   
    27   12   13 1   
    28   12   89 1   
    29   12   90 1   
    30   13   14 1   
    31   13   91 1   
    32   13   92 1   
    33   14   15 1   
    34   14   93 1   
    35   14   94 1   
    36   15   16 1   
    37   15   95 1   
    38   15   96 1   
    39   16   17 1   
    40   16   97 1   
    41   16   98 1   
    42   17   18 1   
    43   17   99 1   
    44   17  100 1   
    45   18   19 1   
    46   18  101 1   
    47   18  102 1   
    48   19   20 1   
    49   19  103 1   
    50   19  104 1   
    51   20   21 1   
    52   20  105 1   
    53   20  106 1   
    54   21   22 1   
    55   21  107 1   
    56   21  108 1   
    57   22  109 1   
    58   22  110 1   
    59   22  111 1   
    60   23   82 1   
    61   24   25 1   
    62   24   74 1   
    63   24   75 1   
    64   25   26 1   
    65   25   72 1   
    66   25   73 1   
    67   26   27 1   
    68   26   70 1   
    69   26   71 1   
    70   27   28 1   
    71   27   68 1   
    72   27   69 1   
    73   28   29 1   
    74   28   66 1   
    75   28   67 1   
    76   29   30 1   
    77   29   64 1   
    78   29   65 1   
    79   30   31 1   
    80   30   62 1   
    81   30   63 1   
    82   31   32 1   
    83   31   60 1   
    84   31   61 1   
    85   32   33 1   
    86   32   58 1   
    87   32   59 1   
    88   33   34 1   
    89   33   56 1   
    90   33   57 1   
    91   34   35 1   
    92   34   54 1   
    93   34   55 1   
    94   35   36 1   
    95   35   52 1   
    96   35   53 1   
    97   36   37 1   
    98   36   50 1   
    99   36   51 1   
   100   37   38 1   
   101   37   48 1   
   102   37   49 1   
   103   38   39 1   
   104   38   46 1   
   105   38   47 1   
   106   39   40 1   
   107   39   44 1   
   108   39   45 1   
   109   40   41 1   
   110   40   42 1   
   111   40   43 1   
@<TRIPOS>SUBSTRUCTURE
     1 18C         1 TEMP              0 ****  ****    0 ROOT
