@<TRIPOS>MOLECULE
18C
  111   110     1     0     0
SMALL
bcc


@<TRIPOS>ATOM
      1 O19       -12.8110   -1.4990    3.7740 o         1 18C     -0.627100
      2 C19       -13.9030   -1.3520    4.3610 c         1 18C      0.665100
      3 N2        -14.1300   -0.2400    5.1530 n         1 18C     -0.562900
      4 C2        -13.1770    0.8390    5.2260 c3        1 18C      0.033700
      5 C1        -13.2830    1.8460    4.0600 c3        1 18C      0.111400
      6 O1        -13.2370    1.2320    2.7910 oh        1 18C     -0.601800
      7 C3        -13.2920    1.5940    6.5800 c3        1 18C      0.168300
      8 C4        -12.2070    2.6130    6.7010 c2        1 18C     -0.221200
      9 C5        -10.9520    2.3000    7.0330 c2        1 18C     -0.137200
     10 C6         -9.8610    3.2970    7.1470 c3        1 18C     -0.054200
     11 C7         -9.0060    3.0490    8.3750 c3        1 18C     -0.076400
     12 C8         -7.8860    4.0630    8.4710 c3        1 18C     -0.079400
     13 C9         -7.0290    3.8170    9.6940 c3        1 18C     -0.079400
     14 C10        -5.9090    4.8300    9.7920 c3        1 18C     -0.079400
     15 C11        -5.0510    4.5840   11.0150 c3        1 18C     -0.079400
     16 C12        -3.9310    5.5970   11.1130 c3        1 18C     -0.079400
     17 C13        -3.0730    5.3520   12.3360 c3        1 18C     -0.079400
     18 C14        -1.9530    6.3650   12.4340 c3        1 18C     -0.079400
     19 C15        -1.0950    6.1190   13.6570 c3        1 18C     -0.079400
     20 C16         0.0250    7.1320   13.7550 c3        1 18C     -0.079400
     21 C17         0.8830    6.8880   14.9780 c3        1 18C     -0.080400
     22 C18         2.0000    7.8940   15.0800 c3        1 18C     -0.092100
     23 O3        -14.5820    2.1610    6.7380 oh        1 18C     -0.594800
     24 C20       -15.0200   -2.3750    4.2790 c3        1 18C     -0.146400
     25 C21       -14.5670   -3.6140    3.5380 c3        1 18C     -0.074400
     26 C22       -15.6910   -4.6230    3.4360 c3        1 18C     -0.079400
     27 C23       -15.2410   -5.8650    2.6970 c3        1 18C     -0.078400
     28 C24       -16.3620   -6.8770    2.5920 c3        1 18C     -0.079400
     29 C25       -15.9120   -8.1200    1.8540 c3        1 18C     -0.079400
     30 C26       -17.0320   -9.1320    1.7480 c3        1 18C     -0.078400
     31 C27       -16.5820  -10.3750    1.0100 c3        1 18C     -0.079400
     32 C28       -17.7020  -11.3870    0.9050 c3        1 18C     -0.079400
     33 C29       -17.2520  -12.6300    0.1670 c3        1 18C     -0.079400
     34 C30       -18.3720  -13.6430    0.0620 c3        1 18C     -0.079400
     35 C31       -17.9210  -14.8850   -0.6760 c3        1 18C     -0.079400
     36 C32       -19.0410  -15.8980   -0.7820 c3        1 18C     -0.079400
     37 C33       -18.5910  -17.1400   -1.5200 c3        1 18C     -0.079400
     38 C34       -19.7110  -18.1530   -1.6250 c3        1 18C     -0.079400
     39 C35       -19.2620  -19.3970   -2.3630 c3        1 18C     -0.080400
     40 C36       -20.3730  -20.4080   -2.4700 c3        1 18C     -0.092100
     41 H361      -21.2440  -19.9800   -3.0230 hc        1 18C      0.032700
     42 H362      -20.7220  -20.7200   -1.4560 hc        1 18C      0.032700
     43 H363      -20.0210  -21.3160   -3.0170 hc        1 18C      0.032700
     44 H351      -18.9080  -19.1140   -3.3900 hc        1 18C      0.038700
     45 H352      -18.3870  -19.8530   -1.8280 hc        1 18C      0.038700
     46 H341      -20.5840  -17.6950   -2.1600 hc        1 18C      0.039700
     47 H342      -20.0630  -18.4340   -0.5970 hc        1 18C      0.039700
     48 H331      -18.2390  -16.8600   -2.5470 hc        1 18C      0.039700
     49 H332      -17.7180  -17.5990   -0.9850 hc        1 18C      0.039700
     50 H321      -19.9140  -15.4390   -1.3160 hc        1 18C      0.039700
     51 H322      -19.3930  -16.1780    0.2460 hc        1 18C      0.039700
     52 H311      -17.5690  -14.6050   -1.7040 hc        1 18C      0.039700
     53 H312      -17.0480  -15.3440   -0.1420 hc        1 18C      0.039700
     54 H301      -18.7240  -13.9230    1.0900 hc        1 18C      0.039700
     55 H302      -19.2450  -13.1840   -0.4730 hc        1 18C      0.039700
     56 H291      -16.3780  -13.0890    0.7020 hc        1 18C      0.039700
     57 H292      -16.9000  -12.3500   -0.8610 hc        1 18C      0.039700
     58 H281      -18.5750  -10.9280    0.3710 hc        1 18C      0.039700
     59 H282      -18.0540  -11.6670    1.9330 hc        1 18C      0.039700
     60 H271      -16.2300  -10.0950   -0.0170 hc        1 18C      0.039700
     61 H272      -15.7090  -10.8340    1.5450 hc        1 18C      0.039700
     62 H261      -17.3840   -9.4120    2.7760 hc        1 18C      0.039200
     63 H262      -17.9050   -8.6730    1.2140 hc        1 18C      0.039200
     64 H251      -15.5600   -7.8400    0.8260 hc        1 18C      0.040200
     65 H252      -15.0390   -8.5790    2.3880 hc        1 18C      0.040200
     66 H241      -16.7140   -7.1570    3.6200 hc        1 18C      0.039200
     67 H242      -17.2350   -6.4180    2.0580 hc        1 18C      0.039200
     68 H231      -14.8890   -5.5850    1.6690 hc        1 18C      0.043200
     69 H232      -14.3680   -6.3240    3.2310 hc        1 18C      0.043200
     70 H221      -16.5640   -4.1640    2.9010 hc        1 18C      0.038200
     71 H222      -16.0420   -4.9040    4.4640 hc        1 18C      0.038200
     72 H211      -14.2120   -3.3270    2.5130 hc        1 18C      0.059700
     73 H212      -13.6900   -4.0670    4.0690 hc        1 18C      0.059700
     74 H201      -15.8920   -1.9090    3.7480 hc        1 18C      0.065200
     75 H202      -15.3550   -2.6510    5.3130 hc        1 18C      0.065200
     76 HN2       -15.0460   -0.0480    5.4860 hn        1 18C      0.318500
     77 H2        -12.1410    0.3790    5.1820 h1        1 18C      0.086700
     78 H11       -14.2640    2.3910    4.0770 h1        1 18C      0.044200
     79 H12       -12.4420    2.5860    4.1550 h1        1 18C      0.044200
     80 HO1       -12.5620    0.5390    2.8170 ho        1 18C      0.425000
     81 H3        -13.2270    0.8500    7.4290 h1        1 18C      0.091700
     82 HO3       -14.6560    2.9050    6.1280 ho        1 18C      0.401000
     83 H4        -12.5140    3.6550    6.5170 ha        1 18C      0.129000
     84 H5        -10.6580    1.2550    7.2310 ha        1 18C      0.127000
     85 H61        -9.2180    3.2310    6.2260 hc        1 18C      0.051200
     86 H62       -10.2760    4.3400    7.1850 hc        1 18C      0.051200
     87 H71        -9.6450    3.1050    9.2950 hc        1 18C      0.044200
     88 H72        -8.5750    2.0140    8.3320 hc        1 18C      0.044200
     89 H81        -8.3170    5.0980    8.5160 hc        1 18C      0.040700
     90 H82        -7.2490    4.0090    7.5490 hc        1 18C      0.040700
     91 H91        -6.5970    2.7820    9.6490 hc        1 18C      0.040700
     92 H92        -7.6650    3.8700   10.6170 hc        1 18C      0.040700
     93 H101       -6.3400    5.8650    9.8370 hc        1 18C      0.039700
     94 H102       -5.2720    4.7770    8.8700 hc        1 18C      0.039700
     95 H111       -5.6880    4.6370   11.9370 hc        1 18C      0.039700
     96 H112       -4.6200    3.5500   10.9700 hc        1 18C      0.039700
     97 H121       -3.2940    5.5450   10.1910 hc        1 18C      0.039700
     98 H122       -4.3620    6.6320   11.1580 hc        1 18C      0.039700
     99 H131       -3.7100    5.4050   13.2580 hc        1 18C      0.039700
    100 H132       -2.6420    4.3170   12.2910 hc        1 18C      0.039700
    101 H141       -1.3160    6.3120   11.5120 hc        1 18C      0.039700
    102 H142       -2.3840    7.4000   12.4790 hc        1 18C      0.039700
    103 H151       -1.7320    6.1720   14.5790 hc        1 18C      0.039700
    104 H152       -0.6640    5.0850   13.6120 hc        1 18C      0.039700
    105 H161       -0.4060    8.1670   13.8000 hc        1 18C      0.039700
    106 H162        0.6620    7.0790   12.8330 hc        1 18C      0.039700
    107 H171        0.2440    6.9390   15.8990 hc        1 18C      0.038700
    108 H172        1.3120    5.8520   14.9320 hc        1 18C      0.038700
    109 H181        1.5920    8.9310   15.1510 hc        1 18C      0.032700
    110 H182        2.6200    7.6960   15.9870 hc        1 18C      0.032700
    111 H183        2.6620    7.8410   14.1820 hc        1 18C      0.032700
@<TRIPOS>BOND
     1    1    2 2   
     2    2    3 1   
     3    2   24 1   
     4    3    4 1   
     5    3   76 1   
     6    4    5 1   
     7    4    7 1   
     8    4   77 1   
     9    5    6 1   
    10    5   78 1   
    11    5   79 1   
    12    6   80 1   
    13    7    8 1   
    14    7   23 1   
    15    7   81 1   
    16    8    9 2   
    17    8   83 1   
    18    9   10 1   
    19    9   84 1   
    20   10   11 1   
    21   10   85 1   
    22   10   86 1   
    23   11   12 1   
    24   11   87 1   
    25   11   88 1   
    26   12   13 1   
    27   12   89 1   
    28   12   90 1   
    29   13   14 1   
    30   13   91 1   
    31   13   92 1   
    32   14   15 1   
    33   14   93 1   
    34   14   94 1   
    35   15   16 1   
    36   15   95 1   
    37   15   96 1   
    38   16   17 1   
    39   16   97 1   
    40   16   98 1   
    41   17   18 1   
    42   17   99 1   
    43   17  100 1   
    44   18   19 1   
    45   18  101 1   
    46   18  102 1   
    47   19   20 1   
    48   19  103 1   
    49   19  104 1   
    50   20   21 1   
    51   20  105 1   
    52   20  106 1   
    53   21   22 1   
    54   21  107 1   
    55   21  108 1   
    56   22  109 1   
    57   22  110 1   
    58   22  111 1   
    59   23   82 1   
    60   24   25 1   
    61   24   74 1   
    62   24   75 1   
    63   25   26 1   
    64   25   72 1   
    65   25   73 1   
    66   26   27 1   
    67   26   70 1   
    68   26   71 1   
    69   27   28 1   
    70   27   68 1   
    71   27   69 1   
    72   28   29 1   
    73   28   66 1   
    74   28   67 1   
    75   29   30 1   
    76   29   64 1   
    77   29   65 1   
    78   30   31 1   
    79   30   62 1   
    80   30   63 1   
    81   31   32 1   
    82   31   60 1   
    83   31   61 1   
    84   32   33 1   
    85   32   58 1   
    86   32   59 1   
    87   33   34 1   
    88   33   56 1   
    89   33   57 1   
    90   34   35 1   
    91   34   54 1   
    92   34   55 1   
    93   35   36 1   
    94   35   52 1   
    95   35   53 1   
    96   36   37 1   
    97   36   50 1   
    98   36   51 1   
    99   37   38 1   
   100   37   48 1   
   101   37   49 1   
   102   38   39 1   
   103   38   46 1   
   104   38   47 1   
   105   39   40 1   
   106   39   44 1   
   107   39   45 1   
   108   40   41 1   
   109   40   42 1   
   110   40   43 1   
@<TRIPOS>SUBSTRUCTURE
     1 18C         1 TEMP              0 ****  ****    0 ROOT
