@<TRIPOS>MOLECULE
18D
   42    42     1     0     0
SMALL
bcc


@<TRIPOS>ATOM
      1 C1         -2.0370    2.4740    0.6790 c         1 18D      0.895600
      2 C2         -1.2590    2.3480   -0.6750 c3        1 18D      0.217600
      3 C3          0.1580    2.9180   -0.6380 c3        1 18D     -0.109400
      4 C4          1.0750    2.0160    0.1750 c3        1 18D      0.108100
      5 C5          1.0430    0.5710   -0.3970 c3        1 18D      0.082700
      6 C6         -0.4480    0.1200   -0.3380 c3        1 18D      0.111100
      7 C7         -0.6600   -1.2970   -0.9060 c3        1 18D      0.126100
      8 C8         -1.0520   -2.2800    0.2240 c3        1 18D      0.108100
      9 C9         -1.4590   -3.6240   -0.3900 c3        1 18D      0.095400
     10 C11         3.9960   -1.5330    0.8480 c3        1 18D     -0.159400
     11 N5          1.8950   -0.3340    0.3360 n         1 18D     -0.544900
     12 O1         -1.4550    2.1360    1.7430 o         1 18D     -0.814800
     13 O3         -3.2140    2.9130    0.5860 o         1 18D     -0.814800
     14 O2         -1.9500    2.9530   -1.7380 oh        1 18D     -0.607800
     15 O4          2.4230    2.4750    0.1130 oh        1 18D     -0.614800
     16 O6         -1.2320    0.9850   -1.1470 os        1 18D     -0.454600
     17 O7         -1.6410   -1.3470   -1.9250 oh        1 18D     -0.610800
     18 O8          0.0090   -2.4460    1.1460 oh        1 18D     -0.587800
     19 O9         -2.1180   -4.3780    0.6160 oh        1 18D     -0.594800
     20 C22         3.3460   -2.7530    1.4440 c3        1 18D     -0.097100
     21 O10         3.4270   -0.7140   -1.3420 o         1 18D     -0.625100
     22 H2         -2.8890    2.9620   -1.4870 ho        1 18D      0.435000
     23 H31C        0.5490    3.0230   -1.6830 hc        1 18D      0.053200
     24 H32C        0.1170    3.9340   -0.1710 hc        1 18D      0.053200
     25 H4          0.7300    2.0080    1.2510 h1        1 18D      0.090700
     26 HA          2.3960    3.4130    0.3320 ho        1 18D      0.393000
     27 H5          1.3860    0.6000   -1.4720 h1        1 18D      0.099700
     28 H6         -0.8080    0.1780    0.7320 h1        1 18D      0.098700
     29 H7          0.2800   -1.6650   -1.4070 h1        1 18D      0.066700
     30 H8         -1.8970   -1.8670    0.8430 h1        1 18D      0.105700
     31 HB         -2.3140   -0.6770   -1.7390 ho        1 18D      0.433000
     32 H91C       -2.1420   -3.4480   -1.2630 h1        1 18D      0.034200
     33 H92C       -0.5500   -4.1850   -0.7360 h1        1 18D      0.034200
     34 HC          0.7610   -2.8000    0.6530 ho        1 18D      0.390000
     35 H9         -2.5700   -5.0980    0.1610 ho        1 18D      0.386000
     36 HD          1.6990   -0.4210    1.3070 hn        1 18D      0.315500
     37 H111        4.9280   -1.8250    0.2950 hc        1 18D      0.063200
     38 H112        4.2910   -0.8140    1.6570 hc        1 18D      0.063200
     39 H221        2.4610   -2.4790    2.0710 hc        1 18D      0.039700
     40 H222        3.0030   -3.4480    0.6390 hc        1 18D      0.039700
     41 H223        4.0770   -3.2970    2.0900 hc        1 18D      0.039700
     42 C10         3.0910   -0.8130   -0.1440 c         1 18D      0.659100
@<TRIPOS>BOND
     1    1    2 1   
     2    1   12 1   
     3    1   13 1   
     4    2    3 1   
     5    2   14 1   
     6    2   16 1   
     7    3    4 1   
     8    3   23 1   
     9    3   24 1   
    10    4    5 1   
    11    4   15 1   
    12    4   25 1   
    13    5    6 1   
    14    5   11 1   
    15    5   27 1   
    16    6    7 1   
    17    6   16 1   
    18    6   28 1   
    19    7    8 1   
    20    7   17 1   
    21    7   29 1   
    22    8    9 1   
    23    8   18 1   
    24    8   30 1   
    25    9   19 1   
    26    9   32 1   
    27    9   33 1   
    28   10   20 1   
    29   10   37 1   
    30   10   38 1   
    31   10   42 1   
    32   11   36 1   
    33   11   42 1   
    34   14   22 1   
    35   15   26 1   
    36   17   31 1   
    37   18   34 1   
    38   19   35 1   
    39   20   39 1   
    40   20   40 1   
    41   20   41 1   
    42   21   42 2   
@<TRIPOS>SUBSTRUCTURE
     1 18D         1 TEMP              0 ****  ****    0 ROOT
