@<TRIPOS>MOLECULE
18D
   43    39     1     0     0
SMALL
bcc


@<TRIPOS>ATOM
      1 C1          2.5540   -1.1360    2.1090 c1        1 18D      0.442000
      2 C2          1.3660   -0.4190   -0.0870 c1        1 18D      0.105000
      3 C3         -1.9570    0.4060    0.4050 c3        1 18D     -0.250000
      4 C4         -1.0630    1.0280    1.4630 c3        1 18D      0.011000
      5 C5         -0.3520    2.2960    0.8980 c3        1 18D     -0.031000
      6 C6          1.0440    1.8960    0.3360 c3        1 18D      0.012000
      7 C7          1.6400    2.9980   -0.5480 c3        1 18D     -0.028000
      8 C8         -1.5840    5.3160   -2.7540 c1        1 18D     -0.018000
      9 C9         -2.1970    4.1330   -2.0750 c3        1 18D     -0.134000
     10 C11         0.2910    7.0130    4.2620 c2        1 18D     -0.226000
     11 N5         -0.2160    3.3460    1.8790 n         1 18D     -0.379000
     12 O1          2.0450   -0.2050    2.6550 o         1 18D     -0.226000
     13 O3          3.1090   -2.0820    1.6500 o         1 18D     -0.226000
     14 O2          1.0850   -1.3370   -0.9780 oh        1 18D     -0.228000
     15 O4         -1.8020    1.2970    2.6420 oh        1 18D     -0.320000
     16 O6          0.8750    0.7570   -0.5340 os        1 18D     -0.326000
     17 O7          0.8680    3.2220   -1.7090 oh        1 18D     -0.332000
     18 O8         -0.4370    5.7500   -2.3720 oh        1 18D     -0.142000
     19 O9         -3.3700    3.6790   -2.7230 oh        1 18D     -0.330000
     20 C22        -0.9720    6.7300    4.5500 c2        1 18D     -0.226000
     21 O10        -0.6960    5.0950    0.4610 o         1 18D     -0.398000
     22 H2          0.5930   -1.0310   -1.7660 ho        1 18D      0.219000
     23 H31C       -1.3450    0.0650   -0.4640 hc        1 18D      0.091000
     24 H32C       -2.7150    1.1410    0.0410 hc        1 18D      0.091000
     25 H4         -2.4930   -0.4720    0.8390 hc        1 18D      0.091000
     26 HA         -0.2740    0.2940    1.8070 h1        1 18D      0.133000
     27 H5         -2.5940    1.7870    2.3860 ho        1 18D      0.203000
     28 H6         -0.9530    2.7000    0.0240 h1        1 18D      0.134000
     29 H7          1.7470    1.6310    1.1730 h1        1 18D      0.135000
     30 H8          2.6910    2.7210   -0.8300 h1        1 18D      0.104000
     31 HB          0.8460    2.3970   -2.2100 ho        1 18D      0.213000
     32 H91C       -1.4880    3.2560   -2.0550 h1        1 18D      0.099500
     33 H92C       -2.4620    4.4020   -1.0110 h1        1 18D      0.099500
     34 HC         -0.0080    5.2600   -1.6300 ho        1 18D      0.201000
     35 H9         -3.6430    4.3690   -3.3430 ho        1 18D      0.219000
     36 HD          1.6300    3.9810   -0.0050 h1        1 18D      0.104000
     37 H111       -0.4110    5.3390    2.5030 h5        1 18D      0.148000
     38 H112        1.1340    6.6410    4.8600 ha        1 18D      0.114250
     39 H221        0.5780    7.6480    3.4120 ha        1 18D      0.114250
     40 H222       -1.8160    7.1140    3.9590 ha        1 18D      0.114250
     41 H223       -1.2610    6.1060    5.4070 ha        1 18D      0.114250
     42 C10        -0.4650    4.6690    1.6080 c2        1 18D      0.259000
     43 H52        -0.1580    3.0440    2.8260 hn        1 18D      0.244000
@<TRIPOS>BOND
     1    1   12 1   
     2    1   13 1   
     3    2   14 1   
     4    2   16 1   
     5    3    4 1   
     6    3   23 1   
     7    3   24 1   
     8    3   25 1   
     9    4    5 1   
    10    4   15 1   
    11    4   26 1   
    12    5    6 1   
    13    5   11 1   
    14    5   28 1   
    15    6    7 1   
    16    6   16 1   
    17    6   29 1   
    18    7   17 1   
    19    7   30 1   
    20    7   36 1   
    21    8    9 1   
    22    8   18 1   
    23    9   19 1   
    24    9   32 1   
    25    9   33 1   
    26   10   20 1   
    27   10   38 1   
    28   10   39 1   
    29   11   42 1   
    30   11   43 1   
    31   14   22 1   
    32   15   27 1   
    33   17   31 1   
    34   18   34 1   
    35   19   35 1   
    36   20   40 1   
    37   20   41 1   
    38   21   42 1   
    39   37   42 1   
@<TRIPOS>SUBSTRUCTURE
     1 18D         1 TEMP              0 ****  ****    0 ROOT
