@<TRIPOS>MOLECULE
18D
   42    40     1     0     0
SMALL
bcc


@<TRIPOS>ATOM
      1 C1          3.8260   -0.9630    0.1810 c1        1 18D      0.344000
      2 C2          2.3010   -1.0380    0.0890 c3        1 18D      0.104000
      3 C3          1.6580   -1.0640    1.4750 c3        1 18D     -0.205000
      4 C4          0.1720   -1.0250    1.4300 c3        1 18D      0.019000
      5 C5         -0.3440    0.1030    0.6220 c3        1 18D     -0.015000
      6 C6          0.2640    0.1700   -0.7420 c3        1 18D      0.004000
      7 C7         -0.2300   -1.0100   -1.5560 c3        1 18D      0.017000
      8 C8         -0.6620   -0.5300   -2.9180 c3        1 18D     -0.034000
      9 C9         -1.5300   -1.5790   -3.5740 c3        1 18D     -0.062000
     10 C10        -1.0920    2.0140    2.0920 c1        1 18D      0.301000
     11 C11        -0.8030    3.3350    2.7900 c3        1 18D     -0.174000
     12 N5         -0.0570    1.3610    1.3290 n2        1 18D     -0.368000
     13 O1          4.4730   -0.2010   -0.6050 os        1 18D     -0.564000
     14 O3          4.4450   -1.7020    0.9940 o         1 18D     -0.534000
     15 O2          2.1320   -2.2240   -0.5650 oh        1 18D     -0.374000
     16 O4         -0.3160   -2.2810    0.8510 oh        1 18D     -0.348000
     17 O6          1.7210    0.1430   -0.7160 os        1 18D     -0.301000
     18 O7          0.8080   -1.9500   -1.6960 oh        1 18D     -0.357000
     19 O8         -1.3920    0.6620   -2.7820 oh        1 18D     -0.323000
     20 O9         -1.5540   -1.3630   -4.9670 oh        1 18D     -0.344000
     21 C22        -2.0450    3.7780    3.5890 c3        1 18D     -0.229000
     22 O10        -2.1850    1.5330    2.1520 o         1 18D     -0.420000
     23 H2          2.8980   -2.7490   -0.4610 ho        1 18D      0.238000
     24 H31C        1.9800   -0.2830    1.9870 hc        1 18D      0.113500
     25 H32C        1.9350   -1.8700    1.9300 hc        1 18D      0.113500
     26 H4         -0.1700   -0.9420    2.3460 h1        1 18D      0.109000
     27 HA         -0.6780   -2.8070    1.5170 ho        1 18D      0.222000
     28 H5         -1.3130    0.0080    0.5300 h1        1 18D      0.133000
     29 H6         -0.0280    0.9980   -1.1760 h1        1 18D      0.126000
     30 H7         -0.9920   -1.4300   -1.0970 h1        1 18D      0.126000
     31 H8          0.1290   -0.3680   -3.4720 h1        1 18D      0.083000
     32 HB          0.5160   -2.6480   -2.1780 ho        1 18D      0.245000
     33 H91C       -2.4390   -1.5180   -3.2200 h1        1 18D      0.105500
     34 H92C       -1.1650   -2.4680   -3.3870 h1        1 18D      0.105500
     35 HC         -1.2900    1.1580   -3.5140 ho        1 18D      0.204000
     36 H9         -2.1790   -1.8680   -5.3310 ho        1 18D      0.195000
     37 HD          0.7690    1.7520    1.2500 hn        1 18D      0.284000
     38 H111       -0.0600    3.2250    3.3880 hc        1 18D      0.096000
     39 H112       -0.5870    4.0130    2.1230 hc        1 18D      0.096000
     40 H221       -2.7920    3.9150    2.9790 hc        1 18D      0.090000
     41 H222       -2.2800    3.0810    4.2440 hc        1 18D      0.090000
     42 H223       -1.8450    4.6310    4.0680 hc        1 18D      0.090000
@<TRIPOS>BOND
     1    1    2 1   
     2    1   14 1   
     3    2    3 1   
     4    2   15 1   
     5    2   17 1   
     6    3    4 1   
     7    3   24 1   
     8    3   25 1   
     9    4    5 1   
    10    4   16 1   
    11    4   26 1   
    12    5    6 1   
    13    5   12 1   
    14    5   28 1   
    15    6    7 1   
    16    6   17 1   
    17    6   29 1   
    18    7    8 1   
    19    7   18 1   
    20    7   30 1   
    21    8    9 1   
    22    8   19 1   
    23    8   31 1   
    24    9   20 1   
    25    9   33 1   
    26    9   34 1   
    27   10   11 1   
    28   10   22 1   
    29   11   21 1   
    30   11   38 1   
    31   11   39 1   
    32   12   37 1   
    33   15   23 1   
    34   16   27 1   
    35   18   32 1   
    36   19   35 1   
    37   20   36 1   
    38   21   40 1   
    39   21   41 1   
    40   21   42 1   
@<TRIPOS>SUBSTRUCTURE
     1 18D         1 TEMP              0 ****  ****    0 ROOT
