@<TRIPOS>MOLECULE
18D
   43    41     1     0     0
SMALL
bcc


@<TRIPOS>ATOM
      1 C1          1.3260    0.3600   -0.2000 c2        1 18D      0.245000
      2 C2         -0.0050    0.0930   -0.8850 c3        1 18D      0.147000
      3 C3         -0.0640    0.0670    2.8590 c2        1 18D     -0.183000
      4 C4          0.2600    0.9020    1.8670 c2        1 18D     -0.036000
      5 C5         -0.4900    2.1730    1.5330 c3        1 18D      0.020000
      6 C6         -0.9060    2.1300    0.0360 c3        1 18D     -0.037000
      7 C7         -2.2520    2.8300   -0.1800 c3        1 18D     -0.012000
      8 C8          0.6030    3.4010   -2.7230 c1        1 18D     -0.010000
      9 C9         -0.3730    3.8330   -3.7610 c3        1 18D     -0.149000
     10 C11         0.9630    5.3070    3.1880 c3        1 18D     -0.179000
     11 N5          0.2760    3.3600    1.8310 n         1 18D     -0.367000
     12 O1          1.4310    0.6840    1.1350 os        1 18D     -0.217000
     13 O3          2.4260    0.2750   -0.7390 o         1 18D     -0.269000
     14 O2          0.0190    0.4200   -2.2400 oh        1 18D     -0.333000
     15 O4         -2.3950    1.9200    4.2880 oh        1 18D     -0.413000
     16 O6         -1.1200    0.7680   -0.3410 os        1 18D     -0.290000
     17 O7         -2.5890    2.8470   -1.5520 oh        1 18D     -0.343000
     18 O8          1.5090    4.1970   -2.2730 oh        1 18D     -0.144000
     19 O9         -0.0980    5.1700   -4.1570 oh        1 18D     -0.366000
     20 C22         0.4750    6.1890    4.3070 c3        1 18D     -0.205000
     21 O10        -1.0780    4.0470    3.5500 o         1 18D     -0.406000
     22 H2          0.3800    1.3210   -2.3520 ho        1 18D      0.250000
     23 H31C       -0.2650   -1.0060   -0.8200 h2        1 18D      0.172000
     24 H32C        0.5020   -0.8520    3.0590 ha        1 18D      0.148500
     25 H4         -0.9170    0.2810    3.5230 ha        1 18D      0.148500
     26 HA         -1.6500    2.3040    4.7620 ho        1 18D      0.206000
     27 H5         -2.8260    2.6890    3.9000 ho        1 18D      0.206000
     28 H6         -1.4320    2.1850    2.1690 h1        1 18D      0.160000
     29 H7         -0.1230    2.5950   -0.6300 h1        1 18D      0.121000
     30 H8         -2.1780    3.9060    0.1250 h1        1 18D      0.102000
     31 HB         -2.5830    1.9270   -1.8550 ho        1 18D      0.221000
     32 H91C       -1.4050    3.7390   -3.3170 h1        1 18D      0.130500
     33 H92C       -0.2890    3.1450   -4.6470 h1        1 18D      0.130500
     34 HC          1.5340    5.0970   -2.6700 ho        1 18D      0.202000
     35 H9         -0.8590    5.4870   -4.6540 ho        1 18D      0.223000
     36 HD         -3.0550    2.3120    0.4090 h1        1 18D      0.102000
     37 H111        1.9510    4.8490    3.4630 hc        1 18D      0.107000
     38 H112        1.1150    5.9180    2.2590 hc        1 18D      0.107000
     39 H221        1.2190    6.9990    4.5040 hc        1 18D      0.087000
     40 H222        0.3310    5.5940    5.2410 hc        1 18D      0.087000
     41 H223       -0.5050    6.6530    4.0420 hc        1 18D      0.087000
     42 C10        -0.0240    4.1920    2.8940 c2        1 18D      0.314000
     43 H52         1.1860    3.4050    1.4320 hn        1 18D      0.233000
@<TRIPOS>BOND
     1    1    2 1   
     2    1   12 1   
     3    1   13 1   
     4    2   14 1   
     5    2   16 1   
     6    2   23 1   
     7    3    4 1   
     8    3   24 1   
     9    3   25 1   
    10    4    5 1   
    11    4   12 1   
    12    5    6 1   
    13    5   11 1   
    14    5   28 1   
    15    6    7 1   
    16    6   16 1   
    17    6   29 1   
    18    7   17 1   
    19    7   30 1   
    20    7   36 1   
    21    8    9 1   
    22    8   18 1   
    23    9   19 1   
    24    9   32 1   
    25    9   33 1   
    26   10   20 1   
    27   10   37 1   
    28   10   38 1   
    29   10   42 1   
    30   11   42 1   
    31   11   43 1   
    32   14   22 1   
    33   15   26 1   
    34   15   27 1   
    35   17   31 1   
    36   18   34 1   
    37   19   35 1   
    38   20   39 1   
    39   20   40 1   
    40   20   41 1   
    41   21   42 1   
@<TRIPOS>SUBSTRUCTURE
     1 18D         1 TEMP              0 ****  ****    0 ROOT
