@<TRIPOS>MOLECULE
18D
   43    40     1     0     0
SMALL
bcc


@<TRIPOS>ATOM
      1 C1          3.2080   -0.2740    0.5270 c1        1 18D      0.450000
      2 C2          1.5550    0.9500   -0.9450 c1        1 18D      0.079000
      3 C3         -1.6560    1.1610    0.4360 c3        1 18D     -0.249000
      4 C4         -0.6390    1.5360    1.5000 c3        1 18D      0.006000
      5 C5         -0.0860    2.9730    1.2490 c3        1 18D     -0.036000
      6 C6          1.2030    2.8910    0.3860 c3        1 18D      0.021000
      7 C7          1.6520    4.2660   -0.1260 c3        1 18D     -0.030000
      8 C8         -1.1700    1.7010   -3.0870 c1        1 18D     -0.012000
      9 C9         -1.4350    3.1480   -2.8590 c3        1 18D     -0.142000
     10 C11        -0.5280    4.9530    4.4880 c3        1 18D     -0.178000
     11 N5          0.1860    3.7280    2.4550 ns        1 18D     -0.348000
     12 O1          2.6890    0.1880    1.4990 o         1 18D     -0.232500
     13 O3          3.8140   -0.7870   -0.3580 o         1 18D     -0.232500
     14 O2          1.0880    0.3640   -2.0070 oh        1 18D     -0.261000
     15 O4         -1.2170    1.4040    2.7880 oh        1 18D     -0.328000
     16 O6          0.8860    2.1240   -0.7870 os        1 18D     -0.332000
     17 O7          0.8350    4.7230   -1.1840 oh        1 18D     -0.326000
     18 O8         -2.0610    0.9160   -3.5810 oh        1 18D     -0.131000
     19 O9         -2.7700    3.4550   -3.2290 oh        1 18D     -0.365000
     20 C22        -1.6930    5.7310    5.0410 c3        1 18D     -0.205000
     21 O10        -2.0080    4.3950    2.6470 o         1 18D     -0.372000
     22 H2          0.3350    0.8310   -2.4890 ho        1 18D      0.279000
     23 H31C       -1.1840    1.1730   -0.5780 hc        1 18D      0.087333
     24 H32C       -2.5130    1.8780    0.4440 hc        1 18D      0.087333
     25 H4         -2.0470    0.1360    0.6410 hc        1 18D      0.087333
     26 HA          0.2210    0.8050    1.5100 h1        1 18D      0.132000
     27 H5         -2.0100    1.9590    2.8060 ho        1 18D      0.211000
     28 H6         -0.8580    3.5530    0.6580 h1        1 18D      0.133000
     29 H7          2.0310    2.3900    0.9600 h1        1 18D      0.126000
     30 H8          2.7200    4.1990   -0.4670 h1        1 18D      0.101000
     31 HB          0.9140    4.0800   -1.9020 ho        1 18D      0.204000
     32 H91C       -0.7150    3.7520   -3.4790 h1        1 18D      0.128000
     33 H92C       -1.2430    3.3710   -1.7690 h1        1 18D      0.128000
     34 HC         -2.9260    1.3270   -3.8030 ho        1 18D      0.210000
     35 H9         -2.9780    4.3260   -2.8710 ho        1 18D      0.230000
     36 HD          1.5570    5.0480    0.6720 h1        1 18D      0.101000
     37 H111       -0.2450    4.1290    5.1980 hc        1 18D      0.106000
     38 H112        0.3620    5.6270    4.3730 hc        1 18D      0.106000
     39 H221       -1.4250    6.1620    6.0350 hc        1 18D      0.086333
     40 H222       -2.5850    5.0690    5.1600 hc        1 18D      0.086333
     41 H223       -1.9730    6.5620    4.3480 hc        1 18D      0.086333
     42 C10        -0.8670    4.3320    3.1460 c2        1 18D      0.295000
     43 H52         0.9310    3.3730    3.0130 hn        1 18D      0.215000
@<TRIPOS>BOND
     1    1   12 1   
     2    1   13 1   
     3    2   14 1   
     4    2   16 1   
     5    3    4 1   
     6    3   23 1   
     7    3   24 1   
     8    3   25 1   
     9    4    5 1   
    10    4   15 1   
    11    4   26 1   
    12    5    6 1   
    13    5   11 1   
    14    5   28 1   
    15    6    7 1   
    16    6   16 1   
    17    6   29 1   
    18    7   17 1   
    19    7   30 1   
    20    7   36 1   
    21    8    9 1   
    22    8   18 1   
    23    9   19 1   
    24    9   32 1   
    25    9   33 1   
    26   10   20 1   
    27   10   37 1   
    28   10   38 1   
    29   10   42 1   
    30   11   42 1   
    31   11   43 1   
    32   14   22 1   
    33   15   27 1   
    34   17   31 1   
    35   18   34 1   
    36   19   35 1   
    37   20   39 1   
    38   20   40 1   
    39   20   41 1   
    40   21   42 1   
@<TRIPOS>SUBSTRUCTURE
     1 18D         1 TEMP              0 ****  ****    0 ROOT
