@<TRIPOS>MOLECULE
18E
   31    34     1     0     0
SMALL
bcc


@<TRIPOS>ATOM
      1 C1          4.6740   -0.1890   -0.0580 ca        1 18E      0.137100
      2 O1          6.0490   -0.1550   -0.0680 oh        1 18E     -0.495100
      3 C2          4.0960   -1.4900   -0.0420 ca        1 18E     -0.144000
      4 C3          2.7300   -1.6130   -0.0310 ca        1 18E     -0.087000
      5 C4          1.8930   -0.4680   -0.0360 ca        1 18E     -0.072000
      6 C5          2.4740    0.8300   -0.0530 ca        1 18E      0.030000
      7 C6          3.8870    0.9470   -0.0640 ca        1 18E     -0.220000
      8 C7          0.4730   -0.5360   -0.0260 ca        1 18E      0.008800
      9 C8         -0.3360    0.6460   -0.0310 cp        1 18E     -0.083000
     10 C9          0.2790    1.9110   -0.0480 ca        1 18E     -0.053000
     11 C10         1.6500    1.9930   -0.0580 ca        1 18E     -0.162000
     12 N11        -0.3520   -1.6690   -0.0090 na        1 18E     -0.174300
     13 C12        -1.6790   -1.2430   -0.0040 ca        1 18E      0.013800
     14 C13        -1.7130    0.2090   -0.0170 cp        1 18E     -0.175300
     15 C14        -2.8750   -1.9820    0.0120 ca        1 18E     -0.215600
     16 C15        -2.8850   -3.4560    0.0260 c3        1 18E     -0.044800
     17 C16        -4.0590   -1.2250    0.0130 ca        1 18E      0.423200
     18 N17        -4.1290    0.1230    0.0000 nb        1 18E     -0.676000
     19 C18        -2.9760    0.8260   -0.0150 ca        1 18E      0.537300
     20 CL18       -3.0750    2.5340   -0.0300 cl        1 18E     -0.150000
     21 HO1         6.3270    0.7730   -0.0790 ho        1 18E      0.422000
     22 H2          4.7620   -2.3650   -0.0380 ha        1 18E      0.154000
     23 H3          2.2750   -2.6150   -0.0180 ha        1 18E      0.127000
     24 H6          4.3400    1.9490   -0.0760 ha        1 18E      0.139000
     25 H9         -0.3450    2.8170   -0.0520 ha        1 18E      0.148000
     26 H10         2.1440    2.9760   -0.0710 ha        1 18E      0.136000
     27 H15        -2.3540   -3.8430    0.9320 hc        1 18E      0.046367
     28 H15A       -3.9310   -3.8510    0.0370 hc        1 18E      0.046367
     29 H15B       -2.3680   -3.8600   -0.8810 hc        1 18E      0.046367
     30 H16        -5.0410   -1.7340    0.0240 h4        1 18E      0.028100
     31 HN11       -0.0510   -2.6070   -0.0020 hn        1 18E      0.307700
@<TRIPOS>BOND
     1    1    2 1   
     2    1    3 ar  
     3    1    7 ar  
     4    2   21 1   
     5    3    4 ar  
     6    3   22 1   
     7    4    5 ar  
     8    4   23 1   
     9    5    6 ar  
    10    5    8 ar  
    11    6    7 ar  
    12    6   11 ar  
    13    7   24 1   
    14    8    9 ar  
    15    8   12 1   
    16    9   10 ar  
    17    9   14 1   
    18   10   11 ar  
    19   10   25 1   
    20   11   26 1   
    21   12   13 1   
    22   12   31 1   
    23   13   14 ar  
    24   13   15 ar  
    25   14   19 ar  
    26   15   16 1   
    27   15   17 ar  
    28   16   27 1   
    29   16   28 1   
    30   16   29 1   
    31   17   18 ar  
    32   17   30 1   
    33   18   19 ar  
    34   19   20 1   
@<TRIPOS>SUBSTRUCTURE
     1 18E         1 TEMP              0 ****  ****    0 ROOT
