@<TRIPOS>MOLECULE
18E
   31    23     1     0     0
SMALL
bcc


@<TRIPOS>ATOM
      1 C1          0.1140    0.7060   -2.6990 c1        1 18E      0.008000
      2 O1         -0.3990    0.5130   -4.0030 o         1 18E     -0.255000
      3 C2          1.5130    0.7060   -2.6970 c2        1 18E     -0.122000
      4 C3          2.2130    0.6970   -1.4880 c1        1 18E     -0.121000
      5 C4          1.5020    0.6870   -0.2500 c1        1 18E     -0.026000
      6 C5          0.1220    0.6870   -0.2550 c1        1 18E     -0.170000
      7 C6         -0.5870    0.6970   -1.4920 c1        1 18E     -0.012000
      8 C7          2.2200   -0.5560   -0.0890 c1        1 18E      0.303000
      9 C8          1.5430   -1.7450    0.0590 c1        1 18E     -0.491000
     10 C9          0.1170   -1.7590    0.0550 c1        1 18E      0.060000
     11 C10        -0.5940   -0.5530   -0.1000 c1        1 18E     -0.189000
     12 N11         1.3500    0.4650    0.2810 n1        1 18E     -0.193000
     13 C12         0.1380   -0.1100    0.6560 c1        1 18E      0.120000
     14 C13         0.2480   -1.4540    0.5240 c1        1 18E     -0.026000
     15 C14        -0.8300    0.4290    1.5030 c1        1 18E     -0.136000
     16 C15        -1.0260    1.6480    2.4170 c3        1 18E     -0.177000
     17 C16        -1.6830   -0.4160    2.2120 c1        1 18E     -0.069000
     18 N17        -1.5700   -1.7760    2.0780 n1        1 18E     -0.136000
     19 C18        -0.6190   -2.3080    1.2450 c1        1 18E      0.046000
     20 CL18       -0.6940   -3.8740    2.0190 cl        1 18E      0.028000
     21 HO1        -0.7670    1.2710   -4.2930 ho        1 18E      0.216000
     22 H2          2.0050    0.7220   -3.5480 ha        1 18E      0.155000
     23 H3          3.1970    0.6970   -1.4890 ha        1 18E      0.154000
     24 H6         -1.5690    0.7530   -1.4950 ha        1 18E      0.135000
     25 H9         -0.3670   -2.6210    0.0460 ha        1 18E      0.152000
     26 H10        -1.5770   -0.5690   -0.1870 ha        1 18E      0.130000
     27 H15        -0.7890    1.4060    3.3410 hc        1 18E      0.091000
     28 H15A       -1.9660    1.9350    2.3830 hc        1 18E      0.091000
     29 H15B       -0.4480    2.3820    2.1120 hc        1 18E      0.091000
     30 H16        -2.3650   -0.0360    2.8090 ha        1 18E      0.168000
     31 HN11        1.5680    1.3740    0.3450 DU        1 18E      0.176000
@<TRIPOS>BOND
     1    1    3 1   
     2    1    7 1   
     3    2   21 1   
     4    3    4 1   
     5    3   22 1   
     6    4   23 1   
     7    5    6 1   
     8    5    8 1   
     9    6   11 1   
    10    7   24 1   
    11    9   10 1   
    12   10   25 1   
    13   11   26 1   
    14   12   13 1   
    15   13   15 1   
    16   14   19 1   
    17   15   16 1   
    18   16   27 1   
    19   16   28 1   
    20   16   29 1   
    21   17   18 1   
    22   17   30 1   
    23   19   20 1   
@<TRIPOS>SUBSTRUCTURE
     1 18E         1 TEMP              0 ****  ****    0 ROOT
