@<TRIPOS>MOLECULE
18E
   31    34     1     0     0
SMALL
bcc


@<TRIPOS>ATOM
      1 C1          0.0640   -0.0840   -0.0540 ca        1 18E      0.137100
      2 O1         -0.5330   -0.1020   -1.2930 oh        1 18E     -0.495100
      3 C2          1.4870   -0.0640   -0.0630 ca        1 18E     -0.144000
      4 C3          2.1620   -0.0450    1.1310 ca        1 18E     -0.087000
      5 C4          1.4630   -0.0460    2.3650 ca        1 18E     -0.072000
      6 C5          0.0420   -0.0670    2.3710 ca        1 18E      0.030000
      7 C6         -0.6480   -0.0860    1.1310 ca        1 18E     -0.220000
      8 C7          2.1100   -0.0280    3.6310 ca        1 18E      0.008800
      9 C8          1.3650   -0.0300    4.8550 cp        1 18E     -0.083000
     10 C9         -0.0400   -0.0510    4.8160 ca        1 18E     -0.053000
     11 C10        -0.6800   -0.0690    3.6010 ca        1 18E     -0.162000
     12 N11         3.4820   -0.0060    3.9160 na        1 18E     -0.174300
     13 C12         3.6400    0.0060    5.3020 ca        1 18E      0.013800
     14 C13         2.3310   -0.0080    5.9300 cp        1 18E     -0.175300
     15 C14         4.8060    0.0290    6.0860 ca        1 18E     -0.215600
     16 C15         6.1530    0.0440    5.4880 c3        1 18E     -0.044800
     17 C16         4.6040    0.0360    7.4780 ca        1 18E      0.423200
     18 N17         3.4050    0.0230    8.0960 nb        1 18E     -0.676000
     19 C18         2.2890    0.0010    7.3350 ca        1 18E      0.537300
     20 CL18        0.7730   -0.0150    8.1290 cl        1 18E     -0.150000
     21 HO1        -1.4930   -0.1150   -1.1630 ho        1 18E      0.422000
     22 H2          2.0100   -0.0630   -1.0300 ha        1 18E      0.154000
     23 H3          3.2620   -0.0290    1.1330 ha        1 18E      0.127000
     24 H6         -1.7470   -0.1020    1.1320 ha        1 18E      0.139000
     25 H9         -0.6090   -0.0520    5.7580 ha        1 18E      0.148000
     26 H10        -1.7790   -0.0850    3.5550 ha        1 18E      0.136000
     27 H15         6.9440    0.0610    6.2790 hc        1 18E      0.046367
     28 H15A        6.3110   -0.8650    4.8540 hc        1 18E      0.046367
     29 H15B        6.2850    0.9480    4.8420 hc        1 18E      0.046367
     30 H16         5.4720    0.0530    8.1620 h4        1 18E      0.028100
     31 HN11        4.2120   -0.0000    3.2560 hn        1 18E      0.307700
@<TRIPOS>BOND
     1    1    2 1   
     2    1    3 ar  
     3    1    7 ar  
     4    2   21 1   
     5    3    4 ar  
     6    3   22 1   
     7    4    5 ar  
     8    4   23 1   
     9    5    6 ar  
    10    5    8 ar  
    11    6    7 ar  
    12    6   11 ar  
    13    7   24 1   
    14    8    9 ar  
    15    8   12 1   
    16    9   10 ar  
    17    9   14 1   
    18   10   11 ar  
    19   10   25 1   
    20   11   26 1   
    21   12   13 1   
    22   12   31 1   
    23   13   14 ar  
    24   13   15 ar  
    25   14   19 ar  
    26   15   16 1   
    27   15   17 ar  
    28   16   27 1   
    29   16   28 1   
    30   16   29 1   
    31   17   18 ar  
    32   17   30 1   
    33   18   19 ar  
    34   19   20 1   
@<TRIPOS>SUBSTRUCTURE
     1 18E         1 TEMP              0 ****  ****    0 ROOT
