@<TRIPOS>MOLECULE
18F
   38    41     1     0     0
SMALL
bcc


@<TRIPOS>ATOM
      1 CAR         0.1110   -0.5000    0.0840 ca        1 18F     -0.112500
      2 CAS         1.5050   -0.4820    0.0670 ca        1 18F     -0.130500
      3 CAT         2.2110    0.1270    1.1050 ca        1 18F     -0.121000
      4 CAU         1.5190    0.7190    2.1620 ca        1 18F     -0.130500
      5 CAV         0.1260    0.6980    2.1840 ca        1 18F     -0.112500
      6 CAQ        -0.5850    0.0880    1.1450 ca        1 18F     -0.121300
      7 CAP        -2.0860    0.0170    1.1780 c3        1 18F      0.091600
      8 NAE        -2.7760    1.2650    1.3240 na        1 18F     -0.159300
      9 CAD        -2.9850    1.9440    2.5370 ca        1 18F     -0.073200
     10 CAI        -2.8770    1.5510    3.8760 ca        1 18F     -0.139000
     11 CAH        -3.2170    2.4820    4.8470 ca        1 18F     -0.114000
     12 CAG        -3.6570    3.7740    4.5130 ca        1 18F     -0.154000
     13 CAF        -3.7760    4.1860    3.1930 ca        1 18F     -0.068000
     14 CAC        -3.4400    3.2770    2.1810 ca        1 18F      0.066400
     15 NAB        -3.4680    3.4050    0.7780 nc        1 18F     -0.553100
     16 CAA        -3.0550    2.2140    0.2950 cd        1 18F      0.472400
     17 CAJ        -2.9490    1.8860   -1.1320 ca        1 18F     -0.111900
     18 CAK        -3.6590    0.8040   -1.6670 ca        1 18F     -0.099000
     19 CAL        -3.5650    0.5210   -3.0280 ca        1 18F     -0.136000
     20 CAM        -2.7710    1.3140   -3.8570 ca        1 18F     -0.117000
     21 CAN        -2.0720    2.3970   -3.3250 ca        1 18F     -0.136000
     22 CAO        -2.1600    2.6900   -1.9640 ca        1 18F     -0.099000
     23 H1         -0.4390   -0.9760   -0.7420 ha        1 18F      0.138000
     24 H2          2.0480   -0.9470   -0.7690 ha        1 18F      0.134000
     25 H3          3.3100    0.1430    1.0880 ha        1 18F      0.133000
     26 H4          2.0720    1.2030    2.9800 ha        1 18F      0.134000
     27 H5         -0.4200    1.1680    3.0180 ha        1 18F      0.138000
     28 H6         -2.3880   -0.6390    2.0480 h1        1 18F      0.069200
     29 H7         -2.4570   -0.4630    0.2250 h1        1 18F      0.069200
     30 H8         -2.5400    0.5410    4.1460 ha        1 18F      0.135000
     31 H9         -3.1420    2.2030    5.9090 ha        1 18F      0.131000
     32 H10        -3.9150    4.4730    5.3220 ha        1 18F      0.133000
     33 H11        -4.1270    5.1960    2.9380 ha        1 18F      0.148000
     34 H12        -4.3020    0.1900   -1.0190 ha        1 18F      0.145000
     35 H13        -4.1260   -0.3260   -3.4500 ha        1 18F      0.136000
     36 H14        -2.7000    1.0880   -4.9310 ha        1 18F      0.134000
     37 H15        -1.4510    3.0280   -3.9780 ha        1 18F      0.136000
     38 H16        -1.6190    3.5510   -1.5430 ha        1 18F      0.145000
@<TRIPOS>BOND
     1    1    2 ar  
     2    1    6 ar  
     3    1   23 1   
     4    2    3 ar  
     5    2   24 1   
     6    3    4 ar  
     7    3   25 1   
     8    4    5 ar  
     9    4   26 1   
    10    5    6 ar  
    11    5   27 1   
    12    6    7 1   
    13    7    8 1   
    14    7   28 1   
    15    7   29 1   
    16    8    9 1   
    17    8   16 1   
    18    9   10 ar  
    19    9   14 ar  
    20   10   11 ar  
    21   10   30 1   
    22   11   12 ar  
    23   11   31 1   
    24   12   13 ar  
    25   12   32 1   
    26   13   14 ar  
    27   13   33 1   
    28   14   15 1   
    29   15   16 2   
    30   16   17 1   
    31   17   18 ar  
    32   17   22 ar  
    33   18   19 ar  
    34   18   34 1   
    35   19   20 ar  
    36   19   35 1   
    37   20   21 ar  
    38   20   36 1   
    39   21   22 ar  
    40   21   37 1   
    41   22   38 1   
@<TRIPOS>SUBSTRUCTURE
     1 18F         1 TEMP              0 ****  ****    0 ROOT
