@<TRIPOS>MOLECULE
18F
   38    41     1     0     0
SMALL
bcc


@<TRIPOS>ATOM
      1 CAR        -1.3940   -2.6370    0.3340 ca        1 18F     -0.112500
      2 CAS        -1.5580   -3.7470   -0.4930 ca        1 18F     -0.130500
      3 CAT        -0.4820   -4.2310   -1.2370 ca        1 18F     -0.121000
      4 CAU         0.7610   -3.6030   -1.1520 ca        1 18F     -0.130500
      5 CAV         0.9290   -2.4960   -0.3210 ca        1 18F     -0.112500
      6 CAQ        -0.1480   -2.0080    0.4260 ca        1 18F     -0.121300
      7 CAP         0.0290   -0.8440    1.3610 c3        1 18F      0.091600
      8 NAE         0.5660    0.3540    0.7860 na        1 18F     -0.159300
      9 CAD         1.9270    0.6040    0.5440 ca        1 18F     -0.073200
     10 CAI         3.1000   -0.0140    0.9940 ca        1 18F     -0.139000
     11 CAH         4.3100    0.5350    0.5910 ca        1 18F     -0.114000
     12 CAG         4.3680    1.6700   -0.2360 ca        1 18F     -0.154000
     13 CAF         3.2210    2.3020   -0.6910 ca        1 18F     -0.068000
     14 CAC         1.9780    1.7780   -0.3100 ca        1 18F      0.066400
     15 NAB         0.6670    2.2020   -0.6030 nc        1 18F     -0.553100
     16 CAA        -0.1480    1.3380    0.0370 cd        1 18F      0.472400
     17 CAJ        -1.6140    1.4130    0.0270 ca        1 18F     -0.111900
     18 CAK        -2.3280    1.5240    1.2260 ca        1 18F     -0.099000
     19 CAL        -3.7190    1.6170    1.1960 ca        1 18F     -0.136000
     20 CAM        -4.3970    1.6030   -0.0230 ca        1 18F     -0.117000
     21 CAN        -3.6840    1.5020   -1.2170 ca        1 18F     -0.136000
     22 CAO        -2.2920    1.4090   -1.1980 ca        1 18F     -0.099000
     23 H1         -2.2490   -2.2560    0.9130 ha        1 18F      0.138000
     24 H2         -2.5390   -4.2390   -0.5610 ha        1 18F      0.134000
     25 H3         -0.6130   -5.1040   -1.8920 ha        1 18F      0.133000
     26 H4          1.6110   -3.9790   -1.7400 ha        1 18F      0.134000
     27 H5          1.9100   -1.9980   -0.2560 ha        1 18F      0.138000
     28 H6         -0.9690   -0.5800    1.8200 h1        1 18F      0.069200
     29 H7          0.7290   -1.1630    2.1900 h1        1 18F      0.069200
     30 H8          3.0640   -0.8970    1.6450 ha        1 18F      0.135000
     31 H9          5.2490    0.0710    0.9280 ha        1 18F      0.131000
     32 H10         5.3540    2.0650   -0.5250 ha        1 18F      0.133000
     33 H11         3.2740    3.1930   -1.3330 ha        1 18F      0.148000
     34 H12        -1.7940    1.5560    2.1870 ha        1 18F      0.145000
     35 H13        -4.2800    1.7090    2.1370 ha        1 18F      0.136000
     36 H14        -5.4940    1.6780   -0.0420 ha        1 18F      0.134000
     37 H15        -4.2170    1.4990   -2.1790 ha        1 18F      0.136000
     38 H16        -1.7260    1.3410   -2.1390 ha        1 18F      0.145000
@<TRIPOS>BOND
     1    1    2 ar  
     2    1    6 ar  
     3    1   23 1   
     4    2    3 ar  
     5    2   24 1   
     6    3    4 ar  
     7    3   25 1   
     8    4    5 ar  
     9    4   26 1   
    10    5    6 ar  
    11    5   27 1   
    12    6    7 1   
    13    7    8 1   
    14    7   28 1   
    15    7   29 1   
    16    8    9 1   
    17    8   16 1   
    18    9   10 ar  
    19    9   14 ar  
    20   10   11 ar  
    21   10   30 1   
    22   11   12 ar  
    23   11   31 1   
    24   12   13 ar  
    25   12   32 1   
    26   13   14 ar  
    27   13   33 1   
    28   14   15 1   
    29   15   16 2   
    30   16   17 1   
    31   17   18 ar  
    32   17   22 ar  
    33   18   19 ar  
    34   18   34 1   
    35   19   20 ar  
    36   19   35 1   
    37   20   21 ar  
    38   20   36 1   
    39   21   22 ar  
    40   21   37 1   
    41   22   38 1   
@<TRIPOS>SUBSTRUCTURE
     1 18F         1 TEMP              0 ****  ****    0 ROOT
