@<TRIPOS>MOLECULE
18F
   38    29     1     0     0
SMALL
bcc


@<TRIPOS>ATOM
      1 CAR         2.4060    0.7640   -2.5160 c1        1 18F     -0.094333
      2 CAS         3.7200    1.1470   -2.7630 c1        1 18F     -0.126700
      3 CAT         4.7030    0.9270   -1.8010 c1        1 18F     -0.126700
      4 CAU         4.3700    0.3230   -0.5930 c1        1 18F     -0.126700
      5 CAV         3.0560   -0.0600   -0.3450 c1        1 18F     -0.126700
      6 CAQ         2.0730    0.1600   -1.3070 c1        1 18F     -0.071667
      7 CAP         0.6370   -0.3400   -1.0670 c2        1 18F      0.024000
      8 NAE         0.0370    0.4150   -0.0010 n3        1 18F     -0.190000
      9 CAD        -0.5320    1.6080    0.3240 c1        1 18F     -0.023000
     10 CAI        -0.4140    2.8930   -0.2510 c1        1 18F     -0.130000
     11 CAH        -1.2360    3.9260    0.1820 c1        1 18F     -0.126700
     12 CAG        -2.1730    3.6960    1.1820 c1        1 18F     -0.126700
     13 CAF        -2.2890    2.4300    1.7490 c1        1 18F     -0.094333
     14 CAC        -1.4540    1.3800    1.3090 c1        1 18F     -0.071667
     15 NAB        -1.4520    0.0460    1.5880 n1        1 18F     -0.131000
     16 CAA        -0.5310   -0.5510    0.7800 c1        1 18F      0.058000
     17 CAJ        -1.3270   -1.8640    0.8790 c1        1 18F     -0.071667
     18 CAK        -0.8700   -2.8930    1.6990 c1        1 18F     -0.126700
     19 CAL        -1.6310   -4.0470    1.8560 c1        1 18F     -0.126700
     20 CAM        -2.8480   -4.1730    1.1940 c1        1 18F     -0.126700
     21 CAN        -3.3040   -3.1460    0.3740 c1        1 18F     -0.126700
     22 CAO        -2.5440   -1.9910    0.2170 c1        1 18F     -0.094333
     23 H1          1.7140    0.9190   -3.1930 ha        1 18F      0.143667
     24 H2          3.9550    1.5740   -3.6170 ha        1 18F      0.136400
     25 H3          5.6320    1.1970   -1.9760 ha        1 18F      0.136400
     26 H4          5.0630    0.1680    0.0860 ha        1 18F      0.136400
     27 H5          2.8220   -0.4870    0.5100 ha        1 18F      0.136400
     28 H6          0.1060   -0.2240   -1.8910 h4        1 18F      0.111500
     29 H7          0.6580   -1.2950   -0.8220 h4        1 18F      0.111500
     30 H8          0.2490    3.0570   -0.9590 ha        1 18F      0.138000
     31 H9         -1.1540    4.8180   -0.2180 ha        1 18F      0.136400
     32 H10        -2.7510    4.4230    1.4870 ha        1 18F      0.136400
     33 H11        -2.9500    2.2680    2.4550 ha        1 18F      0.143667
     34 H12        -0.0120   -2.8040    2.1660 ha        1 18F      0.136400
     35 H13        -1.3090   -4.7720    2.4340 ha        1 18F      0.136400
     36 H14        -3.3860   -4.9900    1.3050 ha        1 18F      0.136400
     37 H15        -4.1670   -3.2360   -0.0950 ha        1 18F      0.136400
     38 H16        -2.8660   -1.2670   -0.3610 ha        1 18F      0.143667
@<TRIPOS>BOND
     1    1    6 1   
     2    1   23 1   
     3    2    3 1   
     4    2   24 1   
     5    3   25 1   
     6    4    5 1   
     7    4   26 1   
     8    5   27 1   
     9    7    8 1   
    10    7   28 1   
    11    7   29 1   
    12    8    9 1   
    13    8   16 1   
    14    9   10 1   
    15   10   30 1   
    16   11   12 1   
    17   11   31 1   
    18   12   32 1   
    19   13   14 1   
    20   13   33 1   
    21   15   16 1   
    22   17   22 1   
    23   18   19 1   
    24   18   34 1   
    25   19   35 1   
    26   20   21 1   
    27   20   36 1   
    28   21   37 1   
    29   22   38 1   
@<TRIPOS>SUBSTRUCTURE
     1 18F         1 TEMP              0 ****  ****    0 ROOT
