@<TRIPOS>MOLECULE
18G
   53    55     1     0     0
SMALL
bcc


@<TRIPOS>ATOM
      1 N2          0.7480   -0.2510    2.1610 nv        1 18G     -0.931500
      2 C14         1.9950   -0.2490    1.5290 ca        1 18G      0.913900
      3 N1          3.1000   -0.4920    2.3200 nb        1 18G     -0.837000
      4 C13         4.3240   -0.3700    1.7140 ca        1 18G      0.752200
      5 N           5.4600   -0.5300    2.4740 nv        1 18G     -0.965500
      6 N3          2.0160    0.0440    0.1680 nb        1 18G     -0.795000
      7 C15         3.2300    0.1380   -0.4080 ca        1 18G      0.535600
      8 C16         3.3100    0.4700   -1.8660 c3        1 18G     -0.156400
      9 C12         4.4360   -0.0560    0.3070 ca        1 18G     -0.339600
     10 C11         5.6950    0.0300   -0.2890 cg        1 18G     -0.082000
     11 C10         6.8070    0.0860   -0.7340 c1        1 18G     -0.145100
     12 C8          8.1490    0.1470   -1.2480 c3        1 18G      0.084700
     13 C9          8.8370    1.4450   -0.8410 c3        1 18G     -0.087100
     14 C7          8.9620   -1.0400   -0.8100 ca        1 18G     -0.056300
     15 C1          9.1810   -1.3650    0.5440 ca        1 18G      0.096100
     16 O           8.5490   -0.5720    1.4920 os        1 18G     -0.337900
     17 C           9.1530   -0.5520    2.7810 c3        1 18G      0.107700
     18 C6          9.5380   -1.8570   -1.7850 ca        1 18G     -0.171000
     19 C4         10.3240   -2.9610   -1.4320 ca        1 18G      0.109100
     20 O1         10.9480   -3.7640   -2.3700 os        1 18G     -0.325900
     21 C5         10.4080   -3.7220   -3.6870 c3        1 18G      0.112700
     22 C3         10.5450   -3.2860   -0.0760 cp        1 18G     -0.025000
     23 C2          9.9620   -2.4690    0.9000 ca        1 18G     -0.160000
     24 C17        11.3500   -4.4330    0.3390 cp        1 18G     -0.033000
     25 C22        12.5720   -4.7210   -0.2850 ca        1 18G     -0.109000
     26 C21        13.3400   -5.8040    0.1380 ca        1 18G     -0.135500
     27 C20        12.8970   -6.6130    1.1840 ca        1 18G     -0.125000
     28 C19        11.6790   -6.3370    1.8060 ca        1 18G     -0.135500
     29 C18        10.9090   -5.2540    1.3890 ca        1 18G     -0.109000
     30 H1          0.6940   -0.6890    3.0500 hn        1 18G      0.427300
     31 H2         -0.0500   -0.3310    1.5750 hn        1 18G      0.427300
     32 H3          5.3930   -0.8560    3.4050 hn        1 18G      0.446300
     33 H4          6.3380   -0.5660    2.0090 hn        1 18G      0.446300
     34 H5          3.5560    1.5570   -1.9740 hc        1 18G      0.060033
     35 H6          2.3490    0.2680   -2.3980 hc        1 18G      0.060033
     36 H7          4.1230   -0.1310   -2.3420 hc        1 18G      0.060033
     37 H8          8.0810    0.1340   -2.3800 hc        1 18G      0.062700
     38 H9          9.8520    1.4960   -1.3010 hc        1 18G      0.044700
     39 H10         8.2370    2.3200   -1.1880 hc        1 18G      0.044700
     40 H11         8.9400    1.4960    0.2700 hc        1 18G      0.044700
     41 H12         8.9240   -1.5000    3.3270 h1        1 18G      0.045033
     42 H13        10.2560   -0.3980    2.7120 h1        1 18G      0.045033
     43 H14         8.6610    0.3190    3.2870 h1        1 18G      0.045033
     44 H15         9.3700   -1.6200   -2.8470 ha        1 18G      0.142000
     45 H16        10.9040   -4.5850   -4.1990 h1        1 18G      0.044700
     46 H17        10.6840   -2.7610   -4.1860 h1        1 18G      0.044700
     47 H18         9.3000   -3.8540   -3.6740 h1        1 18G      0.044700
     48 H19        10.1310   -2.7110    1.9600 ha        1 18G      0.145000
     49 H20        12.9150   -4.0910   -1.1210 ha        1 18G      0.139000
     50 H21        14.2980   -6.0200   -0.3570 ha        1 18G      0.131000
     51 H22        13.5040   -7.4670    1.5160 ha        1 18G      0.130000
     52 H23        11.3230   -6.9780    2.6260 ha        1 18G      0.131000
     53 H24         9.9450   -5.0460    1.8760 ha        1 18G      0.139000
@<TRIPOS>BOND
     1    1    2 1   
     2    1   30 1   
     3    1   31 1   
     4    2    3 ar  
     5    2    6 ar  
     6    3    4 ar  
     7    4    5 1   
     8    4    9 ar  
     9    5   32 1   
    10    5   33 1   
    11    6    7 ar  
    12    7    8 1   
    13    7    9 ar  
    14    8   34 1   
    15    8   35 1   
    16    8   36 1   
    17    9   10 1   
    18   10   11 3   
    19   11   12 1   
    20   12   13 1   
    21   12   14 1   
    22   12   37 1   
    23   13   38 1   
    24   13   39 1   
    25   13   40 1   
    26   14   15 ar  
    27   14   18 ar  
    28   15   16 1   
    29   15   23 ar  
    30   16   17 1   
    31   17   41 1   
    32   17   42 1   
    33   17   43 1   
    34   18   19 ar  
    35   18   44 1   
    36   19   20 1   
    37   19   22 ar  
    38   20   21 1   
    39   21   45 1   
    40   21   46 1   
    41   21   47 1   
    42   22   23 ar  
    43   22   24 1   
    44   23   48 1   
    45   24   25 ar  
    46   24   29 ar  
    47   25   26 ar  
    48   25   49 1   
    49   26   27 ar  
    50   26   50 1   
    51   27   28 ar  
    52   27   51 1   
    53   28   29 ar  
    54   28   52 1   
    55   29   53 1   
@<TRIPOS>SUBSTRUCTURE
     1 18G         1 TEMP              0 ****  ****    0 ROOT
