@<TRIPOS>MOLECULE
18G
   53    55     1     0     0
SMALL
bcc


@<TRIPOS>ATOM
      1 N2          0.5590   -0.9230    1.3300 nh        1 18G     -0.929500
      2 C14         1.8230   -0.6460    0.7990 ca        1 18G      0.911900
      3 N1          2.4100    0.5490    1.1660 nb        1 18G     -0.833000
      4 C13         3.6890    0.7650    0.7210 ca        1 18G      0.745200
      5 N           4.2980    1.9680    1.0060 nh        1 18G     -0.959500
      6 N3          2.4020   -1.6220   -0.0060 nb        1 18G     -0.793000
      7 C15         3.6650   -1.3950   -0.4160 ca        1 18G      0.534600
      8 C16         4.3470   -2.4310   -1.2550 c3        1 18G     -0.156400
      9 C12         4.3800   -0.2210   -0.0780 ca        1 18G     -0.335600
     10 C11         5.6970    0.0080   -0.4820 cg        1 18G     -0.084000
     11 C10         6.8270    0.2660   -0.7900 c1        1 18G     -0.141100
     12 C8          8.1800    0.5950   -1.1480 c3        1 18G      0.084700
     13 C9          8.2190    1.6120   -2.2820 c3        1 18G     -0.087100
     14 C7          8.9600    1.0960    0.0370 ca        1 18G     -0.058300
     15 C1          8.5690    2.2200    0.7940 ca        1 18G      0.098100
     16 O           7.3740    2.8250    0.4340 os        1 18G     -0.333900
     17 C           7.1490    4.1290    0.9580 c3        1 18G      0.106700
     18 C6         10.1280    0.4260    0.4050 ca        1 18G     -0.171000
     19 C4         10.9030    0.8640    1.4850 ca        1 18G      0.108100
     20 O1         12.0510    0.2110    1.9000 os        1 18G     -0.323900
     21 C5         12.6220   -0.7050    0.9730 c3        1 18G      0.112700
     22 C3         10.5240    2.0010    2.2310 cp        1 18G     -0.024000
     23 C2          9.3440    2.6630    1.8710 ca        1 18G     -0.164000
     24 C17        11.3090    2.5040    3.3580 cp        1 18G     -0.032000
     25 C22        11.5260    3.8830    3.4980 ca        1 18G     -0.109000
     26 C21        12.2550    4.3740    4.5790 ca        1 18G     -0.135500
     27 C20        12.7720    3.4970    5.5330 ca        1 18G     -0.125000
     28 C19        12.5620    2.1250    5.3980 ca        1 18G     -0.135500
     29 C18        11.8370    1.6280    4.3160 ca        1 18G     -0.109000
     30 H1          0.0430   -0.1520    1.6830 hn        1 18G      0.426800
     31 H2          0.0370   -1.6410    0.8850 hn        1 18G      0.426800
     32 H3          3.8960    2.5690    1.6840 hn        1 18G      0.441300
     33 H4          5.2730    2.0480    0.8210 hn        1 18G      0.441300
     34 H5          4.9450   -1.9290   -2.0540 hc        1 18G      0.059700
     35 H6          5.0400   -3.0210   -0.6050 hc        1 18G      0.059700
     36 H7          3.6200   -3.1330   -1.7320 hc        1 18G      0.059700
     37 H8          8.6730   -0.3560   -1.5210 hc        1 18G      0.062700
     38 H9          7.6570    1.2220   -3.1630 hc        1 18G      0.044700
     39 H10         7.7530    2.5730   -1.9550 hc        1 18G      0.044700
     40 H11         9.2760    1.8060   -2.5810 hc        1 18G      0.044700
     41 H12         6.9480    4.0770    2.0570 h1        1 18G      0.045367
     42 H13         8.0140    4.8030    0.7510 h1        1 18G      0.045367
     43 H14         6.2360    4.4750    0.4090 h1        1 18G      0.045367
     44 H15        10.4360   -0.4610   -0.1700 ha        1 18G      0.142000
     45 H16        13.6070   -0.9640    1.4380 h1        1 18G      0.044700
     46 H17        11.9810   -1.6160    0.8830 h1        1 18G      0.044700
     47 H18        12.7700   -0.2290   -0.0260 h1        1 18G      0.044700
     48 H19         9.0340    3.5390    2.4600 ha        1 18G      0.145000
     49 H20        11.1270    4.5780    2.7450 ha        1 18G      0.138000
     50 H21        12.4240    5.4560    4.6780 ha        1 18G      0.131000
     51 H22        13.3450    3.8870    6.3860 ha        1 18G      0.130000
     52 H23        12.9710    1.4300    6.1460 ha        1 18G      0.131000
     53 H24        11.6840    0.5430    4.2030 ha        1 18G      0.138000
@<TRIPOS>BOND
     1    1    2 1   
     2    1   30 1   
     3    1   31 1   
     4    2    3 ar  
     5    2    6 ar  
     6    3    4 ar  
     7    4    5 1   
     8    4    9 ar  
     9    5   32 1   
    10    5   33 1   
    11    6    7 ar  
    12    7    8 1   
    13    7    9 ar  
    14    8   34 1   
    15    8   35 1   
    16    8   36 1   
    17    9   10 1   
    18   10   11 3   
    19   11   12 1   
    20   12   13 1   
    21   12   14 1   
    22   12   37 1   
    23   13   38 1   
    24   13   39 1   
    25   13   40 1   
    26   14   15 ar  
    27   14   18 ar  
    28   15   16 1   
    29   15   23 ar  
    30   16   17 1   
    31   17   41 1   
    32   17   42 1   
    33   17   43 1   
    34   18   19 ar  
    35   18   44 1   
    36   19   20 1   
    37   19   22 ar  
    38   20   21 1   
    39   21   45 1   
    40   21   46 1   
    41   21   47 1   
    42   22   23 ar  
    43   22   24 1   
    44   23   48 1   
    45   24   25 ar  
    46   24   29 ar  
    47   25   26 ar  
    48   25   49 1   
    49   26   27 ar  
    50   26   50 1   
    51   27   28 ar  
    52   27   51 1   
    53   28   29 ar  
    54   28   52 1   
    55   29   53 1   
@<TRIPOS>SUBSTRUCTURE
     1 18G         1 TEMP              0 ****  ****    0 ROOT
