@<TRIPOS>MOLECULE
18G
   55    57     1     0     0
SMALL
bcc


@<TRIPOS>ATOM
      1 N2          0.3730   -1.4850    1.1390 n4        1 18G     -0.812300
      2 C14         1.6890   -0.9490    0.6820 ca        1 18G      0.720900
      3 N1          2.0670    0.2600    1.1760 nb        1 18G     -0.657000
      4 C13         3.2800    0.7090    0.7300 ca        1 18G      0.477200
      5 N           3.7520    2.0180    1.2140 n4        1 18G     -0.813300
      6 N3          2.3830   -1.7490   -0.2040 nb        1 18G     -0.638000
      7 C15         3.5740   -1.2950   -0.6300 ca        1 18G      0.534600
      8 C16         4.3890   -2.1070   -1.5780 c3        1 18G     -0.181400
      9 C12         4.0940   -0.0220   -0.1780 ca        1 18G     -0.015600
     10 C11         5.3140    0.4960   -0.5780 cg        1 18G     -0.329000
     11 C10         6.3580    1.0220   -0.8760 c1        1 18G      0.170900
     12 C8          7.5850    1.7300   -1.1400 c3        1 18G      0.025700
     13 C9          7.5200    2.4690   -2.4710 c3        1 18G     -0.090100
     14 C7          7.8850    2.6650    0.0000 ca        1 18G     -0.082300
     15 C1          6.9580    3.5850    0.5100 ca        1 18G      0.020100
     16 O           5.6550    3.6240    0.0010 os        1 18G     -0.449900
     17 C           5.3470    4.8480   -0.6800 c3        1 18G      0.114700
     18 C6          9.1530    2.6050    0.5890 ca        1 18G     -0.187000
     19 C4          9.4930    3.4540    1.6510 ca        1 18G      0.160100
     20 O1         10.7140    3.4190    2.2760 os        1 18G     -0.300900
     21 C5         11.7660    2.7190    1.6120 c3        1 18G      0.103700
     22 C3          8.5560    4.3950    2.1590 cp        1 18G      0.008000
     23 C2          7.2930    4.4410    1.5680 ca        1 18G     -0.133000
     24 C17         8.8730    5.3070    3.2540 cp        1 18G     -0.079000
     25 C22         8.4680    6.6490    3.1800 ca        1 18G     -0.103000
     26 C21         8.7560    7.5270    4.2220 ca        1 18G     -0.127000
     27 C20         9.4450    7.0770    5.3490 ca        1 18G     -0.097000
     28 C19         9.8520    5.7450    5.4270 ca        1 18G     -0.127000
     29 C18         9.5730    4.8630    4.3850 ca        1 18G     -0.103000
     30 H1         -0.0840   -0.8280    1.7870 hn        1 18G      0.495800
     31 H2          0.5260   -2.3880    1.6140 hn        1 18G      0.495800
     32 H3          3.3040    2.2850    2.1000 hn        1 18G      0.495467
     33 H4          4.7840    1.9850    1.3350 hn        1 18G      0.495467
     34 H5          4.8100   -1.4400   -2.3740 hc        1 18G      0.107033
     35 H6          5.2400   -2.5760   -1.0170 hc        1 18G      0.107033
     36 H7          3.7950   -2.9230   -2.0640 hc        1 18G      0.107033
     37 H8          8.4170    0.9580   -1.2120 hc        1 18G      0.115700
     38 H9          7.3450    1.7520   -3.3080 hc        1 18G      0.065700
     39 H10         6.7000    3.2280   -2.4590 hc        1 18G      0.065700
     40 H11         8.4920    2.9940   -2.6440 hc        1 18G      0.065700
     41 H12         5.3020    5.6880    0.0550 h1        1 18G      0.057033
     42 H13         6.1100    5.0640   -1.4660 h1        1 18G      0.057033
     43 H14         4.3460    4.6580   -1.1400 h1        1 18G      0.057033
     44 H15         9.8950    1.8890    0.2010 ha        1 18G      0.157000
     45 H16        12.6650    2.9720    2.2320 h1        1 18G      0.061033
     46 H17        11.5700    1.6190    1.6320 h1        1 18G      0.061033
     47 H18        11.8920    3.0850    0.5650 h1        1 18G      0.061033
     48 H19         6.5540    5.1740    1.9300 ha        1 18G      0.153000
     49 H20         7.9410    7.0170    2.2870 ha        1 18G      0.135000
     50 H21         8.4460    8.5820    4.1520 ha        1 18G      0.148000
     51 H22         9.6740    7.7740    6.1700 ha        1 18G      0.151000
     52 H23        10.4040    5.3890    6.3110 ha        1 18G      0.148000
     53 H24         9.9150    3.8180    4.4420 ha        1 18G      0.135000
     54 H231       -0.2320   -1.6350    0.3160 hn        1 18G      0.495800
     55 HN3         3.5620    2.7400    0.4970 hn        1 18G      0.495467
@<TRIPOS>BOND
     1    1    2 1   
     2    1   30 1   
     3    1   31 1   
     4    1   54 1   
     5    2    3 ar  
     6    2    6 ar  
     7    3    4 ar  
     8    4    5 1   
     9    4    9 ar  
    10    5   32 1   
    11    5   33 1   
    12    5   55 1   
    13    6    7 ar  
    14    7    8 1   
    15    7    9 ar  
    16    8   34 1   
    17    8   35 1   
    18    8   36 1   
    19    9   10 1   
    20   10   11 3   
    21   11   12 1   
    22   12   13 1   
    23   12   14 1   
    24   12   37 1   
    25   13   38 1   
    26   13   39 1   
    27   13   40 1   
    28   14   15 ar  
    29   14   18 ar  
    30   15   16 1   
    31   15   23 ar  
    32   16   17 1   
    33   17   41 1   
    34   17   42 1   
    35   17   43 1   
    36   18   19 ar  
    37   18   44 1   
    38   19   20 1   
    39   19   22 ar  
    40   20   21 1   
    41   21   45 1   
    42   21   46 1   
    43   21   47 1   
    44   22   23 ar  
    45   22   24 1   
    46   23   48 1   
    47   24   25 ar  
    48   24   29 ar  
    49   25   26 ar  
    50   25   49 1   
    51   26   27 ar  
    52   26   50 1   
    53   27   28 ar  
    54   27   51 1   
    55   28   29 ar  
    56   28   52 1   
    57   29   53 1   
@<TRIPOS>SUBSTRUCTURE
     1 18G         1 TEMP              0 ****  ****    0 ROOT
