@<TRIPOS>MOLECULE
18H
   49    51     1     0     0
SMALL
bcc


@<TRIPOS>ATOM
      1 CAB         0.2110   -1.4720   -0.1180 c3        1 18H     -0.157400
      2 C6          1.5530   -0.8690    0.1550 ca        1 18H      0.535600
      3 N1          2.1140   -1.0550    1.3650 nb        1 18H     -0.790000
      4 C2          3.3580   -0.4660    1.5720 ca        1 18H      0.912900
      5 NAD         3.8990   -0.5500    2.8580 nh        1 18H     -0.930500
      6 N3          4.0800    0.2430    0.6310 nb        1 18H     -0.830000
      7 C4          3.4940    0.4020   -0.5970 ca        1 18H      0.741200
      8 NAE         4.2050    1.0450   -1.5910 nh        1 18H     -0.952500
      9 C5          2.1860   -0.1360   -0.8800 ca        1 18H     -0.336600
     10 CAF         1.5790    0.0620   -2.1230 cg        1 18H     -0.095000
     11 CAG         1.0690    0.2390   -3.1940 c1        1 18H     -0.143100
     12 CBA         0.4300    0.4740   -4.4640 c3        1 18H      0.071700
     13 CAC        -0.3540   -0.7530   -4.9140 c3        1 18H     -0.082100
     14 CAZ         1.4260    0.8670   -5.5170 ca        1 18H     -0.099300
     15 CAY         1.2000    1.9810   -6.3550 ca        1 18H      0.128100
     16 CAO         2.1260    2.3390   -7.3400 ca        1 18H     -0.195000
     17 OAR         0.0190    2.6680   -6.1320 os        1 18H     -0.330900
     18 CAA        -0.2080    3.8150   -6.9410 c3        1 18H      0.113700
     19 CAN         2.5960    0.1290   -5.7020 ca        1 18H     -0.094000
     20 CAM         3.5210    0.4750   -6.6840 ca        1 18H     -0.153000
     21 CAW         3.2930    1.5830   -7.5090 cp        1 18H     -0.003000
     22 CAV         4.2630    1.9530   -8.5400 cp        1 18H     -0.041000
     23 CAK         4.8830    0.9630   -9.3160 ca        1 18H     -0.117500
     24 CAI         5.8070    1.3150  -10.2980 ca        1 18H     -0.131000
     25 CAH         6.1240    2.6560  -10.5140 ca        1 18H     -0.126000
     26 CAJ         5.5130    3.6460   -9.7440 ca        1 18H     -0.131000
     27 CAL         4.5860    3.2990   -8.7630 ca        1 18H     -0.117500
     28 H1          0.3350   -2.3200   -0.8370 hc        1 18H      0.060700
     29 H2         -0.2800   -1.8570    0.8090 hc        1 18H      0.060700
     30 H3         -0.4510   -0.7010   -0.5860 hc        1 18H      0.060700
     31 H4          4.8690   -0.3580    2.9530 hn        1 18H      0.428800
     32 H5          3.5200   -1.2450    3.4580 hn        1 18H      0.428800
     33 H6          3.7000    1.3280   -2.3960 hn        1 18H      0.435300
     34 H7          5.0260    1.5490   -1.3540 hn        1 18H      0.435300
     35 H8         -0.3050    1.3270   -4.3250 hc        1 18H      0.087700
     36 H9         -1.1010   -1.0370   -4.1360 hc        1 18H      0.041700
     37 H10         0.3320   -1.6160   -5.0870 hc        1 18H      0.041700
     38 H11        -0.8920   -0.5250   -5.8660 hc        1 18H      0.041700
     39 H12         1.9460    3.2030   -7.9960 ha        1 18H      0.142000
     40 H13        -0.2790    3.5300   -8.0190 h1        1 18H      0.045367
     41 H14        -1.1920    4.2020   -6.5710 h1        1 18H      0.045367
     42 H15         0.5960    4.5750   -6.7880 h1        1 18H      0.045367
     43 H16         2.7850   -0.7410   -5.0530 ha        1 18H      0.145000
     44 H17         4.4380   -0.1200   -6.8070 ha        1 18H      0.139000
     45 H18         4.6320   -0.0960   -9.1510 ha        1 18H      0.135000
     46 H19         6.2850    0.5320  -10.9040 ha        1 18H      0.132500
     47 H20         6.8540    2.9320  -11.2880 ha        1 18H      0.132000
     48 H21         5.7630    4.7040   -9.9100 ha        1 18H      0.132500
     49 H22         4.1120    4.0820   -8.1540 ha        1 18H      0.135000
@<TRIPOS>BOND
     1    1    2 1   
     2    1   28 1   
     3    1   29 1   
     4    1   30 1   
     5    2    3 ar  
     6    2    9 ar  
     7    3    4 ar  
     8    4    5 1   
     9    4    6 ar  
    10    5   31 1   
    11    5   32 1   
    12    6    7 ar  
    13    7    8 1   
    14    7    9 ar  
    15    8   33 1   
    16    8   34 1   
    17    9   10 1   
    18   10   11 3   
    19   11   12 1   
    20   12   13 1   
    21   12   14 1   
    22   12   35 1   
    23   13   36 1   
    24   13   37 1   
    25   13   38 1   
    26   14   15 ar  
    27   14   19 ar  
    28   15   16 ar  
    29   15   17 1   
    30   16   21 ar  
    31   16   39 1   
    32   17   18 1   
    33   18   40 1   
    34   18   41 1   
    35   18   42 1   
    36   19   20 ar  
    37   19   43 1   
    38   20   21 ar  
    39   20   44 1   
    40   21   22 1   
    41   22   23 ar  
    42   22   27 ar  
    43   23   24 ar  
    44   23   45 1   
    45   24   25 ar  
    46   24   46 1   
    47   25   26 ar  
    48   25   47 1   
    49   26   27 ar  
    50   26   48 1   
    51   27   49 1   
@<TRIPOS>SUBSTRUCTURE
     1 18H         1 TEMP              0 ****  ****    0 ROOT
