@<TRIPOS>MOLECULE
18H
   51    53     1     0     0
SMALL
bcc


@<TRIPOS>ATOM
      1 CAB         0.5220   -1.5190   -0.1280 c3        1 18H     -0.181400
      2 C6          1.6360   -0.5330   -0.2300 ca        1 18H      0.534600
      3 N1          2.4500   -0.3240    0.8180 nb        1 18H     -0.638000
      4 C2          3.4650    0.5980    0.6470 ca        1 18H      0.719900
      5 NAD         4.3500    0.8060    1.8300 n4        1 18H     -0.812300
      6 N3          3.7400    1.3280   -0.4650 nb        1 18H     -0.657000
      7 C4          2.9010    1.1030   -1.5230 ca        1 18H      0.473200
      8 NAE         3.1430    1.8580   -2.7660 n4        1 18H     -0.820300
      9 C5          1.8210    0.1800   -1.4760 ca        1 18H     -0.013600
     10 CAF         1.0130    0.0060   -2.5860 cg        1 18H     -0.335000
     11 CAG         0.3560   -0.0930   -3.5940 c1        1 18H      0.172900
     12 CBA        -0.3410   -0.0990   -4.8570 c3        1 18H      0.031700
     13 CAC        -1.2040   -1.3400   -5.0110 c3        1 18H     -0.098100
     14 CAZ         0.6540    0.1120   -5.9630 ca        1 18H     -0.130300
     15 CAY         1.3880    1.3120   -6.0350 ca        1 18H      0.063100
     16 CAO         2.2850    1.5650   -7.0750 ca        1 18H     -0.154000
     17 OAR         1.2660    2.2500   -5.0040 os        1 18H     -0.453900
     18 CAA         0.5490    3.4310   -5.3930 c3        1 18H      0.120700
     19 CAN         0.8700   -0.8440   -6.9610 ca        1 18H     -0.088000
     20 CAM         1.7670   -0.6050   -7.9990 ca        1 18H     -0.113000
     21 CAW         2.4840    0.5990   -8.0720 cp        1 18H      0.035000
     22 CAV         3.4170    0.8470   -9.1670 cp        1 18H     -0.091000
     23 CAK         4.2310   -0.1880   -9.6510 ca        1 18H     -0.108500
     24 CAI         5.1140    0.0480  -10.7020 ca        1 18H     -0.122500
     25 CAH         5.1910    1.3140  -11.2830 ca        1 18H     -0.095000
     26 CAJ         4.3810    2.3470  -10.8090 ca        1 18H     -0.122500
     27 CAL         3.5000    2.1180   -9.7540 ca        1 18H     -0.108500
     28 H1          0.7850   -2.4290   -0.7310 hc        1 18H      0.107367
     29 H2          0.3270   -1.8390    0.9270 hc        1 18H      0.107367
     30 H3         -0.4130   -1.0690   -0.5510 hc        1 18H      0.107367
     31 H4          5.0830    1.4990    1.6210 hn        1 18H      0.495800
     32 H5          4.7880   -0.0930    2.0840 hn        1 18H      0.495800
     33 H6          3.7180    1.2880   -3.4020 hn        1 18H      0.495800
     34 H7          2.2290    2.0440   -3.2320 hn        1 18H      0.495800
     35 H8         -1.0310    0.8080   -4.8510 hc        1 18H      0.115700
     36 H9         -0.5900   -2.2710   -4.9680 hc        1 18H      0.068033
     37 H10        -1.7350   -1.3030   -5.9950 hc        1 18H      0.068033
     38 H11        -1.9690   -1.3770   -4.1980 hc        1 18H      0.068033
     39 H12         2.8230    2.5250   -7.1190 ha        1 18H      0.153000
     40 H13        -0.4990    3.1630   -5.6700 h1        1 18H      0.058700
     41 H14         0.5700    4.0750   -4.4800 h1        1 18H      0.058700
     42 H15         1.0660    3.9280   -6.2500 h1        1 18H      0.058700
     43 H16         0.3160   -1.7970   -6.9460 ha        1 18H      0.158000
     44 H17         1.9040   -1.3670   -8.7860 ha        1 18H      0.169000
     45 H18         4.1740   -1.1900   -9.2000 ha        1 18H      0.131500
     46 H19         5.7500   -0.7690  -11.0780 ha        1 18H      0.150500
     47 H20         5.8840    1.4970  -12.1190 ha        1 18H      0.154000
     48 H21         4.4320    3.3440  -11.2740 ha        1 18H      0.150500
     49 H22         2.8520    2.9330   -9.3980 ha        1 18H      0.131500
     50 HAD3        3.7780    1.1370    2.6230 hn        1 18H      0.495800
     51 HAE3        3.6230    2.7480   -2.5830 hn        1 18H      0.495800
@<TRIPOS>BOND
     1    1    2 1   
     2    1   28 1   
     3    1   29 1   
     4    1   30 1   
     5    2    3 ar  
     6    2    9 ar  
     7    3    4 ar  
     8    4    5 1   
     9    4    6 ar  
    10    5   31 1   
    11    5   32 1   
    12    5   50 1   
    13    6    7 ar  
    14    7    8 1   
    15    7    9 ar  
    16    8   33 1   
    17    8   34 1   
    18    8   51 1   
    19    9   10 1   
    20   10   11 3   
    21   11   12 1   
    22   12   13 1   
    23   12   14 1   
    24   12   35 1   
    25   13   36 1   
    26   13   37 1   
    27   13   38 1   
    28   14   15 ar  
    29   14   19 ar  
    30   15   16 ar  
    31   15   17 1   
    32   16   21 ar  
    33   16   39 1   
    34   17   18 1   
    35   18   40 1   
    36   18   41 1   
    37   18   42 1   
    38   19   20 ar  
    39   19   43 1   
    40   20   21 ar  
    41   20   44 1   
    42   21   22 1   
    43   22   23 ar  
    44   22   27 ar  
    45   23   24 ar  
    46   23   45 1   
    47   24   25 ar  
    48   24   46 1   
    49   25   26 ar  
    50   25   47 1   
    51   26   27 ar  
    52   26   48 1   
    53   27   49 1   
@<TRIPOS>SUBSTRUCTURE
     1 18H         1 TEMP              0 ****  ****    0 ROOT
