@<TRIPOS>MOLECULE
18H
   49    51     1     0     0
SMALL
bcc


@<TRIPOS>ATOM
      1 CAB         0.4360   -1.2650   -0.1870 c3        1 18H     -0.157400
      2 C6          1.7970   -0.6450   -0.1310 ca        1 18H      0.536600
      3 N1          2.4710   -0.6660    1.0350 nb        1 18H     -0.792000
      4 C2          3.7380   -0.0900    1.0320 ca        1 18H      0.914900
      5 NAD         4.4890   -0.1940    2.2060 nv        1 18H     -0.932500
      6 N3          4.3370    0.5340   -0.0450 nb        1 18H     -0.834000
      7 C4          3.6390    0.5230   -1.2240 ca        1 18H      0.747200
      8 NAE         4.2300    1.0610   -2.3460 nv        1 18H     -0.959500
      9 C5          2.3230   -0.0640   -1.3120 ca        1 18H     -0.339600
     10 CAF         1.6070   -0.0480   -2.5120 cg        1 18H     -0.094000
     11 CAG         1.0030   -0.0280   -3.5480 c1        1 18H     -0.145100
     12 CBA         0.2550    0.0180   -4.7780 c3        1 18H      0.072700
     13 CAC        -0.5910   -1.2390   -4.9480 c3        1 18H     -0.082100
     14 CAZ         1.1560    0.2010   -5.9650 ca        1 18H     -0.099300
     15 CAY         0.8680    1.1630   -6.9570 ca        1 18H      0.128100
     16 CAO         1.7040    1.3240   -8.0670 ca        1 18H     -0.195000
     17 OAR        -0.2790    1.9100   -6.7520 os        1 18H     -0.330900
     18 CAA        -0.5700    2.9040   -7.7270 c3        1 18H      0.113700
     19 CAN         2.2950   -0.5900   -6.1230 ca        1 18H     -0.094000
     20 CAM         3.1320   -0.4400   -7.2270 ca        1 18H     -0.153000
     21 CAW         2.8430    0.5190   -8.2060 cp        1 18H     -0.003000
     22 CAV         3.7190    0.6820   -9.3650 cp        1 18H     -0.041000
     23 CAK         4.2550   -0.4410  -10.0110 ca        1 18H     -0.117500
     24 CAI         5.0890   -0.2850  -11.1160 ca        1 18H     -0.130500
     25 CAH         5.4010    0.9910  -11.5860 ca        1 18H     -0.126000
     26 CAJ         4.8740    2.1130  -10.9460 ca        1 18H     -0.130500
     27 CAL         4.0360    1.9620   -9.8430 ca        1 18H     -0.117500
     28 H1          0.5050   -2.2380   -0.7340 hc        1 18H      0.060700
     29 H2          0.0150   -1.4560    0.8300 hc        1 18H      0.060700
     30 H3         -0.2580   -0.5890   -0.7460 hc        1 18H      0.060700
     31 H4          5.2770    0.4030    2.2940 hn        1 18H      0.429300
     32 H5          3.9940   -0.4100    3.0390 hn        1 18H      0.429300
     33 H6          3.6600    1.2040   -3.1440 hn        1 18H      0.439300
     34 H7          5.0730    1.5730   -2.2650 hn        1 18H      0.439300
     35 H8         -0.4480    0.9060   -4.7180 hc        1 18H      0.087700
     36 H9         -1.2680   -1.3670   -4.0710 hc        1 18H      0.041700
     37 H10         0.0600   -2.1410   -5.0350 hc        1 18H      0.041700
     38 H11        -1.2100   -1.1510   -5.8730 hc        1 18H      0.041700
     39 H12         1.4770    2.0690   -8.8420 ha        1 18H      0.141000
     40 H13        -0.7410    2.4370   -8.7280 h1        1 18H      0.045033
     41 H14        -1.5120    3.3730   -7.3450 h1        1 18H      0.045033
     42 H15         0.2510    3.6590   -7.7820 h1        1 18H      0.045033
     43 H16         2.5320   -1.3430   -5.3540 ha        1 18H      0.146000
     44 H17         4.0270   -1.0720   -7.3260 ha        1 18H      0.139000
     45 H18         4.0080   -1.4500   -9.6460 ha        1 18H      0.135000
     46 H19         5.5020   -1.1720  -11.6190 ha        1 18H      0.132500
     47 H20         6.0610    1.1120  -12.4570 ha        1 18H      0.132000
     48 H21         5.1200    3.1200  -11.3120 ha        1 18H      0.132500
     49 H22         3.6280    2.8490   -9.3380 ha        1 18H      0.135000
@<TRIPOS>BOND
     1    1    2 1   
     2    1   28 1   
     3    1   29 1   
     4    1   30 1   
     5    2    3 ar  
     6    2    9 ar  
     7    3    4 ar  
     8    4    5 1   
     9    4    6 ar  
    10    5   31 1   
    11    5   32 1   
    12    6    7 ar  
    13    7    8 1   
    14    7    9 ar  
    15    8   33 1   
    16    8   34 1   
    17    9   10 1   
    18   10   11 3   
    19   11   12 1   
    20   12   13 1   
    21   12   14 1   
    22   12   35 1   
    23   13   36 1   
    24   13   37 1   
    25   13   38 1   
    26   14   15 ar  
    27   14   19 ar  
    28   15   16 ar  
    29   15   17 1   
    30   16   21 ar  
    31   16   39 1   
    32   17   18 1   
    33   18   40 1   
    34   18   41 1   
    35   18   42 1   
    36   19   20 ar  
    37   19   43 1   
    38   20   21 ar  
    39   20   44 1   
    40   21   22 1   
    41   22   23 ar  
    42   22   27 ar  
    43   23   24 ar  
    44   23   45 1   
    45   24   25 ar  
    46   24   46 1   
    47   25   26 ar  
    48   25   47 1   
    49   26   27 ar  
    50   26   48 1   
    51   27   49 1   
@<TRIPOS>SUBSTRUCTURE
     1 18H         1 TEMP              0 ****  ****    0 ROOT
