@<TRIPOS>MOLECULE
18I
   59    52     1     0     0
SMALL
bcc


@<TRIPOS>ATOM
      1 C1          4.2710   -0.9720   -3.1840 c1        1 18I     -0.128167
      2 F1          0.6920    2.5510    9.1370 f         1 18I     -0.102000
      3 N1          6.4460   -1.2520   -2.2430 n1        1 18I     -0.161000
      4 O1         -0.8840   -1.6240    1.0550 o         1 18I     -0.388000
      5 C2          5.6420   -0.9740   -3.3250 c1        1 18I     -0.128167
      6 F2          1.7200    1.0490    1.9320 f         1 18I     -0.102000
      7 N2          2.2990   -1.5030   -1.7730 n         1 18I     -0.319000
      8 O2          1.8640    0.7440   -1.5920 o         1 18I     -0.359000
      9 C3          5.8960   -1.5230   -1.0450 c1        1 18I     -0.052000
     10 N3         -0.6230    0.1070   -0.4640 n         1 18I     -0.368000
     11 C4          4.5100   -1.5230   -0.8970 c1        1 18I     -0.234000
     12 N4         -1.3890   -3.5670   -4.3900 n2        1 18I     -0.212000
     13 C5          3.7100   -1.2470   -1.9680 c1        1 18I      0.114000
     14 C6          1.4230   -0.4330   -1.5880 c2        1 18I      0.294000
     15 C7         -0.0800   -0.6790   -1.5030 c3        1 18I      0.011000
     16 C8         -0.6960   -0.4230    0.8800 c2        1 18I      0.358000
     17 C9         -0.6610    0.5370    2.0930 c2        1 18I     -0.157000
     18 C10        -1.7570    0.6140    2.9420 c2        1 18I     -0.053000
     19 C11        -1.6830    1.3580    4.1020 c1        1 18I     -0.142000
     20 C12        -0.5200    2.0280    4.4190 c1        1 18I      0.015000
     21 C13        -0.4450    2.8600    5.6830 c2        1 18I     -0.028000
     22 C14        -0.8840    4.1760    5.6750 c2        1 18I     -0.128000
     23 C15        -0.7640    4.9560    6.8200 c1        1 18I     -0.105000
     24 C16        -0.2020    4.4130    7.9800 c1        1 18I     -0.155000
     25 C17         0.2350    3.1040    7.9880 c2        1 18I      0.092000
     26 C18         0.1150    2.3210    6.8370 c2        1 18I     -0.150000
     27 C19         0.5730    1.9530    3.5740 c1        1 18I     -0.164000
     28 C20         0.4970    1.2030    2.4070 c1        1 18I      0.120000
     29 C21        -0.7310   -0.2970   -2.8290 c3        1 18I     -0.084000
     30 C22        -1.3790   -1.5360   -3.4570 c2        1 18I     -0.180000
     31 C23        -0.6650   -2.7130   -3.5820 c1        1 18I     -0.046000
     32 C24        -2.5460   -2.9220   -4.7630 c1        1 18I     -0.006000
     33 C25        -3.6240   -3.3110   -5.5990 c1        1 18I     -0.128167
     34 C26        -4.6750   -2.4280   -5.8370 c1        1 18I     -0.128167
     35 C27        -4.6690   -1.1550   -5.2520 c1        1 18I     -0.128167
     36 C28        -3.6100   -0.7680   -4.4290 c1        1 18I     -0.128167
     37 C29        -2.5400   -1.6630   -4.1850 c1        1 18I     -0.071000
     38 H1          3.6980   -0.7730   -3.9570 ha        1 18I      0.142833
     39 H2          6.0370   -0.7800   -4.1770 ha        1 18I      0.142833
     40 HN2         1.9670   -2.3580   -1.8790 hn        1 18I      0.263000
     41 H3          6.4600   -1.7160   -0.2900 ha        1 18I      0.157000
     42 HN3        -0.8780    0.9410   -0.6260 hn        1 18I      0.244000
     43 H4          4.1140   -1.7180   -0.0320 ha        1 18I      0.147000
     44 HN4        -1.1360   -4.4350   -4.6410 DU        1 18I      0.220000
     45 H7         -0.2560   -1.6680   -1.3090 h1        1 18I      0.142000
     46 H10        -2.5710    0.1460    2.7210 ha        1 18I      0.167000
     47 H11        -2.4400    1.4100    4.6870 ha        1 18I      0.151000
     48 H14        -1.2890    4.5680    4.8390 ha        1 18I      0.142000
     49 H15        -1.0680    5.8640    6.8150 ha        1 18I      0.143000
     50 H16        -0.1170    4.9670    8.7930 ha        1 18I      0.153000
     51 H18         0.4770    1.4430    6.8230 ha        1 18I      0.155000
     52 H19         1.4280    2.4440    3.8060 ha        1 18I      0.160000
     53 H21        -1.4020    0.3740   -2.6750 hc        1 18I      0.106000
     54 H21A       -0.0310    0.0670   -3.4530 hc        1 18I      0.106000
     55 H23         0.1860   -2.8970   -3.1930 DU        1 18I      0.220000
     56 H25        -3.6290   -4.2210   -6.0190 ha        1 18I      0.142833
     57 H26        -5.4240   -2.6990   -6.4180 ha        1 18I      0.142833
     58 H27        -5.3910   -0.5510   -5.4170 ha        1 18I      0.142833
     59 H28        -3.6070    0.1290   -4.0180 ha        1 18I      0.142833
@<TRIPOS>BOND
     1    1    5 1   
     2    1   38 1   
     3    2   25 1   
     4    3    9 1   
     5    4   16 1   
     6    5   39 1   
     7    6   28 1   
     8    7   13 1   
     9    7   14 1   
    10    7   40 1   
    11    8   14 1   
    12    9   41 1   
    13   10   15 1   
    14   10   16 1   
    15   10   42 1   
    16   11   13 1   
    17   11   43 1   
    18   12   31 1   
    19   12   32 1   
    20   14   15 1   
    21   15   29 1   
    22   15   45 1   
    23   16   17 1   
    24   17   18 1   
    25   17   28 1   
    26   18   19 1   
    27   18   46 1   
    28   19   47 1   
    29   20   21 1   
    30   20   27 1   
    31   21   22 1   
    32   21   26 1   
    33   22   23 1   
    34   22   48 1   
    35   23   49 1   
    36   24   25 1   
    37   24   50 1   
    38   25   26 1   
    39   26   51 1   
    40   27   52 1   
    41   29   30 1   
    42   29   53 1   
    43   29   54 1   
    44   30   31 1   
    45   30   37 1   
    46   32   37 1   
    47   33   34 1   
    48   33   56 1   
    49   34   57 1   
    50   35   36 1   
    51   35   58 1   
    52   36   59 1   
@<TRIPOS>SUBSTRUCTURE
     1 18I         1 TEMP              0 ****  ****    0 ROOT
