@<TRIPOS>MOLECULE
18I
   59    63     1     0     0
SMALL
bcc


@<TRIPOS>ATOM
      1 C1         -4.9250   -3.2630    0.7570 ca        1 18I     -0.288300
      2 F1          7.6650   -0.5470   -1.1990 f         1 18I     -0.138900
      3 N1         -6.6510   -4.3650   -0.5480 nb        1 18I     -0.687000
      4 O1         -1.6590   -0.5620    1.8800 o         1 18I     -0.612100
      5 C2         -5.7980   -4.3260    0.4960 ca        1 18I      0.411700
      6 F2          0.0530   -2.8500    1.2220 f         1 18I     -0.119900
      7 C3         -6.6420   -3.3030   -1.3750 ca        1 18I      0.411700
      8 N3         -1.4920    0.5290   -0.1270 n         1 18I     -0.550900
      9 C4         -5.8140   -2.1810   -1.2170 ca        1 18I     -0.288300
     10 N4         -0.9670    5.1210    0.6300 na        1 18I     -0.188400
     11 C5         -4.9240   -2.1470   -0.1210 ca        1 18I      0.104600
     12 C6         -3.8770    0.0590   -0.6120 c         1 18I      0.652100
     13 C7         -2.8260    1.0690   -0.0630 c3        1 18I      0.037700
     14 C9          0.4990   -0.5210    0.8330 ca        1 18I     -0.178600
     15 C10         1.4450    0.4840    0.6070 ca        1 18I     -0.079000
     16 C11         2.8020    0.1860    0.5660 ca        1 18I     -0.140000
     17 C12         3.2450   -1.1330    0.7490 cp        1 18I      0.010000
     18 C13         4.6750   -1.4450    0.7090 cp        1 18I     -0.026000
     19 C14         5.2270   -2.3530    1.6230 ca        1 18I     -0.128000
     20 C15         6.5890   -2.6470    1.5870 ca        1 18I     -0.105000
     21 C16         7.4200   -2.0480    0.6450 ca        1 18I     -0.156000
     22 C17         6.8690   -1.1370   -0.2750 ca        1 18I      0.125900
     23 C18         5.4970   -0.8330   -0.2440 ca        1 18I     -0.152000
     24 C19         2.3130   -2.1500    0.9710 ca        1 18I     -0.167000
     25 C20         0.9380   -1.8490    1.0150 ca        1 18I      0.181900
     26 C21        -2.9830    2.3820   -0.8560 c3        1 18I     -0.013200
     27 C22        -1.9970    3.3940   -0.4650 cc        1 18I     -0.159400
     28 C23        -2.1080    4.3190    0.5750 cd        1 18I     -0.087100
     29 C24        -0.1040    4.7320   -0.3980 ca        1 18I     -0.049200
     30 C25         1.1550    5.2250   -0.7770 ca        1 18I     -0.140000
     31 C26         1.7800    4.6270   -1.8610 ca        1 18I     -0.115000
     32 C27         1.1830    3.5650   -2.5640 ca        1 18I     -0.152000
     33 C28        -0.0590    3.0670   -2.2000 ca        1 18I     -0.100000
     34 C29        -0.7220    3.6360   -1.1110 ca        1 18I     -0.096800
     35 H1         -4.2570   -3.3070    1.6280 ha        1 18I      0.163000
     36 H2         -5.8180   -5.2060    1.1640 h4        1 18I      0.020600
     37 HN2        -3.4820   -1.1870    0.9640 hn        1 18I      0.350500
     38 H3         -7.3460   -3.3520   -2.2250 h4        1 18I      0.020600
     39 HN3        -0.8890    0.9040   -0.8240 hn        1 18I      0.329500
     40 H4         -5.8690   -1.3550   -1.9410 ha        1 18I      0.163000
     41 HN4        -0.8210    5.8770    1.2440 hn        1 18I      0.302700
     42 H7         -3.0860    1.2710    1.0220 h1        1 18I      0.084700
     43 H10         1.1140    1.5270    0.4710 ha        1 18I      0.153000
     44 H11         3.5350    0.9900    0.3980 ha        1 18I      0.149000
     45 H14         4.5820   -2.8300    2.3770 ha        1 18I      0.143000
     46 H15         7.0130   -3.3590    2.3120 ha        1 18I      0.143000
     47 H16         8.4950   -2.2760    0.6100 ha        1 18I      0.152000
     48 H18         5.0800   -0.1240   -0.9740 ha        1 18I      0.153000
     49 H19         2.6390   -3.1920    1.1070 ha        1 18I      0.159000
     50 H21        -2.8970    2.1650   -1.9560 hc        1 18I      0.077700
     51 H21A       -4.0280    2.7540   -0.6740 hc        1 18I      0.077700
     52 H23        -2.9240    4.4630    1.2870 h4        1 18I      0.171000
     53 H25         1.6240    6.0570   -0.2370 ha        1 18I      0.136000
     54 H26         2.7660    4.9940   -2.1850 ha        1 18I      0.134000
     55 H27         1.7140    3.1300   -3.4240 ha        1 18I      0.134000
     56 H28        -0.5280    2.2480   -2.7650 ha        1 18I      0.136000
     57 N2         -4.0550   -1.0830    0.1470 n         1 18I     -0.463100
     58 C8         -0.9490   -0.1880    0.9230 c         1 18I      0.680700
     59 O2         -4.5100    0.3100   -1.6520 o         1 18I     -0.590100
@<TRIPOS>BOND
     1    1    5 ar  
     2    1   11 ar  
     3    1   35 1   
     4    2   22 1   
     5    3    5 ar  
     6    3    7 ar  
     7    4   58 2   
     8    5   36 1   
     9    6   25 1   
    10    7    9 ar  
    11    7   38 1   
    12    8   13 1   
    13    8   39 1   
    14    8   58 1   
    15    9   11 ar  
    16    9   40 1   
    17   10   28 1   
    18   10   29 1   
    19   10   41 1   
    20   11   57 1   
    21   12   13 1   
    22   12   57 1   
    23   12   59 2   
    24   13   26 1   
    25   13   42 1   
    26   14   15 ar  
    27   14   25 ar  
    28   14   58 1   
    29   15   16 ar  
    30   15   43 1   
    31   16   17 ar  
    32   16   44 1   
    33   17   18 1   
    34   17   24 ar  
    35   18   19 ar  
    36   18   23 ar  
    37   19   20 ar  
    38   19   45 1   
    39   20   21 ar  
    40   20   46 1   
    41   21   22 ar  
    42   21   47 1   
    43   22   23 ar  
    44   23   48 1   
    45   24   25 ar  
    46   24   49 1   
    47   26   27 1   
    48   26   50 1   
    49   26   51 1   
    50   27   28 2   
    51   27   34 1   
    52   28   52 1   
    53   29   30 ar  
    54   29   34 ar  
    55   30   31 ar  
    56   30   53 1   
    57   31   32 ar  
    58   31   54 1   
    59   32   33 ar  
    60   32   55 1   
    61   33   34 ar  
    62   33   56 1   
    63   37   57 1   
@<TRIPOS>SUBSTRUCTURE
     1 18I         1 TEMP              0 ****  ****    0 ROOT
