@<TRIPOS>MOLECULE
18I
   59    55     1     0     0
SMALL
bcc


@<TRIPOS>ATOM
      1 C1         -2.3470   -0.1200   -4.7550 c1        1 18I     -0.157000
      2 F1        -11.0010    6.4640    9.7650 f         1 18I     -0.110000
      3 N1         -1.7170   -0.5580   -2.3570 n2        1 18I     -0.185000
      4 O1         -6.2360    1.6910    4.4400 o         1 18I     -0.443000
      5 C2         -2.0450   -0.3300   -3.6130 c1        1 18I     -0.033000
      6 F2         -4.9730    1.1550    8.3020 f         1 18I     -0.106000
      7 C3         -1.4360   -0.7530   -1.2240 c1        1 18I      0.138000
      8 N3         -4.2630    1.4260    5.5320 n         1 18I     -0.399000
      9 C4         -0.3020   -2.2670    3.7990 c2        1 18I     -0.273000
     10 N4         -6.5340    1.1210    0.2440 n3        1 18I     -0.164000
     11 C5         -0.4590   -1.9210    2.5130 c2        1 18I     -0.036000
     12 C6         -2.2060   -0.1780    2.6970 c2        1 18I      0.431000
     13 C7         -2.9920    0.7420    1.9190 c1        1 18I     -0.225000
     14 C9         -6.1620    2.4930    6.6880 ca        1 18I     -0.156000
     15 C10        -7.0980    3.5080    6.4580 ca        1 18I     -0.067000
     16 C11        -7.7090    4.1750    7.5140 ca        1 18I     -0.136000
     17 C12        -7.4020    3.8320    8.8390 ca        1 18I      0.000000
     18 C13        -8.0230    4.5060    9.9730 c2        1 18I     -0.030000
     19 C14        -6.2430    1.5400   14.8260 c2        1 18I      0.134000
     20 C15        -6.4410    2.1060   13.6560 c1        1 18I     -0.546000
     21 C16        -6.6330    2.6530   12.5190 c1        1 18I      0.173000
     22 C17        -9.6530    6.5450    9.8320 c2        1 18I      0.052000
     23 C18        -8.8560    5.5040    9.8800 c1        1 18I     -0.232000
     24 C19        -6.4800    2.8100    9.0910 ca        1 18I     -0.159000
     25 C20        -5.8570    2.1430    8.0210 ca        1 18I      0.109000
     26 C21        -3.6630    1.5210    1.3060 c1        1 18I     -0.046000
     27 C22        -4.4760    2.4610    0.5710 c3        1 18I      0.068000
     28 C23        -5.5160    1.7420   -0.2760 c1        1 18I     -0.110000
     29 C24        -6.8870    0.9710    1.6490 c3        1 18I     -0.177000
     30 C25        -8.0620    0.1090    1.8410 c1        1 18I     -0.025000
     31 C26        -8.5070   -0.1160    3.1650 c2        1 18I     -0.543000
     32 C27        -9.5430   -0.8760    3.4790 c1        1 18I      0.350000
     33 C28        -3.0270    4.0110   -0.9980 c1        1 18I     -0.203000
     34 C29        -3.6740    3.3010   -0.2860 c1        1 18I     -0.134000
     35 H1         -2.6180    0.0670   -5.7630 ha        1 18I      0.246000
     36 H2          0.1400   -2.4140    1.7190 h4        1 18I      0.132000
     37 HN2        -1.3030   -0.8520    0.9820 hn        1 18I      0.266000
     38 H3          0.4230   -3.0430    4.0720 ha        1 18I      0.133500
     39 HN3        -3.8680    0.9490    4.7520 hn        1 18I      0.246000
     40 H4         -0.8620   -1.8200    4.6300 ha        1 18I      0.133500
     41 HN4        -7.1740    0.6770   -0.3890 hn        1 18I      0.260000
     42 H7         -3.7450    1.4490    6.3750 hn        1 18I      0.246000
     43 H10        -7.3500    3.7670    5.4150 ha        1 18I      0.158000
     44 H11        -8.4410    4.9720    7.3140 ha        1 18I      0.149000
     45 H14        -5.5820    0.6650   14.9540 ha        1 18I      0.123000
     46 H15        -6.7270    1.9070   15.7480 ha        1 18I      0.123000
     47 H16        -9.2760    7.5850    9.8460 h4        1 18I      0.155000
     48 H18        -7.7330    4.1110   10.9730 ha        1 18I      0.178000
     49 H19        -6.2390    2.5250   10.1310 ha        1 18I      0.179000
     50 H21        -1.1520    5.7440   -3.1820 ha        1 18I      0.001000
     51 H21A       -1.3160    6.2760   -2.7970 ha        1 18I      0.001000
     52 H23        -4.9930    3.1390    1.3290 hc        1 18I      0.126000
     53 H25        -7.0830    1.9950    2.0990 h1        1 18I      0.140500
     54 H26        -7.9610    0.3720    4.0170 ha        1 18I      0.218000
     55 H27        -2.4560    4.6450   -1.6290 ha        1 18I      0.224000
     56 H28        -5.9970    0.5580    2.2200 h1        1 18I      0.140500
     57 N2         -1.3230   -0.9640    1.9780 n         1 18I     -0.313000
     58 C8         -5.5630    1.8290    5.4940 c2        1 18I      0.354000
     59 O2         -2.3300   -0.2430    3.9400 o         1 18I     -0.378000
@<TRIPOS>BOND
     1    1    5 1   
     2    1   35 1   
     3    2   22 1   
     4    3    5 1   
     5    3    7 1   
     6    4   58 1   
     7    6   25 1   
     8    8   39 1   
     9    8   42 1   
    10    8   58 1   
    11    9   11 1   
    12    9   38 1   
    13    9   40 1   
    14   10   28 1   
    15   10   29 1   
    16   10   41 1   
    17   11   36 1   
    18   11   57 1   
    19   12   13 1   
    20   12   57 1   
    21   12   59 1   
    22   13   26 1   
    23   14   15 1   
    24   14   25 1   
    25   14   58 1   
    26   15   16 1   
    27   15   43 1   
    28   16   17 1   
    29   16   44 1   
    30   17   18 1   
    31   17   24 1   
    32   18   23 1   
    33   18   48 1   
    34   19   20 1   
    35   19   45 1   
    36   19   46 1   
    37   20   21 1   
    38   22   23 1   
    39   22   47 1   
    40   24   25 1   
    41   24   49 1   
    42   26   27 1   
    43   27   28 1   
    44   27   34 1   
    45   27   52 1   
    46   29   30 1   
    47   29   53 1   
    48   29   56 1   
    49   30   31 1   
    50   31   32 1   
    51   31   54 1   
    52   33   34 1   
    53   33   55 1   
    54   37   57 1   
    55   50   51 1   
@<TRIPOS>SUBSTRUCTURE
     1 18I         1 TEMP              0 ****  ****    0 ROOT
