@<TRIPOS>MOLECULE
18J
   44    45     1     0     0
SMALL
bcc


@<TRIPOS>ATOM
      1 C2         -6.2730   -0.0680    0.2910 ca        1 18J      0.129100
      2 C3         -5.6570   -1.3290    0.1370 ca        1 18J     -0.127300
      3 C4         -4.2710   -1.3860    0.0180 ca        1 18J     -0.087000
      4 C5         -3.4900   -0.2190    0.0410 ca        1 18J     -0.089800
      5 C6         -4.1220    1.0200    0.1990 ca        1 18J     -0.087000
      6 C7         -5.5100    1.1130    0.3260 ca        1 18J     -0.127300
      7 C8         -6.1560    2.4360    0.4950 c3        1 18J     -0.048800
      8 C25         6.4100    0.3140    2.3870 c3        1 18J     -0.076100
      9 C24         5.4470    0.7440    1.3110 c3        1 18J     -0.319600
     10 S21         5.5090   -0.3360   -0.0250 s6        1 18J      1.454900
     11 O23         6.7710   -0.2230   -0.6460 o         1 18J     -0.645800
     12 O22         5.1300   -1.6130    0.4230 o         1 18J     -0.645800
     13 C17         3.0190    0.3660   -0.9000 ca        1 18J      0.161600
     14 C18         2.2800    1.3520   -1.5930 ca        1 18J     -0.175500
     15 C19         0.9010    1.4280   -1.4490 ca        1 18J     -0.091500
     16 C14         0.2080    0.5330   -0.6190 ca        1 18J     -0.071800
     17 C15         0.9420   -0.4450    0.0650 ca        1 18J     -0.091500
     18 C16         2.3220   -0.5390   -0.0700 ca        1 18J     -0.175500
     19 C12        -1.2330    0.6520   -0.4930 ce        1 18J     -0.116200
     20 C11        -2.0480   -0.3370   -0.0890 cf        1 18J     -0.090200
     21 O1         -7.6440   -0.0820    0.4050 oh        1 18J     -0.496100
     22 C10        -6.4870   -2.5550    0.1060 c3        1 18J     -0.048800
     23 H1         -3.7800   -2.3650   -0.1020 ha        1 18J      0.135500
     24 H2         -3.5190    1.9400    0.2350 ha        1 18J      0.135500
     25 H3         -6.7220    2.4760    1.4600 hc        1 18J      0.046533
     26 H4         -5.3970    3.2560    0.5050 hc        1 18J      0.046533
     27 H5         -6.8700    2.6340   -0.3430 hc        1 18J      0.046533
     28 H6          7.4590    0.3150    1.9980 hc        1 18J      0.055033
     29 H7          6.3600    1.0130    3.2560 hc        1 18J      0.055033
     30 H8          6.1600   -0.7140    2.7490 hc        1 18J      0.055033
     31 H9          4.4180    0.7970    1.7550 h1        1 18J      0.112200
     32 H10         5.7000    1.7940    1.0090 h1        1 18J      0.112200
     33 H11         4.7350    0.7420   -1.8860 hn        1 18J      0.458800
     34 H12         2.7910    2.0650   -2.2580 ha        1 18J      0.151000
     35 H13         0.3430    2.2030   -1.9980 ha        1 18J      0.138000
     36 H14         0.4240   -1.1570    0.7270 ha        1 18J      0.138000
     37 H15         2.8590   -1.3420    0.4660 ha        1 18J      0.151000
     38 H16        -1.6430    1.6380   -0.7770 ha        1 18J      0.126000
     39 H17        -1.6420   -1.3350    0.1550 ha        1 18J      0.127000
     40 H18        -7.9530    0.8300    0.5050 ho        1 18J      0.421000
     41 H19        -7.2110   -2.5030   -0.7460 hc        1 18J      0.046533
     42 H20        -5.8580   -3.4700   -0.0100 hc        1 18J      0.046533
     43 H21        -7.0790   -2.6390    1.0520 hc        1 18J      0.046533
     44 N20         4.4140    0.3030   -1.0500 nh        1 18J     -0.780500
@<TRIPOS>BOND
     1    1    2 ar  
     2    1    6 ar  
     3    1   21 1   
     4    2    3 ar  
     5    2   22 1   
     6    3    4 ar  
     7    3   23 1   
     8    4    5 ar  
     9    4   20 1   
    10    5    6 ar  
    11    5   24 1   
    12    6    7 1   
    13    7   25 1   
    14    7   26 1   
    15    7   27 1   
    16    8    9 1   
    17    8   28 1   
    18    8   29 1   
    19    8   30 1   
    20    9   10 1   
    21    9   31 1   
    22    9   32 1   
    23   10   11 2   
    24   10   12 2   
    25   10   44 1   
    26   13   14 ar  
    27   13   18 ar  
    28   13   44 1   
    29   14   15 ar  
    30   14   34 1   
    31   15   16 ar  
    32   15   35 1   
    33   16   17 ar  
    34   16   19 1   
    35   17   18 ar  
    36   17   36 1   
    37   18   37 1   
    38   19   20 2   
    39   19   38 1   
    40   20   39 1   
    41   21   40 1   
    42   22   41 1   
    43   22   42 1   
    44   22   43 1   
    45   33   44 1   
@<TRIPOS>SUBSTRUCTURE
     1 18J         1 TEMP              0 ****  ****    0 ROOT
