@<TRIPOS>MOLECULE
18J
   44    35     1     0     0
SMALL
bcc


@<TRIPOS>ATOM
      1 C2         -2.4180   -2.8310   -1.8280 c1        1 18J      0.081000
      2 C3         -1.0870   -3.2150   -1.8420 c1        1 18J     -0.092000
      3 C4         -0.3670   -3.2660   -0.6590 c1        1 18J     -0.094000
      4 C5         -0.9790   -2.9320    0.5400 c1        1 18J     -0.082000
      5 C6         -2.3110   -2.5480    0.5540 c1        1 18J     -0.082000
      6 C7         -3.0310   -2.4980   -0.6290 c1        1 18J     -0.152000
      7 C8         -4.5100   -2.1820   -0.6010 c2        1 18J     -0.173500
      8 C25         2.5860    6.6720    0.9100 c3        1 18J     -0.194000
      9 C24         2.3480    5.5310   -0.0570 c3        1 18J     -0.858000
     10 S21         2.0630    4.0350    0.8530 s4        1 18J      2.026800
     11 O23         1.0040    4.2000    1.8090 o         1 18J     -0.533400
     12 O22         3.1710    3.7290    1.7150 o         1 18J     -0.533400
     13 N20         1.7480    2.7930   -0.1780 n2        1 18J     -0.830000
     14 C17         1.3980    1.5150    0.3350 c1        1 18J      0.080000
     15 C18         2.2530    0.4390    0.1540 c1        1 18J     -0.129000
     16 C19         1.9670   -0.7820    0.7460 c1        1 18J     -0.129000
     17 C14         0.8240   -0.9280    1.5190 c1        1 18J     -0.067000
     18 C15        -0.0310    0.1490    1.6990 c1        1 18J     -0.090000
     19 C16         0.2560    1.3700    1.1080 c1        1 18J     -0.187000
     20 C12         0.6060   -2.2040    2.3080 c1        1 18J     -0.122000
     21 C11        -0.2440   -3.1490    1.8460 c2        1 18J     -0.107000
     22 O1         -3.1570   -2.8120   -3.0250 o         1 18J     -0.251000
     23 C10        -0.4490   -3.6780   -3.1340 c2        1 18J     -0.173500
     24 H1          0.5700   -3.5360   -0.6690 ha        1 18J      0.137000
     25 H2         -2.7420   -2.3140    1.3970 ha        1 18J      0.141000
     26 H3         -4.6840   -1.3810   -1.1390 ha        1 18J      0.085500
     27 H4         -4.7920   -2.0210    0.3240 ha        1 18J      0.085500
     28 H5         -5.0130   -2.9380   -0.9690 ha        1 18J      0.085500
     29 H6          2.5090    7.5260    0.4330 hc        1 18J      0.094000
     30 H7          3.4840    6.5930    1.2950 hc        1 18J      0.094000
     31 H8          1.9190    6.6370    1.6270 hc        1 18J      0.094000
     32 H9          1.5660    5.7300   -0.6100 h1        1 18J      0.150000
     33 H10         3.1330    5.4200   -0.6300 h1        1 18J      0.150000
     34 H11         1.8200    2.9190   -1.0780 hn        1 18J      0.254000
     35 H12         3.0560    0.5400   -0.3890 ha        1 18J      0.142000
     36 H13         2.5680   -1.5390    0.6180 ha        1 18J      0.142000
     37 H14        -0.8340    0.0480    2.2430 ha        1 18J      0.139000
     38 H15        -0.3460    2.1270    1.2350 ha        1 18J      0.166000
     39 H16         1.0800   -2.3430    3.1500 ha        1 18J      0.127000
     40 H17        -0.3840   -3.9700    2.3550 ha        1 18J      0.127000
     41 H18        -3.6180   -3.5700   -3.1010 ho        1 18J      0.219000
     42 H19        -0.9170   -4.4740   -3.4630 ha        1 18J      0.085500
     43 H20        -0.5090   -2.9640   -3.8020 ha        1 18J      0.085500
     44 H21         0.4930   -3.8960   -2.9730 ha        1 18J      0.085500
@<TRIPOS>BOND
     1    1    2 1   
     2    1    6 1   
     3    2    3 1   
     4    3   24 1   
     5    4    5 1   
     6    4   21 1   
     7    5   25 1   
     8    7   26 1   
     9    7   27 1   
    10    7   28 1   
    11    8    9 1   
    12    8   29 1   
    13    8   30 1   
    14    8   31 1   
    15    9   10 1   
    16    9   32 1   
    17    9   33 1   
    18   10   11 1   
    19   10   12 1   
    20   13   14 1   
    21   13   34 1   
    22   14   19 1   
    23   15   16 1   
    24   15   35 1   
    25   16   36 1   
    26   17   18 1   
    27   18   37 1   
    28   19   38 1   
    29   20   21 1   
    30   20   39 1   
    31   21   40 1   
    32   22   41 1   
    33   23   42 1   
    34   23   43 1   
    35   23   44 1   
@<TRIPOS>SUBSTRUCTURE
     1 18J         1 TEMP              0 ****  ****    0 ROOT
