@<TRIPOS>MOLECULE
18J
   45    44     1     0     0
SMALL
bcc


@<TRIPOS>ATOM
      1 C2         -0.6870   -0.3140    0.5430 c2        1 18J      0.268000
      2 C3          0.0890    0.2740   -0.5440 c2        1 18J     -0.192000
      3 C4          0.9110    1.3180   -0.3440 c2        1 18J     -0.071000
      4 C5          1.8240    0.3940    3.1440 c1        1 18J     -0.012000
      5 C6          0.9220    0.1090    2.2490 c1        1 18J     -0.173000
      6 C7         -0.2990   -0.3650    1.8880 c2        1 18J     -0.107000
      7 C8         -1.2380   -0.9770    2.8690 c3        1 18J     -0.178000
      8 C25         3.9540   -4.2890    9.8740 c3        1 18J     -0.212000
      9 C24         3.7910   -2.8030    9.6220 c3        1 18J     -0.908000
     10 S21         3.2440   -2.0470   10.9950 s6        1 18J      2.732000
     11 O23         1.9080   -2.2800   11.2660 o         1 18J     -0.841000
     12 O22         4.1760   -1.9750   12.0130 o         1 18J     -0.841000
     13 C17         3.5290    0.0120    9.0710 c2        1 18J     -0.121000
     14 C18         2.5580    0.1920    8.1260 c2        1 18J      0.036000
     15 C19         2.7250    0.4130    6.7250 c2        1 18J     -0.226000
     16 C14         3.8250    0.8680    6.0940 c2        1 18J     -0.022000
     17 C15         6.0950    0.1930    8.6450 c1        1 18J     -0.081000
     18 C16         4.9170    0.0980    8.8480 c1        1 18J     -0.217000
     19 C12         3.8970    1.0900    4.6240 c3        1 18J     -0.013000
     20 C11         2.7530    0.7000    3.8850 c1        1 18J     -0.291000
     21 O1         -1.8940   -0.8710    0.2650 oh        1 18J     -0.221000
     22 C10        -0.0650   -0.3490   -1.8860 c3        1 18J     -0.197000
     23 H1          1.5220    1.7310   -1.1610 ha        1 18J      0.139000
     24 H2          1.0250    1.8100    0.6340 ha        1 18J      0.139000
     25 H3         -0.8460   -0.8710    3.9080 hc        1 18J      0.082667
     26 H4         -1.3760   -2.0640    2.6460 hc        1 18J      0.082667
     27 H5         -2.2400   -0.4850    2.8080 hc        1 18J      0.082667
     28 H6          4.7840   -2.4100    9.2520 h1        1 18J      0.202000
     29 H7          4.3280   -4.7900    8.9460 hc        1 18J      0.120333
     30 H8          2.9750   -4.7580   10.1450 hc        1 18J      0.120333
     31 H9          4.6990   -4.4760   10.6880 hc        1 18J      0.120333
     32 H10         3.1060   -2.6830    8.7330 h1        1 18J      0.202000
     33 H11         2.2120    0.1140   10.6250 hn        1 18J      0.257500
     34 H12         1.4910    0.1310    8.4360 ha        1 18J      0.146000
     35 H13         1.8170    0.2090    6.1160 ha        1 18J      0.180000
     36 H14         4.7470    1.1290    6.6430 ha        1 18J      0.127000
     37 H15         7.1420    0.2760    8.4660 ha        1 18J      0.256000
     38 H16         4.8040    0.5340    4.2360 hc        1 18J      0.130500
     39 H17         4.0960    2.1920    4.4500 hc        1 18J      0.130500
     40 H18        -2.1150   -0.7430   -0.6730 ho        1 18J      0.246000
     41 H19         0.8210   -0.1210   -2.5290 hc        1 18J      0.094667
     42 H20        -0.9760    0.0480   -2.4020 hc        1 18J      0.094667
     43 H21        -0.1570   -1.4610   -1.8030 hc        1 18J      0.094667
     44 H202        3.7880    0.3140   11.0620 hn        1 18J      0.257500
     45 N20         3.1610   -0.2370   10.4660 n4        1 18J     -0.420000
@<TRIPOS>BOND
     1    1    2 1   
     2    1    6 1   
     3    1   21 1   
     4    2    3 1   
     5    2   22 1   
     6    3   23 1   
     7    3   24 1   
     8    4    5 1   
     9    4   20 1   
    10    5    6 1   
    11    6    7 1   
    12    7   25 1   
    13    7   26 1   
    14    7   27 1   
    15    8    9 1   
    16    8   29 1   
    17    8   30 1   
    18    8   31 1   
    19    9   10 1   
    20    9   28 1   
    21    9   32 1   
    22   10   11 1   
    23   10   12 1   
    24   10   45 1   
    25   13   14 1   
    26   13   18 1   
    27   13   45 1   
    28   14   15 1   
    29   14   34 1   
    30   15   16 1   
    31   15   35 1   
    32   16   19 1   
    33   16   36 1   
    34   17   18 1   
    35   17   37 1   
    36   19   20 1   
    37   19   38 1   
    38   19   39 1   
    39   21   40 1   
    40   22   41 1   
    41   22   42 1   
    42   22   43 1   
    43   33   45 1   
    44   44   45 1   
@<TRIPOS>SUBSTRUCTURE
     1 18J         1 TEMP              0 ****  ****    0 ROOT
