@<TRIPOS>MOLECULE
18J
   44    45     1     0     0
SMALL
bcc


@<TRIPOS>ATOM
      1 C2         -0.1710    0.2980   -0.1690 ce        1 18J      0.073100
      2 C3          1.1740    0.5150   -0.0530 c2        1 18J     -0.133400
      3 C4          1.5340    0.6350    1.3870 cx        1 18J     -0.063500
      4 C5          1.3050   -0.6000    2.2410 cx        1 18J     -0.061500
      5 C6          0.2240    0.4560    2.1660 cx        1 18J     -0.092500
      6 C7         -0.8450    0.2330    1.1490 ce        1 18J     -0.075200
      7 C8         -2.1380    0.0290    1.3930 c2        1 18J     -0.205000
      8 C25         5.1870   -3.5580   11.0690 c3        1 18J     -0.076100
      9 C24         4.1590   -2.5590   10.6080 c3        1 18J     -0.318600
     10 S21         4.9080   -1.0830   10.1490 s6        1 18J      1.452900
     11 O23         5.4550   -0.4790   11.3000 o         1 18J     -0.643300
     12 O22         5.7850   -1.3330    9.0800 o         1 18J     -0.643300
     13 C17         2.9490   -0.1980    8.4660 ce        1 18J      0.178000
     14 C18         2.0670    0.7810    8.1230 cf        1 18J     -0.194000
     15 C19         1.3300    0.8820    6.8910 cf        1 18J     -0.098100
     16 C14         1.6050    0.2960    5.7480 c1        1 18J     -0.053900
     17 C15         2.4970   -2.4390    7.5200 c2        1 18J     -0.180000
     18 C16         3.2470   -1.3410    7.5810 ce        1 18J     -0.169000
     19 C12         1.8290   -0.2220    4.6210 c1        1 18J     -0.053900
     20 C11         2.0910   -0.7780    3.4640 c2        1 18J     -0.127300
     21 O1         -0.8030    0.1370   -1.3710 oh        1 18J     -0.481100
     22 C10         2.1630    0.6410   -1.1250 c3        1 18J     -0.032900
     23 H1          2.3090    1.3640    1.6570 hc        1 18J      0.105700
     24 H2          1.1290   -1.5630    1.7160 hc        1 18J      0.096700
     25 H3         -0.0390    1.0460    3.0560 hc        1 18J      0.107700
     26 H4         -2.5390    0.0020    2.4150 ha        1 18J      0.119500
     27 H5         -2.8760   -0.1290    0.5970 ha        1 18J      0.119500
     28 H6          3.5770   -3.0080    9.7580 h1        1 18J      0.112200
     29 H7          5.7410   -3.1680   11.9590 hc        1 18J      0.054700
     30 H8          4.6960   -4.5180   11.3570 hc        1 18J      0.054700
     31 H9          5.9210   -3.7700   10.2510 hc        1 18J      0.054700
     32 H10         3.4160   -2.4080   11.4350 h1        1 18J      0.112200
     33 H11         3.3440    0.5820   10.2880 hn        1 18J      0.454800
     34 H12         1.8640    1.6080    8.8290 ha        1 18J      0.130000
     35 H13         0.4540    1.5610    6.9320 ha        1 18J      0.138000
     36 H14         1.5930   -2.5850    8.1260 ha        1 18J      0.122000
     37 H15         4.1540   -1.2110    6.9620 ha        1 18J      0.166000
     38 H16         2.7400   -3.2650    6.8370 ha        1 18J      0.122000
     39 H17         2.9660   -1.4480    3.3630 ha        1 18J      0.144000
     40 H18        -1.7560    0.1540   -1.1990 ho        1 18J      0.419000
     41 H19         1.6650    0.6300   -2.1270 hc        1 18J      0.046367
     42 H20         2.7330    1.5990   -1.0170 hc        1 18J      0.046367
     43 H21         2.8950   -0.2050   -1.0820 hc        1 18J      0.046367
     44 N20         3.6390   -0.1610    9.6890 nu        1 18J     -0.776900
@<TRIPOS>BOND
     1    1    2 2   
     2    1    6 1   
     3    1   21 1   
     4    2    3 1   
     5    2   22 1   
     6    3    4 1   
     7    3    5 1   
     8    3   23 1   
     9    4    5 1   
    10    4   20 1   
    11    4   24 1   
    12    5    6 1   
    13    5   25 1   
    14    6    7 2   
    15    7   26 1   
    16    7   27 1   
    17    8    9 1   
    18    8   29 1   
    19    8   30 1   
    20    8   31 1   
    21    9   10 1   
    22    9   28 1   
    23    9   32 1   
    24   10   11 2   
    25   10   12 2   
    26   10   44 1   
    27   13   14 2   
    28   13   18 1   
    29   13   44 1   
    30   14   15 1   
    31   14   34 1   
    32   15   16 2   
    33   15   35 1   
    34   16   19 2   
    35   17   18 2   
    36   17   36 1   
    37   17   38 1   
    38   18   37 1   
    39   19   20 2   
    40   20   39 1   
    41   21   40 1   
    42   22   41 1   
    43   22   42 1   
    44   22   43 1   
    45   33   44 1   
@<TRIPOS>SUBSTRUCTURE
     1 18J         1 TEMP              0 ****  ****    0 ROOT
