@<TRIPOS>MOLECULE
18J
   44    44     1     0     0
SMALL
bcc


@<TRIPOS>ATOM
      1 C2         -0.0270    0.5820    0.2720 c2        1 18J      0.195000
      2 C3          1.3720    0.2420    0.0380 c2        1 18J     -0.124000
      3 C4          1.9960   -0.5860    0.9050 c2        1 18J     -0.100000
      4 C5          1.2870   -1.1980    2.0630 c3        1 18J     -0.101000
      5 C6         -0.1060   -0.7770    2.2870 c1        1 18J     -0.075000
      6 C7         -0.7240    0.0840    1.3620 c2        1 18J     -0.276000
      7 C8         -2.1400    0.4580    1.5980 c3        1 18J     -0.160000
      8 C25         5.6810   -2.9660   11.0410 c3        1 18J     -0.193000
      9 C24         4.4400   -2.2720   10.5430 c3        1 18J     -0.857000
     10 S21         4.7950   -0.6620   10.0600 s6        1 18J      2.808000
     11 O23         5.1450    0.0850   11.2050 o         1 18J     -0.924500
     12 O22         5.7340   -0.7000    9.0150 o         1 18J     -0.924500
     13 C17         2.6980   -0.3820    8.3390 c2        1 18J      0.090000
     14 C18         1.5710    0.2860    7.9720 c2        1 18J     -0.191000
     15 C19         0.8390    0.1300    6.7410 c2        1 18J     -0.033000
     16 C14         1.3020   -0.3020    5.5920 c1        1 18J     -0.109000
     17 C15         2.8610   -2.6670    7.4040 c2        1 18J     -0.176000
     18 C16         3.3180   -1.4200    7.4920 c2        1 18J     -0.173000
     19 C12         1.6960   -0.6920    4.4590 c1        1 18J     -0.074000
     20 C11         2.1280   -1.0990    3.2930 c2        1 18J     -0.066000
     21 O1         -0.5560    1.4180   -0.6630 oh        1 18J     -0.236000
     22 C10         2.0460    0.8360   -1.1390 c3        1 18J     -0.174000
     23 H1          3.0600   -0.8430    0.7750 ha        1 18J      0.136000
     24 H2          1.1770   -2.3130    1.8270 hc        1 18J      0.167000
     25 H3         -2.5140   -0.0370    2.5280 hc        1 18J      0.080000
     26 H4         -2.7850    0.1350    0.7420 hc        1 18J      0.080000
     27 H5         -2.2450    1.5650    1.7220 hc        1 18J      0.080000
     28 H6          4.0100   -2.8700    9.6940 h1        1 18J      0.151500
     29 H7          6.0980   -2.4310   11.9310 hc        1 18J      0.093333
     30 H8          6.4610   -2.9980   10.2400 hc        1 18J      0.093333
     31 H9          5.4460   -4.0150   11.3430 hc        1 18J      0.093333
     32 H10         3.6670   -2.3010   11.3550 h1        1 18J      0.151500
     33 H11         2.8620    0.5600   10.1190 hn        1 18J      0.251000
     34 H12         1.1330    1.0400    8.6530 ha        1 18J      0.130000
     35 H13        -0.2220    0.4500    6.7890 ha        1 18J      0.143000
     36 H14         1.9810   -3.0260    7.9550 ha        1 18J      0.122500
     37 H15         4.2050   -1.0770    6.9260 ha        1 18J      0.165000
     38 H16         3.3370   -3.4110    6.7500 ha        1 18J      0.122500
     39 H17         3.1810   -1.4040    3.1630 ha        1 18J      0.132000
     40 H18        -1.4800    1.6090   -0.4290 ho        1 18J      0.240000
     41 H19         1.5160    0.5330   -2.0770 hc        1 18J      0.090000
     42 H20         3.1120    0.5090   -1.2040 hc        1 18J      0.090000
     43 H21         2.0140    1.9530   -1.0740 hc        1 18J      0.090000
     44 N20         3.3450   -0.1070    9.5560 n3        1 18J     -0.827000
@<TRIPOS>BOND
     1    1    2 1   
     2    1    6 1   
     3    1   21 1   
     4    2    3 1   
     5    2   22 1   
     6    3    4 1   
     7    3   23 1   
     8    4    5 1   
     9    4   20 1   
    10    4   24 1   
    11    5    6 1   
    12    6    7 1   
    13    7   25 1   
    14    7   26 1   
    15    7   27 1   
    16    8    9 1   
    17    8   29 1   
    18    8   30 1   
    19    8   31 1   
    20    9   10 1   
    21    9   28 1   
    22    9   32 1   
    23   10   11 1   
    24   10   12 1   
    25   10   44 1   
    26   13   14 1   
    27   13   18 1   
    28   13   44 1   
    29   14   15 1   
    30   14   34 1   
    31   15   16 1   
    32   15   35 1   
    33   16   19 1   
    34   17   18 1   
    35   17   36 1   
    36   17   38 1   
    37   18   37 1   
    38   19   20 1   
    39   20   39 1   
    40   21   40 1   
    41   22   41 1   
    42   22   42 1   
    43   22   43 1   
    44   33   44 1   
@<TRIPOS>SUBSTRUCTURE
     1 18J         1 TEMP              0 ****  ****    0 ROOT
