@<TRIPOS>MOLECULE
18K
   41    43     1     0     0
SMALL
bcc


@<TRIPOS>ATOM
      1 S          -0.0430   -0.5910    0.2220 ss        1 18K     -0.128300
      2 C1          1.9000    0.4630    3.5500 c3        1 18K     -0.130400
      3 N1          2.3360   -0.3520    1.2400 nc        1 18K     -0.710000
      4 C2          1.4230    0.0210    2.2170 cc        1 18K      0.452600
      5 N2          2.2950   -1.0200   -1.1040 nv        1 18K     -0.894500
      6 C3          1.6880   -0.7040    0.1070 cd        1 18K      0.630300
      7 N3         -3.4710    0.7360    4.0110 nb        1 18K     -0.735000
      8 C4          0.0810   -0.0670    1.8300 cd        1 18K     -0.306900
      9 N4         -2.1150    0.8170    6.0110 nu        1 18K     -0.692300
     10 C5         -1.1130    0.2190    2.6010 ca        1 18K      0.584800
     11 N5         -6.4090    0.3310    9.6800 nh        1 18K     -0.651000
     12 C6         -2.3420    0.3670    1.9040 ca        1 18K     -0.428600
     13 N6         -1.0450    0.3190    3.9490 nb        1 18K     -0.755000
     14 C7         -3.4850    0.6190    2.6740 ca        1 18K      0.465200
     15 C8         -2.2310    0.5970    4.6200 ca        1 18K      0.868900
     16 C9         -3.2310    0.6460    6.8690 ca        1 18K      0.074600
     17 C10        -3.2100   -0.3350    7.8810 ca        1 18K     -0.096000
     18 C11        -4.2580   -0.4570    8.7820 ca        1 18K     -0.179000
     19 C12        -5.3840    0.3980    8.7140 ca        1 18K      0.153600
     20 C13        -7.6500    0.9920    9.3660 c3        1 18K      0.183100
     21 C14        -6.5210   -0.8960   10.4280 c3        1 18K      0.183100
     22 C15        -5.4030    1.3690    7.6850 ca        1 18K     -0.179000
     23 C16        -4.3490    1.4980    6.7910 ca        1 18K     -0.096000
     24 H1          1.6080   -0.2960    4.3190 hc        1 18K      0.062367
     25 H1A         1.4250    1.4400    3.8140 hc        1 18K      0.062367
     26 H1B         3.0110    0.5860    3.5740 hc        1 18K      0.062367
     27 HN2         3.2930   -1.0730   -1.0740 hn        1 18K      0.405300
     28 HN2A        1.8760   -1.7990   -1.5650 hn        1 18K      0.405300
     29 HN4        -1.2560    0.4830    6.4050 hn        1 18K      0.430800
     30 H6         -2.3930    0.2900    0.8120 ha        1 18K      0.153000
     31 H7         -4.4770    0.7360    2.2000 h4        1 18K      0.026100
     32 H10        -2.3530   -1.0210    7.9730 ha        1 18K      0.140500
     33 H11        -4.1880   -1.2360    9.5550 ha        1 18K      0.134500
     34 H13        -7.4700    2.1000    9.3210 h1        1 18K      0.037867
     35 H13A       -8.4020    0.7930   10.1740 h1        1 18K      0.037867
     36 H13B       -8.0830    0.6580    8.3830 h1        1 18K      0.037867
     37 H14        -5.6290   -0.9920   11.1040 h1        1 18K      0.037867
     38 H14A       -7.4420   -0.8710   11.0680 h1        1 18K      0.037867
     39 H14B       -6.5700   -1.8040    9.7660 h1        1 18K      0.037867
     40 H15        -6.2570    2.0550    7.5750 ha        1 18K      0.134500
     41 H16        -4.4030    2.2750    6.0120 ha        1 18K      0.140500
@<TRIPOS>BOND
     1    1    6 1   
     2    1    8 1   
     3    2    4 1   
     4    2   24 1   
     5    2   25 1   
     6    2   26 1   
     7    3    4 1   
     8    3    6 2   
     9    4    8 2   
    10    5    6 1   
    11    5   27 1   
    12    5   28 1   
    13    7   14 ar  
    14    7   15 ar  
    15    8   10 1   
    16    9   15 1   
    17    9   16 1   
    18    9   29 1   
    19   10   12 ar  
    20   10   13 ar  
    21   11   19 1   
    22   11   20 1   
    23   11   21 1   
    24   12   14 ar  
    25   12   30 1   
    26   13   15 ar  
    27   14   31 1   
    28   16   17 ar  
    29   16   23 ar  
    30   17   18 ar  
    31   17   32 1   
    32   18   19 ar  
    33   18   33 1   
    34   19   22 ar  
    35   20   34 1   
    36   20   35 1   
    37   20   36 1   
    38   21   37 1   
    39   21   38 1   
    40   21   39 1   
    41   22   23 ar  
    42   22   40 1   
    43   23   41 1   
@<TRIPOS>SUBSTRUCTURE
     1 18K         1 TEMP              0 ****  ****    0 ROOT
