@<TRIPOS>MOLECULE
18K
   41    43     1     0     0
SMALL
bcc


@<TRIPOS>ATOM
      1 S          -4.7610    0.9110    0.6960 ss        1 18K     -0.127300
      2 C1         -3.2680   -2.4370   -0.8920 c3        1 18K     -0.130400
      3 N1         -5.3990   -1.5100   -0.0050 nc        1 18K     -0.710000
      4 C2         -4.0510   -1.3330   -0.2870 cc        1 18K      0.451600
      5 N2         -7.2580   -0.1660    0.8210 nh        1 18K     -0.894500
      6 C3         -5.9150   -0.3790    0.5280 cd        1 18K      0.630300
      7 N3          0.3910    1.4860   -0.3040 nb        1 18K     -0.733000
      8 C4         -3.5410   -0.0740    0.0480 cd        1 18K     -0.305900
      9 N4          1.1480   -0.7700   -0.7360 nh        1 18K     -0.691300
     10 C5         -2.1890    0.4300   -0.0870 ca        1 18K      0.584800
     11 N5          6.5910    0.3360    0.4130 nh        1 18K     -0.652000
     12 C6         -1.9820    1.8310    0.0150 ca        1 18K     -0.427600
     13 N6         -1.1600   -0.4260   -0.2860 nb        1 18K     -0.755000
     14 C7         -0.6630    2.2910   -0.0970 ca        1 18K      0.465200
     15 C8          0.1080    0.1310   -0.4090 ca        1 18K      0.867900
     16 C9          2.4980   -0.4620   -0.4260 ca        1 18K      0.073600
     17 C10         3.2300   -1.2790    0.4600 ca        1 18K     -0.096000
     18 C11         4.5750   -1.0450    0.7040 ca        1 18K     -0.179500
     19 C12         5.2530    0.0360    0.0900 ca        1 18K      0.154600
     20 C13         7.3010    1.2150   -0.4810 c3        1 18K      0.183100
     21 C14         7.3720   -0.7170    1.0130 c3        1 18K      0.183100
     22 C15         4.5110    0.8460   -0.8020 ca        1 18K     -0.179500
     23 C16         3.1680    0.6050   -1.0540 ca        1 18K     -0.096000
     24 H1         -2.7210   -2.0610   -1.7930 hc        1 18K      0.062033
     25 H1A        -2.5190   -2.8120   -0.1500 hc        1 18K      0.062033
     26 H1B        -3.9210   -3.2900   -1.2020 hc        1 18K      0.062033
     27 HN2        -7.4030    0.3030    1.6890 hn        1 18K      0.405300
     28 HN2A       -7.8460   -0.9660    0.7060 hn        1 18K      0.405300
     29 HN4         0.9150   -1.7310   -0.5760 hn        1 18K      0.428800
     30 H6         -2.8180    2.5230    0.1710 ha        1 18K      0.153000
     31 H7         -0.4260    3.3690   -0.0180 h4        1 18K      0.026100
     32 H10         2.7420   -2.1260    0.9670 ha        1 18K      0.141000
     33 H11         5.1000   -1.7180    1.3980 ha        1 18K      0.134500
     34 H13         8.3730    1.2990   -0.1610 h1        1 18K      0.037533
     35 H13A        7.2720    0.8620   -1.5480 h1        1 18K      0.037533
     36 H13B        6.8390    2.2370   -0.4280 h1        1 18K      0.037533
     37 H14         7.3450   -1.6690    0.4170 h1        1 18K      0.037533
     38 H14A        8.4390   -0.3890    1.1170 h1        1 18K      0.037533
     39 H14B        6.9700   -0.9250    2.0410 h1        1 18K      0.037533
     40 H15         4.9860    1.6950   -1.3180 ha        1 18K      0.134500
     41 H16         2.6310    1.2630   -1.7560 ha        1 18K      0.141000
@<TRIPOS>BOND
     1    1    6 1   
     2    1    8 1   
     3    2    4 1   
     4    2   24 1   
     5    2   25 1   
     6    2   26 1   
     7    3    4 1   
     8    3    6 2   
     9    4    8 2   
    10    5    6 1   
    11    5   27 1   
    12    5   28 1   
    13    7   14 ar  
    14    7   15 ar  
    15    8   10 1   
    16    9   15 1   
    17    9   16 1   
    18    9   29 1   
    19   10   12 ar  
    20   10   13 ar  
    21   11   19 1   
    22   11   20 1   
    23   11   21 1   
    24   12   14 ar  
    25   12   30 1   
    26   13   15 ar  
    27   14   31 1   
    28   16   17 ar  
    29   16   23 ar  
    30   17   18 ar  
    31   17   32 1   
    32   18   19 ar  
    33   18   33 1   
    34   19   22 ar  
    35   20   34 1   
    36   20   35 1   
    37   20   36 1   
    38   21   37 1   
    39   21   38 1   
    40   21   39 1   
    41   22   23 ar  
    42   22   40 1   
    43   23   41 1   
@<TRIPOS>SUBSTRUCTURE
     1 18K         1 TEMP              0 ****  ****    0 ROOT
