@<TRIPOS>MOLECULE
18K
   44    46     1     0     0
SMALL
bcc


@<TRIPOS>ATOM
      1 S          -0.3160    0.6220    0.3210 ss        1 18K      0.187700
      2 C1          1.9700   -0.5490    3.3740 c3        1 18K     -0.150400
      3 N1          2.1450    0.3990    1.0820 nc        1 18K     -0.573000
      4 C2          1.3590   -0.0500    2.1190 cc        1 18K      0.463600
      5 N2          1.9560    1.2990   -1.1760 n4        1 18K     -0.785300
      6 C3          1.3550    0.7900    0.0480 cd        1 18K      0.367300
      7 N3         -3.1010   -1.3280    4.4790 nb        1 18K     -0.654000
      8 C4         -0.0310    0.0070    1.8460 cd        1 18K     -0.326900
      9 N4         -1.8810   -0.2790    6.3320 n4        1 18K     -0.618100
     10 C5         -1.0870   -0.4290    2.7480 ca        1 18K      0.559800
     11 N5         -6.7200    0.4790    9.3230 n4        1 18K     -0.562800
     12 C6         -2.1680   -1.1970    2.2490 ca        1 18K     -0.293600
     13 N6         -1.0060   -0.1020    4.0720 nb        1 18K     -0.659000
     14 C7         -3.1540   -1.6200    3.1640 ca        1 18K      0.482200
     15 C8         -2.0160   -0.5820    4.8630 ca        1 18K      0.709900
     16 C9         -3.1560   -0.0820    7.0360 ca        1 18K      0.003600
     17 C10        -3.9140   -1.1950    7.4400 ca        1 18K     -0.064500
     18 C11        -5.0810   -1.0040    8.1810 ca        1 18K     -0.083500
     19 C12        -5.4990    0.2960    8.5160 ca        1 18K      0.019600
     20 C13        -7.7570    1.2550    8.5790 c3        1 18K      0.083600
     21 C14        -6.4120    1.1220   10.6360 c3        1 18K      0.083600
     22 C15        -4.7510    1.4070    8.0870 ca        1 18K     -0.083500
     23 C16        -3.5860    1.2210    7.3450 ca        1 18K     -0.064500
     24 H1          1.4380   -1.4710    3.7150 hc        1 18K      0.086367
     25 H1A         3.0560   -0.7970    3.2390 hc        1 18K      0.086367
     26 H1B         1.8890    0.2400    4.1650 hc        1 18K      0.086367
     27 HN2         2.5380    0.5630   -1.6120 hn        1 18K      0.490133
     28 HN2A        2.5670    2.1060   -0.9600 hn        1 18K      0.490133
     29 HN4        -1.2970    0.5670    6.4450 hn        1 18K      0.490300
     30 H6         -2.2360   -1.4790    1.1870 ha        1 18K      0.202000
     31 H7         -4.0270   -2.2300    2.8410 h4        1 18K      0.094100
     32 H10        -3.6110   -2.2280    7.1840 ha        1 18K      0.192500
     33 H11        -5.6530   -1.9000    8.4920 ha        1 18K      0.192500
     34 H13        -7.3860    2.2960    8.3850 hx        1 18K      0.118367
     35 H13A       -8.6900    1.3020    9.2080 hx        1 18K      0.118367
     36 H13B       -7.9820    0.7420    7.6060 hx        1 18K      0.118367
     37 H14        -7.3610    1.1800   11.2390 hx        1 18K      0.118367
     38 H14A       -5.6520    0.5050   11.1860 hx        1 18K      0.118367
     39 H14B       -6.0140    2.1580   10.4670 hx        1 18K      0.118367
     40 H15        -5.0630    2.4410    8.3280 ha        1 18K      0.192500
     41 H16        -3.0180    2.1150    7.0240 ha        1 18K      0.192500
     42 H23         1.2260    1.5930   -1.8360 hn        1 18K      0.490133
     43 H42        -1.3890   -1.0830    6.7590 hn        1 18K      0.490300
     44 H51        -7.1110   -0.4590    9.5180 hn        1 18K      0.469800
@<TRIPOS>BOND
     1    1    6 1   
     2    1    8 1   
     3    2    4 1   
     4    2   24 1   
     5    2   25 1   
     6    2   26 1   
     7    3    4 1   
     8    3    6 2   
     9    4    8 2   
    10    5    6 1   
    11    5   27 1   
    12    5   28 1   
    13    5   42 1   
    14    7   14 ar  
    15    7   15 ar  
    16    8   10 1   
    17    9   15 1   
    18    9   16 1   
    19    9   29 1   
    20    9   43 1   
    21   10   12 ar  
    22   10   13 ar  
    23   11   19 1   
    24   11   20 1   
    25   11   21 1   
    26   11   44 1   
    27   12   14 ar  
    28   12   30 1   
    29   13   15 ar  
    30   14   31 1   
    31   16   17 ar  
    32   16   23 ar  
    33   17   18 ar  
    34   17   32 1   
    35   18   19 ar  
    36   18   33 1   
    37   19   22 ar  
    38   20   34 1   
    39   20   35 1   
    40   20   36 1   
    41   21   37 1   
    42   21   38 1   
    43   21   39 1   
    44   22   23 ar  
    45   22   40 1   
    46   23   41 1   
@<TRIPOS>SUBSTRUCTURE
     1 18K         1 TEMP              0 ****  ****    0 ROOT
