@<TRIPOS>MOLECULE
18K
   41    38     1     0     0
SMALL
bcc


@<TRIPOS>ATOM
      1 S           4.4180    1.0650   -1.6320 ss        1 18K      0.548000
      2 C1          5.2100   -2.7750   -1.7030 c3        1 18K     -0.158000
      3 N1          6.4240   -0.2660   -1.6770 n2        1 18K     -0.175000
      4 C2          5.1690   -1.2180   -1.6690 c2        1 18K     -0.011000
      5 N2          7.0710    2.0560   -1.6900 n3        1 18K     -0.286000
      6 C3          5.9710    1.0830   -1.6550 c2        1 18K     -0.178000
      7 N3         -0.1920   -0.5940   -1.8820 n1        1 18K     -0.203000
      8 C4          3.9770   -0.3970   -1.6420 c1        1 18K     -0.408000
      9 N4          0.1070   -0.3550    0.6900 n3        1 18K     -0.216000
     10 C5          2.5230   -0.4050   -1.8400 c1        1 18K      0.138000
     11 N5         -5.2260    0.8000    2.2820 n3        1 18K     -0.242000
     12 C6          1.8510   -0.5720   -3.0320 c2        1 18K     -0.275000
     13 N6          1.8360   -0.3340   -0.6880 n1        1 18K     -0.234000
     14 C7          0.4960   -0.6650   -3.0400 c1        1 18K     -0.006000
     15 C8          0.4720   -0.4280   -0.7000 c1        1 18K      0.149000
     16 C9         -1.2530   -0.0840    1.0600 c2        1 18K      0.010000
     17 C10        -2.0770   -1.1200    1.4810 c2        1 18K     -0.138000
     18 C11        -3.3960   -0.8470    1.9060 c1        1 18K     -0.168000
     19 C12        -3.8710    0.4720    1.9030 c1        1 18K      0.045000
     20 C13        -6.1690    1.1900    1.2860 c3        1 18K     -0.103500
     21 C14        -5.6590    0.6490    3.6700 c3        1 18K     -0.103500
     22 C15        -3.0370    1.5090    1.4800 c1        1 18K     -0.148000
     23 C16        -1.7230    1.2260    1.0570 c1        1 18K     -0.080000
     24 H1          4.8730   -3.0920   -2.5660 hc        1 18K      0.096333
     25 H1A         4.6300   -3.1490   -0.9560 hc        1 18K      0.096333
     26 H1B         6.2020   -3.0980   -1.5720 hc        1 18K      0.096333
     27 HN2         6.8890    2.9450   -1.7420 hn        1 18K      0.194500
     28 HN2A        7.9180    1.7720   -1.7120 hn        1 18K      0.194500
     29 HN4         0.7760   -0.4140    1.3590 hn        1 18K      0.228000
     30 H6          2.3670   -0.6260   -3.9000 ha        1 18K      0.158000
     31 H7          0.0120   -0.7860   -3.8950 ha        1 18K      0.164000
     32 H10        -1.7420   -2.0370    1.4840 ha        1 18K      0.131000
     33 H11        -3.9700   -1.5690    2.1990 ha        1 18K      0.134000
     34 H13        -5.7280    1.7170    0.6120 h1        1 18K      0.075833
     35 H13A       -6.8370    1.6910    1.6780 h1        1 18K      0.075833
     36 H13B       -6.5690    0.3720    0.8640 h1        1 18K      0.075833
     37 H14        -6.6120    0.6250    3.7000 h1        1 18K      0.075833
     38 H14A       -5.2990   -0.1860    4.0410 h1        1 18K      0.075833
     39 H14B       -5.3290    1.4230    4.2090 h1        1 18K      0.075833
     40 H15        -3.3730    2.4580    1.4770 ha        1 18K      0.139000
     41 H16        -1.1280    1.9660    0.7570 ha        1 18K      0.153000
@<TRIPOS>BOND
     1    1    6 1   
     2    1    8 1   
     3    2    4 1   
     4    2   24 1   
     5    2   25 1   
     6    2   26 1   
     7    3    4 1   
     8    3    6 1   
     9    4    8 1   
    10    5    6 1   
    11    5   27 1   
    12    5   28 1   
    13    7   15 1   
    14    9   15 1   
    15    9   16 1   
    16    9   29 1   
    17   10   12 1   
    18   10   13 1   
    19   11   19 1   
    20   11   20 1   
    21   11   21 1   
    22   12   14 1   
    23   12   30 1   
    24   14   31 1   
    25   16   17 1   
    26   16   23 1   
    27   17   18 1   
    28   17   32 1   
    29   18   33 1   
    30   19   22 1   
    31   20   34 1   
    32   20   35 1   
    33   20   36 1   
    34   21   37 1   
    35   21   38 1   
    36   21   39 1   
    37   22   40 1   
    38   23   41 1   
@<TRIPOS>SUBSTRUCTURE
     1 18K         1 TEMP              0 ****  ****    0 ROOT
