@<TRIPOS>MOLECULE
18K
   41    43     1     0     0
SMALL
bcc


@<TRIPOS>ATOM
      1 S          -0.0350   -0.5850    0.2250 ss        1 18K     -0.128300
      2 C1          1.9030    0.4640    3.5580 c3        1 18K     -0.130400
      3 N1          2.3430   -0.3460    1.2470 nc        1 18K     -0.710000
      4 C2          1.4280    0.0250    2.2230 cc        1 18K      0.452600
      5 N2          2.3060   -1.0100   -1.0970 nh        1 18K     -0.894500
      6 C3          1.6970   -0.6970    0.1130 cd        1 18K      0.630300
      7 N3         -3.4690    0.7350    4.0110 nb        1 18K     -0.735000
      8 C4          0.0870   -0.0630    1.8340 cd        1 18K     -0.306900
      9 N4         -2.1160    0.8150    6.0130 nh        1 18K     -0.692300
     10 C5         -1.1080    0.2210    2.6030 ca        1 18K      0.584800
     11 N5         -6.4150    0.3270    9.6750 nh        1 18K     -0.651000
     12 C6         -2.3360    0.3680    1.9050 ca        1 18K     -0.428600
     13 N6         -1.0420    0.3200    3.9520 nb        1 18K     -0.755000
     14 C7         -3.4810    0.6190    2.6740 ca        1 18K      0.465200
     15 C8         -2.2300    0.5960    4.6210 ca        1 18K      0.868900
     16 C9         -3.2330    0.6440    6.8690 ca        1 18K      0.074600
     17 C10        -3.2140   -0.3380    7.8800 ca        1 18K     -0.096000
     18 C11        -4.2630   -0.4600    8.7800 ca        1 18K     -0.179000
     19 C12        -5.3890    0.3940    8.7100 ca        1 18K      0.153600
     20 C13        -7.6560    0.9880    9.3590 c3        1 18K      0.183100
     21 C14        -6.5290   -0.9010   10.4220 c3        1 18K      0.183100
     22 C15        -5.4070    1.3660    7.6820 ca        1 18K     -0.179000
     23 C16        -4.3520    1.4950    6.7890 ca        1 18K     -0.096000
     24 H1          1.4270    1.4420    3.8230 hc        1 18K      0.062367
     25 H1A         3.0140    0.5880    3.5840 hc        1 18K      0.062367
     26 H1B         1.6090   -0.2950    4.3250 hc        1 18K      0.062367
     27 HN2         1.8880   -1.7890   -1.5610 hn        1 18K      0.405300
     28 HN2A        3.3040   -1.0630   -1.0660 hn        1 18K      0.405300
     29 HN4        -1.2580    0.4810    6.4080 hn        1 18K      0.430800
     30 H6         -2.3850    0.2920    0.8130 ha        1 18K      0.153000
     31 H7         -4.4730    0.7350    2.1980 h4        1 18K      0.026100
     32 H10        -2.3560   -1.0240    7.9740 ha        1 18K      0.140500
     33 H11        -4.1940   -1.2400    9.5530 ha        1 18K      0.134500
     34 H13        -7.4760    2.0950    9.3160 h1        1 18K      0.037867
     35 H13A       -8.0880    0.6540    8.3760 h1        1 18K      0.037867
     36 H13B       -8.4090    0.7890   10.1670 h1        1 18K      0.037867
     37 H14        -6.5760   -1.8080    9.7590 h1        1 18K      0.037867
     38 H14A       -7.4510   -0.8760   11.0600 h1        1 18K      0.037867
     39 H14B       -5.6380   -0.9970   11.0990 h1        1 18K      0.037867
     40 H15        -6.2610    2.0510    7.5710 ha        1 18K      0.134500
     41 H16        -4.4050    2.2720    6.0100 ha        1 18K      0.140500
@<TRIPOS>BOND
     1    1    6 1   
     2    1    8 1   
     3    2    4 1   
     4    2   24 1   
     5    2   25 1   
     6    2   26 1   
     7    3    4 1   
     8    3    6 2   
     9    4    8 2   
    10    5    6 1   
    11    5   27 1   
    12    5   28 1   
    13    7   14 ar  
    14    7   15 ar  
    15    8   10 1   
    16    9   15 1   
    17    9   16 1   
    18    9   29 1   
    19   10   12 ar  
    20   10   13 ar  
    21   11   19 1   
    22   11   20 1   
    23   11   21 1   
    24   12   14 ar  
    25   12   30 1   
    26   13   15 ar  
    27   14   31 1   
    28   16   17 ar  
    29   16   23 ar  
    30   17   18 ar  
    31   17   32 1   
    32   18   19 ar  
    33   18   33 1   
    34   19   22 ar  
    35   20   34 1   
    36   20   35 1   
    37   20   36 1   
    38   21   37 1   
    39   21   38 1   
    40   21   39 1   
    41   22   23 ar  
    42   22   40 1   
    43   23   41 1   
@<TRIPOS>SUBSTRUCTURE
     1 18K         1 TEMP              0 ****  ****    0 ROOT
