@<TRIPOS>MOLECULE
18L
   66    65     1     0     0
SMALL
bcc


@<TRIPOS>ATOM
      1 C1          0.1090    0.7070   -0.3190 c3        1 18L      0.218400
      2 O1          1.5020    0.5920   -2.8290 o         1 18L     -0.927833
      3 P1          0.0110    0.7740   -2.9270 p5        1 18L      1.308900
      4 C2          1.1290   -0.2430    0.3700 c3        1 18L      0.084100
      5 O2         -0.4710    2.1880   -2.7520 o         1 18L     -0.927833
      6 C3          1.4230    0.2480    1.7840 c3        1 18L      0.141400
      7 O3         -0.7280   -0.0920   -3.9040 o         1 18L     -0.927833
      8 C4          3.1830   -0.0720    3.3790 c         1 18L      0.626100
      9 O4         -0.4630    0.0700   -1.3820 os        1 18L     -0.559200
     10 C5          4.5610   -0.6340    3.5880 c3        1 18L     -0.135400
     11 O5          0.6050   -1.5610    0.4800 oh        1 18L     -0.663800
     12 C6          5.3320    0.1710    4.6110 c3        1 18L     -0.077400
     13 O6          2.7540   -0.2210    2.1100 os        1 18L     -0.410900
     14 C7          6.6660   -0.4740    4.9160 c3        1 18L     -0.078400
     15 O7          2.4620    0.4630    4.2330 o         1 18L     -0.593000
     16 C8          7.4480    0.3360    5.9280 c3        1 18L     -0.078400
     17 C9          8.7830   -0.3080    6.2340 c3        1 18L     -0.079400
     18 C10         9.5630    0.4980    7.2500 c3        1 18L     -0.077400
     19 C11        10.8990   -0.1480    7.5520 c3        1 18L     -0.052200
     20 C12        11.6840    0.6160    8.5490 c2        1 18L     -0.162200
     21 C13        12.9210    0.2840    8.9370 c2        1 18L     -0.184200
     22 C14        13.6560   -0.8880    8.4050 c3        1 18L     -0.019000
     23 C15        14.9590   -1.1300    9.0690 c2        1 18L     -0.164200
     24 C16        15.8030   -2.1020    8.7050 c2        1 18L     -0.182200
     25 C17        15.5400   -3.0470    7.5950 c3        1 18L     -0.049200
     26 C18        16.6460   -4.0700    7.4370 c3        1 18L     -0.075400
     27 C19        16.3500   -5.0220    6.2980 c3        1 18L     -0.081400
     28 C20        17.4530   -6.0470    6.1350 c3        1 18L     -0.079400
     29 C21        17.1620   -6.9970    5.0030 c3        1 18L     -0.093100
     30 H1          0.6430    1.6470   -0.6310 h1        1 18L     -0.005300
     31 H1A        -0.6800    0.9640    0.4520 h1        1 18L     -0.005300
     32 H2          2.0700   -0.2860   -0.2460 h1        1 18L      0.086700
     33 H3          0.7020   -0.1640    2.5330 h1        1 18L      0.045200
     34 H3A         1.4380    1.3670    1.8310 h1        1 18L      0.045200
     35 H5          4.4420   -1.6950    3.9330 hc        1 18L      0.071700
     36 H5A         5.1060   -0.6530    2.6070 hc        1 18L      0.071700
     37 HO5         0.0300   -1.6730   -0.2970 ho        1 18L      0.447000
     38 H6          4.7220    0.2610    5.5500 hc        1 18L      0.053200
     39 H6A         5.4930    1.2120    4.2230 hc        1 18L      0.053200
     40 H7          6.5020   -1.5110    5.3100 hc        1 18L      0.038200
     41 H7A         7.2620   -0.5700    3.9700 hc        1 18L      0.038200
     42 H8          6.8510    0.4330    6.8730 hc        1 18L      0.040200
     43 H8A         7.6120    1.3730    5.5330 hc        1 18L      0.040200
     44 H9          8.6180   -1.3470    6.6240 hc        1 18L      0.038200
     45 H9A         9.3800   -0.4010    5.2880 hc        1 18L      0.038200
     46 H10         9.7270    1.5370    6.8600 hc        1 18L      0.041200
     47 H10A        8.9660    0.5900    8.1960 hc        1 18L      0.041200
     48 H11        11.4930   -0.2440    6.6020 hc        1 18L      0.047700
     49 H11A       10.7320   -1.1940    7.9330 hc        1 18L      0.047700
     50 H12        11.1880    1.5040    8.9760 ha        1 18L      0.123000
     51 H13        13.4520    0.8960    9.6840 ha        1 18L      0.117000
     52 H14        13.0130   -1.8100    8.5050 hc        1 18L      0.058200
     53 H14A       13.8230   -0.7460    7.2970 hc        1 18L      0.058200
     54 H15        15.2140   -0.4580    9.9040 ha        1 18L      0.119000
     55 H16        16.7580   -2.2360    9.2380 ha        1 18L      0.117000
     56 H17        14.5630   -3.5750    7.7760 hc        1 18L      0.050200
     57 H17A       15.4210   -2.4720    6.6360 hc        1 18L      0.050200
     58 H18        16.7630   -4.6490    8.3910 hc        1 18L      0.037700
     59 H18A       17.6190   -3.5460    7.2460 hc        1 18L      0.037700
     60 H19        16.2320   -4.4430    5.3440 hc        1 18L      0.042700
     61 H19A       15.3760   -5.5460    6.4890 hc        1 18L      0.042700
     62 H20        17.5710   -6.6230    7.0900 hc        1 18L      0.035700
     63 H20A       18.4260   -5.5210    5.9460 hc        1 18L      0.035700
     64 H21        16.2070   -7.5480    5.1860 hc        1 18L      0.032700
     65 H21A       17.9860   -7.7430    4.8990 hc        1 18L      0.032700
     66 H21B       17.0640   -6.4420    4.0380 hc        1 18L      0.032700
@<TRIPOS>BOND
     1    1    4 1   
     2    1    9 1   
     3    1   30 1   
     4    1   31 1   
     5    2    3 1   
     6    3    5 1   
     7    3    7 1   
     8    3    9 1   
     9    4    6 1   
    10    4   11 1   
    11    4   32 1   
    12    6   13 1   
    13    6   33 1   
    14    6   34 1   
    15    8   10 1   
    16    8   13 1   
    17    8   15 2   
    18   10   12 1   
    19   10   35 1   
    20   10   36 1   
    21   11   37 1   
    22   12   14 1   
    23   12   38 1   
    24   12   39 1   
    25   14   16 1   
    26   14   40 1   
    27   14   41 1   
    28   16   17 1   
    29   16   42 1   
    30   16   43 1   
    31   17   18 1   
    32   17   44 1   
    33   17   45 1   
    34   18   19 1   
    35   18   46 1   
    36   18   47 1   
    37   19   20 1   
    38   19   48 1   
    39   19   49 1   
    40   20   21 2   
    41   20   50 1   
    42   21   22 1   
    43   21   51 1   
    44   22   23 1   
    45   22   52 1   
    46   22   53 1   
    47   23   24 2   
    48   23   54 1   
    49   24   25 1   
    50   24   55 1   
    51   25   26 1   
    52   25   56 1   
    53   25   57 1   
    54   26   27 1   
    55   26   58 1   
    56   26   59 1   
    57   27   28 1   
    58   27   60 1   
    59   27   61 1   
    60   28   29 1   
    61   28   62 1   
    62   28   63 1   
    63   29   64 1   
    64   29   65 1   
    65   29   66 1   
@<TRIPOS>SUBSTRUCTURE
     1 18L         1 TEMP              0 ****  ****    0 ROOT
