@<TRIPOS>MOLECULE
18L
   66    65     1     0     0
SMALL
bcc


@<TRIPOS>ATOM
      1 C1          7.6080    0.1240    0.8130 c3        1 18L      0.209400
      2 O1         10.4440    0.3920    0.6330 o         1 18L     -0.921167
      3 P1          9.9410   -1.0230    0.5710 p5        1 18L      1.319900
      4 C2          6.3610   -0.4610    0.0970 c3        1 18L      0.120100
      5 O2          9.4690   -1.4650   -0.7970 o         1 18L     -0.921167
      6 C3          5.5290    0.6950   -0.4800 c3        1 18L      0.122400
      7 O3         10.6440   -2.0460    1.4110 o         1 18L     -0.921167
      8 C4          3.1950    1.1030   -0.8530 c         1 18L      0.624100
      9 O4          8.3800   -0.8750    1.3340 os        1 18L     -0.558200
     10 C5          1.8100    0.5440   -0.6810 c3        1 18L     -0.136400
     11 O5          6.6780   -1.3360   -0.9560 oh        1 18L     -0.688800
     12 C6          0.7860    1.6490   -0.5390 c3        1 18L     -0.077400
     13 O6          4.1410    0.3130   -0.3070 os        1 18L     -0.418900
     14 C7         -0.6190    1.0870   -0.5130 c3        1 18L     -0.078400
     15 O7          3.5000    2.1550   -1.4290 o         1 18L     -0.586000
     16 C8         -1.6460    2.1870   -0.3540 c3        1 18L     -0.078400
     17 C9         -3.0520    1.6270   -0.3310 c3        1 18L     -0.079400
     18 C10        -4.0800    2.7280   -0.1740 c3        1 18L     -0.077400
     19 C11        -5.4860    2.1630   -0.1490 c3        1 18L     -0.052200
     20 C12        -6.5150    3.2170    0.0030 c2        1 18L     -0.162200
     21 C13        -7.8240    2.9690    0.1200 c2        1 18L     -0.184200
     22 C14        -8.3990    1.6020    0.1200 c3        1 18L     -0.019000
     23 C15        -9.8800    1.5750    0.1450 c2        1 18L     -0.164200
     24 C16       -10.5970    0.4480    0.2140 c2        1 18L     -0.182200
     25 C17        -9.9980   -0.9050    0.2810 c3        1 18L     -0.049200
     26 C18       -11.0460   -1.9980    0.2980 c3        1 18L     -0.075400
     27 C19       -10.4050   -3.3680    0.3650 c3        1 18L     -0.081400
     28 C20       -11.4490   -4.4650    0.3830 c3        1 18L     -0.079400
     29 C21       -10.8150   -5.8300    0.4490 c3        1 18L     -0.093100
     30 H1          8.1890    0.7550    0.0810 h1        1 18L     -0.005800
     31 H1A         7.2170    0.7890    1.6420 h1        1 18L     -0.005800
     32 H2          5.7320   -1.0310    0.8380 h1        1 18L      0.021700
     33 H3          5.6870    1.6530    0.0750 h1        1 18L      0.046700
     34 H3A         5.7280    0.8410   -1.5710 h1        1 18L      0.046700
     35 H5          1.5880   -0.0830   -1.5860 hc        1 18L      0.068700
     36 H5A         1.7900   -0.1310    0.2140 hc        1 18L      0.068700
     37 HO5         7.6660   -1.4880   -0.9340 ho        1 18L      0.507000
     38 H6          0.9830    2.2220    0.4040 hc        1 18L      0.053200
     39 H6A         0.8980    2.3700   -1.3920 hc        1 18L      0.053200
     40 H7         -0.8170    0.5220   -1.4630 hc        1 18L      0.036700
     41 H7A        -0.7170    0.3550    0.3320 hc        1 18L      0.036700
     42 H8         -1.4490    2.7500    0.5960 hc        1 18L      0.040700
     43 H8A        -1.5460    2.9190   -1.1990 hc        1 18L      0.040700
     44 H9         -3.2480    1.0620   -1.2800 hc        1 18L      0.038200
     45 H9A        -3.1510    0.8960    0.5150 hc        1 18L      0.038200
     46 H10        -3.8840    3.2920    0.7750 hc        1 18L      0.041200
     47 H10A       -3.9820    3.4570   -1.0200 hc        1 18L      0.041200
     48 H11        -5.6770    1.5910   -1.0990 hc        1 18L      0.047700
     49 H11A       -5.5790    1.4240    0.6940 hc        1 18L      0.047700
     50 H12        -6.1440    4.2550    0.0140 ha        1 18L      0.123000
     51 H13        -8.5400    3.8000    0.2300 ha        1 18L      0.118000
     52 H14        -8.0340    1.0440   -0.7900 hc        1 18L      0.057700
     53 H14A       -8.0010    1.0350    1.0120 hc        1 18L      0.057700
     54 H15       -10.3880    2.5530    0.0980 ha        1 18L      0.120000
     55 H16       -11.6990    0.4900    0.2260 ha        1 18L      0.117000
     56 H17        -9.3130   -1.0550   -0.5990 hc        1 18L      0.049700
     57 H17A       -9.3570   -0.9840    1.2030 hc        1 18L      0.049700
     58 H18       -11.7240   -1.8560    1.1810 hc        1 18L      0.038200
     59 H18A      -11.6820   -1.9250   -0.6230 hc        1 18L      0.038200
     60 H19        -9.7270   -3.5100   -0.5170 hc        1 18L      0.042700
     61 H19A       -9.7680   -3.4410    1.2860 hc        1 18L      0.042700
     62 H20       -12.1270   -4.3200    1.2650 hc        1 18L      0.035700
     63 H20A      -12.0860   -4.3890   -0.5380 hc        1 18L      0.035700
     64 H21       -10.1960   -5.9320    1.3730 hc        1 18L      0.032700
     65 H21A      -11.6010   -6.6230    0.4620 hc        1 18L      0.032700
     66 H21B      -10.1540   -6.0010   -0.4350 hc        1 18L      0.032700
@<TRIPOS>BOND
     1    1    4 1   
     2    1    9 1   
     3    1   30 1   
     4    1   31 1   
     5    2    3 1   
     6    3    5 1   
     7    3    7 1   
     8    3    9 1   
     9    4    6 1   
    10    4   11 1   
    11    4   32 1   
    12    6   13 1   
    13    6   33 1   
    14    6   34 1   
    15    8   10 1   
    16    8   13 1   
    17    8   15 2   
    18   10   12 1   
    19   10   35 1   
    20   10   36 1   
    21   11   37 1   
    22   12   14 1   
    23   12   38 1   
    24   12   39 1   
    25   14   16 1   
    26   14   40 1   
    27   14   41 1   
    28   16   17 1   
    29   16   42 1   
    30   16   43 1   
    31   17   18 1   
    32   17   44 1   
    33   17   45 1   
    34   18   19 1   
    35   18   46 1   
    36   18   47 1   
    37   19   20 1   
    38   19   48 1   
    39   19   49 1   
    40   20   21 2   
    41   20   50 1   
    42   21   22 1   
    43   21   51 1   
    44   22   23 1   
    45   22   52 1   
    46   22   53 1   
    47   23   24 2   
    48   23   54 1   
    49   24   25 1   
    50   24   55 1   
    51   25   26 1   
    52   25   56 1   
    53   25   57 1   
    54   26   27 1   
    55   26   58 1   
    56   26   59 1   
    57   27   28 1   
    58   27   60 1   
    59   27   61 1   
    60   28   29 1   
    61   28   62 1   
    62   28   63 1   
    63   29   64 1   
    64   29   65 1   
    65   29   66 1   
@<TRIPOS>SUBSTRUCTURE
     1 18L         1 TEMP              0 ****  ****    0 ROOT
