@<TRIPOS>MOLECULE
18L
   66    62     1     0     0
SMALL
bcc


@<TRIPOS>ATOM
      1 C1         -4.3680   -4.8940   -9.3490 c3        1 18L      0.059000
      2 O1         -6.0470   -8.0210  -10.7890 o         1 18L     -0.921167
      3 P1         -5.0330   -6.9030  -10.8090 p5        1 18L      1.553500
      4 C2         -4.6320   -4.2550   -8.0030 c3        1 18L      0.009000
      5 O2         -5.2780   -6.0220  -12.0090 o         1 18L     -0.921167
      6 C3         -3.5980   -3.1820   -7.7420 c3        1 18L     -0.028000
      7 O3         -3.6430   -7.4860  -10.8870 o         1 18L     -0.921167
      8 C4         -2.6010   -1.9790   -5.9570 c1        1 18L      0.295000
      9 O4         -5.1700   -6.0440   -9.4880 os        1 18L     -0.720000
     10 C5         -2.7100   -1.1410   -4.6900 c3        1 18L     -0.165000
     11 O5         -5.9140   -3.6800   -8.0000 oh        1 18L     -0.416000
     12 C6         -1.6920   -1.6290   -3.6700 c3        1 18L     -0.156000
     13 O6         -3.7080   -2.7350   -6.4010 o         1 18L     -0.257000
     14 C7         -1.4500   -0.5420   -2.6350 c3        1 18L     -0.157000
     15 O7         -1.5590   -2.0030   -6.5840 o         1 18L     -0.398000
     16 C8         -0.5670   -1.0830   -1.5330 c3        1 18L     -0.157000
     17 C9         -0.1960    0.0440   -0.5820 c3        1 18L     -0.158000
     18 C10         1.0820   -0.3130    0.1490 c3        1 18L     -0.156000
     19 C11         1.2760    0.6340    1.3210 c3        1 18L     -0.135000
     20 C12         2.7550    0.7820    1.6090 c2        1 18L     -0.157000
     21 C13         3.1660    1.2630    2.8040 c1        1 18L     -0.180000
     22 C14         2.1470    1.6540    3.8540 c2        1 18L     -0.105000
     23 C15         2.8210    1.7150    5.2150 c2        1 18L     -0.156000
     24 C16         2.8030    2.8700    5.9320 c1        1 18L     -0.175000
     25 C17         3.4780    2.9300    7.2930 c2        1 18L     -0.128000
     26 C18         3.1660    4.2630    7.9540 c3        1 18L     -0.156000
     27 C19         4.0380    4.4340    9.1840 c3        1 18L     -0.158000
     28 C20         3.4720    5.5330   10.0550 c3        1 18L     -0.159000
     29 C21         4.4730    5.8870   11.1350 c3        1 18L     -0.210000
     30 H1         -3.4220   -5.1450   -9.4120 h1        1 18L      0.033500
     31 H1A        -4.5850   -4.2560  -10.0620 h1        1 18L      0.033500
     32 H2         -4.5790   -4.9350   -7.3040 h1        1 18L      0.061000
     33 H3         -2.7040   -3.5490   -7.8920 h1        1 18L      0.086000
     34 H3A        -3.7480   -2.4310   -8.3500 h1        1 18L      0.086000
     35 H5         -2.5330   -0.2010   -4.9030 hc        1 18L      0.108000
     36 H5A        -3.6100   -1.2270   -4.3180 hc        1 18L      0.108000
     37 HO5        -6.4690   -4.1940   -7.5330 ho        1 18L      0.306000
     38 H6         -2.0330   -2.4310   -3.2260 hc        1 18L      0.092500
     39 H6A        -0.8500   -1.8410   -4.1240 hc        1 18L      0.092500
     40 H7         -2.3040   -0.2560   -2.2570 hc        1 18L      0.076000
     41 H7A        -1.0100    0.2200   -3.0600 hc        1 18L      0.076000
     42 H8         -1.0480   -1.7770   -1.0420 hc        1 18L      0.080000
     43 H8A         0.2440   -1.4610   -1.9220 hc        1 18L      0.080000
     44 H9         -0.9170    0.1750    0.0660 hc        1 18L      0.077500
     45 H9A        -0.0610    0.8690   -1.0910 hc        1 18L      0.077500
     46 H10         1.0230   -1.2300    0.4780 hc        1 18L      0.080500
     47 H10A        1.8410   -0.2340   -0.4630 hc        1 18L      0.080500
     48 H11         0.8250    0.2740    2.1090 hc        1 18L      0.087000
     49 H11A        0.8990    1.5080    1.1000 hc        1 18L      0.087000
     50 H12         3.4120    0.5300    0.9320 ha        1 18L      0.123000
     51 H13         4.1190    1.3580    2.9900 ha        1 18L      0.119000
     52 H14         1.4300    0.9910    3.8750 ha        1 18L      0.095000
     53 H14A        1.7740    2.5300    3.6370 ha        1 18L      0.095000
     54 H15         3.2780    0.9250    5.5710 ha        1 18L      0.118000
     55 H16         2.3560    3.6620    5.5710 ha        1 18L      0.122000
     56 H17         3.1450    2.2020    7.8550 ha        1 18L      0.082500
     57 H17A        4.4460    2.8400    7.1820 ha        1 18L      0.082500
     58 H18         3.3450    4.9900    7.3230 hc        1 18L      0.082000
     59 H18A        2.2240    4.2840    8.2170 hc        1 18L      0.082000
     60 H19         4.9470    4.6710    8.9090 hc        1 18L      0.077500
     61 H19A        4.0580    3.5970    9.6880 hc        1 18L      0.077500
     62 H20         2.6410    5.2260   10.4690 hc        1 18L      0.079000
     63 H20A        3.2900    6.3230    9.5070 hc        1 18L      0.079000
     64 H21         4.0710    6.5320   11.7550 hc        1 18L      0.070000
     65 H21A        5.2710    6.2820   10.7240 hc        1 18L      0.070000
     66 H21B        4.7250    5.0770   11.6250 hc        1 18L      0.070000
@<TRIPOS>BOND
     1    1    4 1   
     2    1    9 1   
     3    1   30 1   
     4    1   31 1   
     5    2    3 1   
     6    3    5 1   
     7    3    7 1   
     8    3    9 1   
     9    4    6 1   
    10    4   11 1   
    11    4   32 1   
    12    6   13 1   
    13    6   33 1   
    14    6   34 1   
    15    8   10 1   
    16    8   15 1   
    17   10   12 1   
    18   10   35 1   
    19   10   36 1   
    20   11   37 1   
    21   12   14 1   
    22   12   38 1   
    23   12   39 1   
    24   14   16 1   
    25   14   40 1   
    26   14   41 1   
    27   16   17 1   
    28   16   42 1   
    29   16   43 1   
    30   17   18 1   
    31   17   44 1   
    32   17   45 1   
    33   18   19 1   
    34   18   46 1   
    35   18   47 1   
    36   19   20 1   
    37   19   48 1   
    38   19   49 1   
    39   20   21 1   
    40   20   50 1   
    41   21   51 1   
    42   22   23 1   
    43   22   52 1   
    44   22   53 1   
    45   23   24 1   
    46   23   54 1   
    47   24   55 1   
    48   25   26 1   
    49   25   56 1   
    50   25   57 1   
    51   26   27 1   
    52   26   58 1   
    53   26   59 1   
    54   27   28 1   
    55   27   60 1   
    56   27   61 1   
    57   28   29 1   
    58   28   62 1   
    59   28   63 1   
    60   29   64 1   
    61   29   65 1   
    62   29   66 1   
@<TRIPOS>SUBSTRUCTURE
     1 18L         1 TEMP              0 ****  ****    0 ROOT
