@<TRIPOS>MOLECULE
18L
   66    65     1     0     0
SMALL
bcc


@<TRIPOS>ATOM
      1 C1          0.1240    0.7020   -0.3370 c3        1 18L      0.218400
      2 O1          1.4900    0.3740   -2.8430 o         1 18L     -0.927833
      3 P1          0.0070    0.6090   -2.9430 p5        1 18L      1.308900
      4 C2          1.1120   -0.2420    0.4050 c3        1 18L      0.084100
      5 O2         -0.4170    2.0490   -2.8550 o         1 18L     -0.927833
      6 C3          1.4380    0.3250    1.7830 c3        1 18L      0.141400
      7 O3         -0.7730   -0.2880   -3.8590 o         1 18L     -0.927833
      8 C4          3.1970    0.0340    3.3850 c         1 18L      0.626100
      9 O4         -0.4810    0.0220   -1.3540 os        1 18L     -0.559200
     10 C5          4.5540   -0.5670    3.6200 c3        1 18L     -0.135400
     11 O5          0.5380   -1.5290    0.6020 oh        1 18L     -0.663800
     12 C6          5.3570    0.2570    4.6020 c3        1 18L     -0.077400
     13 O6          2.7530   -0.1750    2.1300 os        1 18L     -0.410900
     14 C7          6.6680   -0.4210    4.9340 c3        1 18L     -0.078400
     15 O7          2.5040    0.6480    4.2090 o         1 18L     -0.593000
     16 C8          7.4820    0.4070    5.9060 c3        1 18L     -0.078400
     17 C9          8.7950   -0.2690    6.2380 c3        1 18L     -0.079400
     18 C10         9.6060    0.5550    7.2150 c3        1 18L     -0.077400
     19 C11        10.9210   -0.1230    7.5410 c3        1 18L     -0.052200
     20 C12        11.7360    0.6570    8.5010 c2        1 18L     -0.162200
     21 C13        12.9700    0.3120    8.8840 c2        1 18L     -0.184200
     22 C14        13.6740   -0.8930    8.3820 c3        1 18L     -0.019000
     23 C15        14.9660   -1.1560    9.0580 c2        1 18L     -0.164200
     24 C16        15.7990   -2.1410    8.7020 c2        1 18L     -0.182200
     25 C17        15.5340   -3.0790    7.5860 c3        1 18L     -0.049200
     26 C18        16.6130   -4.1330    7.4520 c3        1 18L     -0.075400
     27 C19        16.3150   -5.0770    6.3060 c3        1 18L     -0.081400
     28 C20        17.3910   -6.1330    6.1680 c3        1 18L     -0.079400
     29 C21        17.0980   -7.0740    5.0290 c3        1 18L     -0.093100
     30 H1          0.6930    1.5980   -0.7110 h1        1 18L     -0.005300
     31 H1A        -0.6470    1.0380    0.4210 h1        1 18L     -0.005300
     32 H2          2.0460   -0.3610   -0.2130 h1        1 18L      0.086700
     33 H3          0.7080   -0.0110    2.5610 h1        1 18L      0.045200
     34 H3A         1.4970    1.4430    1.7590 h1        1 18L      0.045200
     35 H5          4.3960   -1.6060    4.0160 hc        1 18L      0.071700
     36 H5A         5.0950   -0.6540    2.6410 hc        1 18L      0.071700
     37 HO5        -0.0470   -1.6670   -0.1640 ho        1 18L      0.447000
     38 H6          4.7550    0.4140    5.5360 hc        1 18L      0.053200
     39 H6A         5.5540    1.2710    4.1640 hc        1 18L      0.053200
     40 H7          6.4680   -1.4320    5.3770 hc        1 18L      0.037700
     41 H7A         7.2570   -0.5820    3.9930 hc        1 18L      0.037700
     42 H8          6.8920    0.5680    6.8470 hc        1 18L      0.040200
     43 H8A         7.6800    1.4190    5.4630 hc        1 18L      0.040200
     44 H9          8.5960   -1.2830    6.6740 hc        1 18L      0.038200
     45 H9A         9.3850   -0.4240    5.2960 hc        1 18L      0.038200
     46 H10         9.8030    1.5690    6.7790 hc        1 18L      0.041200
     47 H10A        9.0170    0.7080    8.1580 hc        1 18L      0.041200
     48 H11        11.5070   -0.2810    6.5940 hc        1 18L      0.048200
     49 H11A       10.7210   -1.1450    7.9680 hc        1 18L      0.048200
     50 H12        11.2650    1.5690    8.9040 ha        1 18L      0.123000
     51 H13        13.5240    0.9360    9.6040 ha        1 18L      0.117000
     52 H14        13.0050   -1.7940    8.5010 hc        1 18L      0.058200
     53 H14A       13.8490   -0.7800    7.2730 hc        1 18L      0.058200
     54 H15        15.2230   -0.4910    9.8990 ha        1 18L      0.119000
     55 H16        16.7460   -2.2920    9.2450 ha        1 18L      0.117000
     56 H17        14.5380   -3.5780    7.7440 hc        1 18L      0.050200
     57 H17A       15.4530   -2.5000    6.6240 hc        1 18L      0.050200
     58 H18        16.6920   -4.7150    8.4080 hc        1 18L      0.037700
     59 H18A       17.6050   -3.6380    7.2830 hc        1 18L      0.037700
     60 H19        16.2350   -4.4950    5.3500 hc        1 18L      0.042700
     61 H19A       15.3230   -5.5720    6.4750 hc        1 18L      0.042700
     62 H20        17.4710   -6.7120    7.1260 hc        1 18L      0.035700
     63 H20A       18.3830   -5.6350    6.0010 hc        1 18L      0.035700
     64 H21        16.1240   -7.5970    5.1900 hc        1 18L      0.032700
     65 H21A       17.9020   -7.8440    4.9440 hc        1 18L      0.032700
     66 H21B       17.0390   -6.5170    4.0620 hc        1 18L      0.032700
@<TRIPOS>BOND
     1    1    4 1   
     2    1    9 1   
     3    1   30 1   
     4    1   31 1   
     5    2    3 1   
     6    3    5 1   
     7    3    7 1   
     8    3    9 1   
     9    4    6 1   
    10    4   11 1   
    11    4   32 1   
    12    6   13 1   
    13    6   33 1   
    14    6   34 1   
    15    8   10 1   
    16    8   13 1   
    17    8   15 2   
    18   10   12 1   
    19   10   35 1   
    20   10   36 1   
    21   11   37 1   
    22   12   14 1   
    23   12   38 1   
    24   12   39 1   
    25   14   16 1   
    26   14   40 1   
    27   14   41 1   
    28   16   17 1   
    29   16   42 1   
    30   16   43 1   
    31   17   18 1   
    32   17   44 1   
    33   17   45 1   
    34   18   19 1   
    35   18   46 1   
    36   18   47 1   
    37   19   20 1   
    38   19   48 1   
    39   19   49 1   
    40   20   21 2   
    41   20   50 1   
    42   21   22 1   
    43   21   51 1   
    44   22   23 1   
    45   22   52 1   
    46   22   53 1   
    47   23   24 2   
    48   23   54 1   
    49   24   25 1   
    50   24   55 1   
    51   25   26 1   
    52   25   56 1   
    53   25   57 1   
    54   26   27 1   
    55   26   58 1   
    56   26   59 1   
    57   27   28 1   
    58   27   60 1   
    59   27   61 1   
    60   28   29 1   
    61   28   62 1   
    62   28   63 1   
    63   29   64 1   
    64   29   65 1   
    65   29   66 1   
@<TRIPOS>SUBSTRUCTURE
     1 18L         1 TEMP              0 ****  ****    0 ROOT
