@<TRIPOS>MOLECULE
18M
   42    44     1     0     0
SMALL
bcc


@<TRIPOS>ATOM
      1 P           2.9260    3.0210   -1.1110 p5        1 18M      1.351900
      2 O5'         3.0960    1.6120   -0.1410 os        1 18M     -0.576200
      3 C5'         2.2730    0.5530   -0.4510 c3        1 18M      0.210400
      4 C4'         1.6710   -0.0880    0.8150 c3        1 18M      0.078100
      5 O4'         0.6200    0.7790    1.3340 os        1 18M     -0.392600
      6 C3'         1.0130   -1.4890    0.5720 c3        1 18M      0.201100
      7 O3'         0.9980   -2.2420    1.7120 os        1 18M     -0.561200
      8 C2'        -0.4180   -1.0220    0.1320 c3        1 18M      0.076100
      9 O2'        -1.5370   -1.8690    0.3640 os        1 18M     -0.472600
     10 C1'        -0.6480    0.2390    1.0190 c3        1 18M      0.246800
     11 N9         -1.5380    1.2350    0.4180 na        1 18M     -0.196900
     12 C8         -1.3080    2.4860   -0.2030 cc        1 18M      0.468400
     13 N7         -2.4620    3.1070   -0.5470 nd        1 18M     -0.689000
     14 C5         -3.4980    2.2500   -0.1660 cd        1 18M      0.176800
     15 C6         -4.9430    2.3090   -0.3160 c         1 18M      0.644000
     16 O6         -5.5900    3.2850   -0.7590 o         1 18M     -0.648100
     17 N1         -5.6750    1.1510    0.0600 nc        1 18M     -0.802100
     18 C2         -5.0590    0.0900    0.5960 cd        1 18M      0.793100
     19 N2         -5.8560   -1.0370    0.9980 nh        1 18M     -0.884800
     20 N3         -3.6900    0.0130    0.9000 na        1 18M     -0.666600
     21 C4         -2.9240    1.0740    0.4330 cc        1 18M     -0.017000
     22 P1          1.4560   -3.9140    1.6400 p5        1 18M      1.322900
     23 O11         1.4360   -4.1860    0.1520 o         1 18M     -0.932167
     24 O12         2.7980   -3.9820    2.3110 o         1 18M     -0.932167
     25 O13         0.3260   -4.5820    2.3790 o         1 18M     -0.932167
     26 CM2        -1.4400   -3.1340   -0.2720 c3        1 18M      0.096700
     27 OP1         3.7470    4.0480   -0.3760 o         1 18M     -0.943500
     28 OP2         3.4680    2.6050   -2.4520 o         1 18M     -0.943500
     29 OP3         1.4280    3.2620   -1.0990 o         1 18M     -0.943500
     30 H5'         1.4370    0.8870   -1.1300 h1        1 18M     -0.000800
     31 H5'A        2.8650   -0.2640   -0.9640 h1        1 18M     -0.000800
     32 H4'         2.4200   -0.1280    1.6440 h1        1 18M      0.085700
     33 H3'         1.5090   -2.0410   -0.2740 h1        1 18M      0.080700
     34 H2'        -0.3890   -0.7620   -0.9610 h1        1 18M      0.038700
     35 H1'        -1.1310   -0.0630    1.9990 h2        1 18M      0.056700
     36 H8         -0.2350    2.8460   -0.4100 h5        1 18M      0.225100
     37 HN2        -6.7480   -1.0360    0.5510 hn        1 18M      0.381800
     38 HN2A       -5.3820   -1.9070    0.8670 hn        1 18M      0.381800
     39 HN3        -3.2320   -0.8450    1.1490 hn        1 18M      0.491800
     40 HM2        -2.2630   -3.7390    0.1840 h1        1 18M      0.042033
     41 HM2A       -1.6220   -3.0080   -1.3710 h1        1 18M      0.042033
     42 HM2B       -0.4300   -3.6140   -0.0720 h1        1 18M      0.042033
@<TRIPOS>BOND
     1    1    2 1   
     2    1   27 1   
     3    1   28 1   
     4    1   29 1   
     5    2    3 1   
     6    3    4 1   
     7    3   30 1   
     8    3   31 1   
     9    4    5 1   
    10    4    6 1   
    11    4   32 1   
    12    5   10 1   
    13    6    7 1   
    14    6    8 1   
    15    6   33 1   
    16    7   22 1   
    17    8    9 1   
    18    8   10 1   
    19    8   34 1   
    20    9   26 1   
    21   10   11 1   
    22   10   35 1   
    23   11   12 1   
    24   11   21 1   
    25   12   13 2   
    26   12   36 1   
    27   13   14 1   
    28   14   15 1   
    29   14   21 2   
    30   15   16 2   
    31   15   17 1   
    32   17   18 2   
    33   18   19 1   
    34   18   20 1   
    35   19   37 1   
    36   19   38 1   
    37   20   21 1   
    38   20   39 1   
    39   22   23 1   
    40   22   24 1   
    41   22   25 1   
    42   26   40 1   
    43   26   41 1   
    44   26   42 1   
@<TRIPOS>SUBSTRUCTURE
     1 18M         1 TEMP              0 ****  ****    0 ROOT
