@<TRIPOS>MOLECULE
18M
   42    40     1     0     0
SMALL
bcc


@<TRIPOS>ATOM
      1 P          -4.0890    0.7990   -1.2860 p3        1 18M      2.566000
      2 O5'        -2.8730   -0.2230   -1.1940 o         1 18M     -0.741000
      3 C5'        -1.8860   -0.0120   -0.1960 c3        1 18M      0.062000
      4 C4'        -1.4730   -1.3560    0.4040 c3        1 18M     -0.030000
      5 O4'        -0.3910   -2.0730   -0.5400 os        1 18M     -0.286000
      6 C3'        -0.8980   -1.1740    1.5430 c3        1 18M      0.090000
      7 O3'        -1.1580   -2.3400    2.4470 os        1 18M     -0.722000
      8 C2'         0.6160   -1.0750    1.2170 c3        1 18M     -0.033000
      9 O2'         1.3270   -1.8830    2.0360 os        1 18M     -0.294000
     10 C1'         0.7550   -1.5400   -0.2450 c3        1 18M      0.150000
     11 N9          1.0230   -0.4020   -1.1170 n3        1 18M     -0.151000
     12 C8          1.1970   -1.3780   -2.0510 c1        1 18M     -0.123000
     13 N7          1.7960   -0.8180   -3.1400 n2        1 18M     -0.134000
     14 C5          1.9920    0.5010   -2.8800 c1        1 18M     -0.302000
     15 C6          2.5950    1.6160   -3.7020 c1        1 18M      0.357000
     16 O6          3.0230    1.3860   -4.8200 o         1 18M     -0.461000
     17 N1          2.6790    2.9110   -3.1710 n2        1 18M     -0.415000
     18 C2          2.1960    3.1750   -1.8560 c1        1 18M      0.268000
     19 N2          2.3130    4.4890   -1.3010 n3        1 18M     -0.341000
     20 N3          1.6180    2.1070   -1.0680 n2        1 18M     -0.234000
     21 C4          1.5140    0.7600   -1.6270 c2        1 18M      0.106000
     22 P1         -2.3040   -2.2090    3.5470 p5        1 18M      1.555500
     23 O11        -3.2090   -3.4190    3.4790 o         1 18M     -0.931167
     24 O12        -3.1130   -0.9580    3.2850 o         1 18M     -0.931167
     25 O13        -1.6770   -2.1240    4.9210 o         1 18M     -0.931167
     26 CM2         2.1900   -1.1860    2.9270 c3        1 18M     -0.093000
     27 OP1        -3.8590    1.7560   -2.4350 o         1 18M     -1.263667
     28 OP2        -5.3740    0.0350   -1.5170 o         1 18M     -1.263667
     29 OP3        -4.1920    1.5780    0.0070 o         1 18M     -1.263667
     30 H5'        -2.2520    0.5650    0.5110 h1        1 18M      0.043000
     31 H5'A       -1.1040    0.4210   -0.5970 h1        1 18M      0.043000
     32 H4'        -2.2620   -1.9340    0.5130 h1        1 18M      0.126000
     33 H3'        -1.2150   -0.3410    1.9580 h1        1 18M      0.123000
     34 H2'         0.9220   -0.1460    1.3070 h1        1 18M      0.064000
     35 H1'         1.4730   -2.2100   -0.3240 h2        1 18M      0.115000
     36 H8          0.9350   -2.3200   -1.9570 DU        1 18M      0.193000
     37 HN2         2.1370    4.6280   -0.4130 hn        1 18M      0.237500
     38 HN2A        2.5520    5.1940   -1.8380 hn        1 18M      0.237500
     39 HN3         1.3080    2.2770   -0.2230 hn        1 18M      0.372000
     40 HM2         2.5330   -1.8090    3.6070 h1        1 18M      0.079000
     41 HM2A        2.9430   -0.8050    2.4230 h1        1 18M      0.079000
     42 HM2B        1.6920   -0.4630    3.3680 h1        1 18M      0.079000
@<TRIPOS>BOND
     1    1   27 1   
     2    1   28 1   
     3    1   29 1   
     4    2    3 1   
     5    3    4 1   
     6    3   30 1   
     7    3   31 1   
     8    4    5 1   
     9    4    6 1   
    10    4   32 1   
    11    5   10 1   
    12    6    7 1   
    13    6    8 1   
    14    6   33 1   
    15    7   22 1   
    16    8    9 1   
    17    8   10 1   
    18    8   34 1   
    19    9   26 1   
    20   10   11 1   
    21   10   35 1   
    22   11   12 1   
    23   11   21 1   
    24   12   13 1   
    25   13   14 1   
    26   14   21 1   
    27   15   16 1   
    28   15   17 1   
    29   17   18 1   
    30   18   19 1   
    31   19   37 1   
    32   19   38 1   
    33   20   21 1   
    34   20   39 1   
    35   22   23 1   
    36   22   24 1   
    37   22   25 1   
    38   26   40 1   
    39   26   41 1   
    40   26   42 1   
@<TRIPOS>SUBSTRUCTURE
     1 18M         1 TEMP              0 ****  ****    0 ROOT
