@<TRIPOS>MOLECULE
18N
   22    24     1     0     0
SMALL
bcc


@<TRIPOS>ATOM
      1 CAO        -0.4730    0.0000   -0.0010 ca        1 18N      0.019000
      2 CAM         0.2260   -1.2400   -0.0000 ca        1 18N     -0.154600
      3 CAG        -0.4670   -2.4330   -0.0010 ca        1 18N     -0.034000
      4 CAC        -1.8810   -2.4290   -0.0010 ca        1 18N     -0.150000
      5 CAE        -2.5780   -1.2440   -0.0010 ca        1 18N     -0.075000
      6 CAL        -1.8900    0.0000   -0.0010 ca        1 18N     -0.063000
      7 CAF        -2.5780    1.2440   -0.0010 ca        1 18N     -0.075000
      8 CAD        -1.8810    2.4290   -0.0010 ca        1 18N     -0.150000
      9 CAH        -0.4670    2.4330   -0.0000 ca        1 18N     -0.034000
     10 CAN         0.2260    1.2400   -0.0000 ca        1 18N     -0.154600
     11 CAK         1.7080    1.2360    0.0000 c         1 18N      0.721100
     12 OAB         2.3910    2.2760    0.0000 o         1 18N     -0.611500
     13 NAI         2.3620   -0.0000    0.0000 n         1 18N     -0.589500
     14 CAJ         1.7080   -1.2360   -0.0000 c         1 18N      0.721100
     15 OAA         2.3910   -2.2760   -0.0000 o         1 18N     -0.611500
     16 HAG         0.0830   -3.3890   -0.0010 ha        1 18N      0.165000
     17 HAC        -2.4140   -3.3930   -0.0010 ha        1 18N      0.145000
     18 HAE        -3.6790   -1.2380   -0.0010 ha        1 18N      0.141000
     19 HAF        -3.6790    1.2380   -0.0010 ha        1 18N      0.141000
     20 HAD        -2.4140    3.3930   -0.0010 ha        1 18N      0.145000
     21 HAH         0.0830    3.3890   -0.0000 ha        1 18N      0.165000
     22 HNAI        3.3610   -0.0000    0.0000 hn        1 18N      0.342500
@<TRIPOS>BOND
     1    1    2 ar  
     2    1    6 ar  
     3    1   10 ar  
     4    2    3 ar  
     5    2   14 1   
     6    3    4 ar  
     7    3   16 1   
     8    4    5 ar  
     9    4   17 1   
    10    5    6 ar  
    11    5   18 1   
    12    6    7 ar  
    13    7    8 ar  
    14    7   19 1   
    15    8    9 ar  
    16    8   20 1   
    17    9   10 ar  
    18    9   21 1   
    19   10   11 1   
    20   11   12 2   
    21   11   13 1   
    22   13   14 1   
    23   13   22 1   
    24   14   15 2   
@<TRIPOS>SUBSTRUCTURE
     1 18N         1 TEMP              0 ****  ****    0 ROOT
