@<TRIPOS>MOLECULE
18N
   22    20     1     0     0
SMALL
bcc


@<TRIPOS>ATOM
      1 CAO        -0.0220   -0.0020    0.0450 c1        1 18N      0.019000
      2 CAM         1.3930   -0.0020    0.0450 c1        1 18N     -0.134000
      3 CAG         2.0940   -0.0020    1.2610 c1        1 18N     -0.034000
      4 CAC         1.3970   -0.0020    2.4700 c1        1 18N     -0.112500
      5 CAE        -0.0060   -0.0020    2.4700 c1        1 18N     -0.112500
      6 CAL        -0.7150   -0.0020    1.2450 c1        1 18N     -0.063000
      7 CAF        -2.1460   -0.0020    1.2450 c2        1 18N     -0.075000
      8 CAD        -2.8450   -0.0020    0.0340 c1        1 18N     -0.150000
      9 CAH        -2.1450   -0.0020   -1.1810 c1        1 18N     -0.034000
     10 CAN        -0.7310   -0.0020   -1.1820 c2        1 18N     -0.134000
     11 CAK         0.0340   -0.0020   -2.5090 c2        1 18N      0.358000
     12 OAB        -0.5730    0.0270   -3.5610 o         1 18N     -0.336000
     13 NAI         1.4510   -0.0020   -2.5090 n         1 18N     -0.369000
     14 CAJ         2.1590   -0.0020   -1.2820 c2        1 18N      0.358000
     15 OAA         3.3740    0.0290   -1.2820 o         1 18N     -0.336000
     16 HAG         3.0700   -0.0020    1.2610 ha        1 18N      0.165000
     17 HAC         1.8850   -0.0020    3.3150 ha        1 18N      0.143000
     18 HAE        -0.4930   -0.0020    3.3160 ha        1 18N      0.143000
     19 HAF        -2.6340   -0.0020    2.0900 ha        1 18N      0.141000
     20 HAD        -3.8210   -0.0020    0.0340 ha        1 18N      0.145000
     21 HAH        -2.6340   -0.0020   -2.0250 ha        1 18N      0.165000
     22 HNAI        1.9070   -0.0160   -3.2990 hn        1 18N      0.256000
@<TRIPOS>BOND
     1    1    6 1   
     2    1   10 1   
     3    2    3 1   
     4    2   14 1   
     5    3   16 1   
     6    4    5 1   
     7    4   17 1   
     8    5   18 1   
     9    6    7 1   
    10    7    8 1   
    11    7   19 1   
    12    8   20 1   
    13    9   10 1   
    14    9   21 1   
    15   10   11 1   
    16   11   12 1   
    17   11   13 1   
    18   13   14 1   
    19   13   22 1   
    20   14   15 1   
@<TRIPOS>SUBSTRUCTURE
     1 18N         1 TEMP              0 ****  ****    0 ROOT
