@<TRIPOS>MOLECULE
18N
   22    24     1     0     0
SMALL
bcc


@<TRIPOS>ATOM
      1 CAO         0.0020   -0.0030   -0.0030 ca        1 18N      0.019000
      2 CAM         1.4250    0.0000    0.0180 ca        1 18N     -0.154600
      3 CAG         2.1060    0.0020    1.2190 ca        1 18N     -0.034000
      4 CAC         1.3890    0.0010    2.4390 ca        1 18N     -0.150000
      5 CAE         0.0150   -0.0030    2.4420 ca        1 18N     -0.075000
      6 CAL        -0.7130   -0.0050    1.2210 ca        1 18N     -0.063000
      7 CAF        -2.1340   -0.0080    1.1870 ca        1 18N     -0.075000
      8 CAD        -2.8070   -0.0100   -0.0120 ca        1 18N     -0.150000
      9 CAH        -2.0960   -0.0090   -1.2350 ca        1 18N     -0.034000
     10 CAN        -0.7160   -0.0050   -1.2320 ca        1 18N     -0.154600
     11 CAK         0.0340   -0.0040   -2.5100 c         1 18N      0.721100
     12 OAB        -0.5200   -0.0050   -3.6240 o         1 18N     -0.611500
     13 NAI         1.4310   -0.0000   -2.4510 n         1 18N     -0.589500
     14 CAJ         2.1690    0.0020   -1.2630 c         1 18N      0.721100
     15 OAA         3.4120    0.0050   -1.3280 o         1 18N     -0.611500
     16 HAG         3.2090    0.0050    1.2260 ha        1 18N      0.165000
     17 HAC         1.9520    0.0020    3.3840 ha        1 18N      0.145000
     18 HAE        -0.5460   -0.0040    3.3900 ha        1 18N      0.141000
     19 HAF        -2.6840   -0.0090    2.1420 ha        1 18N      0.141000
     20 HAD        -3.9070   -0.0130   -0.0370 ha        1 18N      0.145000
     21 HAH        -2.6450   -0.0100   -2.1920 ha        1 18N      0.165000
     22 HNAI        1.9350    0.0010   -3.3140 hn        1 18N      0.342500
@<TRIPOS>BOND
     1    1    2 ar  
     2    1    6 ar  
     3    1   10 ar  
     4    2    3 ar  
     5    2   14 1   
     6    3    4 ar  
     7    3   16 1   
     8    4    5 ar  
     9    4   17 1   
    10    5    6 ar  
    11    5   18 1   
    12    6    7 ar  
    13    7    8 ar  
    14    7   19 1   
    15    8    9 ar  
    16    8   20 1   
    17    9   10 ar  
    18    9   21 1   
    19   10   11 1   
    20   11   12 2   
    21   11   13 1   
    22   13   14 1   
    23   13   22 1   
    24   14   15 2   
@<TRIPOS>SUBSTRUCTURE
     1 18N         1 TEMP              0 ****  ****    0 ROOT
