@<TRIPOS>MOLECULE
18O
   44    41     1     0     0
SMALL
bcc


@<TRIPOS>ATOM
      1 C1          1.0270   -0.1360    1.8410 c3        1 18O      0.143000
      2 N1          0.5990    0.0610    0.4550 n         1 18O     -0.287000
      3 S1         -1.1380   -1.9050    0.8350 s         1 18O     -0.270000
      4 C2          2.4530   -0.1460    1.8760 c3        1 18O      0.010000
      5 N2         -0.6580   -0.7320   -1.5400 n         1 18O     -0.288000
      6 O2          2.9580   -1.4210    1.1080 oh        1 18O     -0.314000
      7 C3          3.0040   -0.1610    3.1750 c3        1 18O     -0.003000
      8 N3          0.3410   -1.0910   -2.4900 n2        1 18O     -0.027000
      9 O3          4.5020    0.0160    3.0640 oh        1 18O     -0.335000
     10 C4          2.4630    0.9080    4.0620 c3        1 18O     -0.025000
     11 N4         -5.1570   -0.1510   -5.9360 n2        1 18O      0.567000
     12 O4          3.0000    0.7380    5.3450 oh        1 18O     -0.338000
     13 C5          0.8740    0.9170    4.1760 c3        1 18O     -0.032000
     14 O5          0.4200    0.9150    2.6680 os        1 18O     -0.289000
     15 C6          0.4430    2.0240    4.8030 c3        1 18O     -0.025000
     16 O6          0.3250    1.7660    6.1860 oh        1 18O     -0.331000
     17 C7         -0.3630   -0.8020   -0.1120 c2        1 18O      0.195000
     18 O7         -5.5350    0.9880   -6.0690 o         1 18O     -0.355000
     19 C8          0.0330   -1.1750   -3.7860 c1        1 18O     -0.138000
     20 O8         -6.0090   -1.1920   -6.2100 os        1 18O     -0.352000
     21 C9         -1.3870   -0.8850   -4.2510 c1        1 18O     -0.040000
     22 C10        -2.2730   -1.9330   -4.4590 c2        1 18O     -0.136000
     23 C11        -3.5030   -1.6920   -5.0470 c1        1 18O     -0.063000
     24 C12        -3.8470   -0.4150   -5.4260 c1        1 18O     -0.124000
     25 C13        -2.9610    0.6330   -5.2190 c1        1 18O     -0.067000
     26 C14        -1.7350    0.3970   -4.6330 c1        1 18O     -0.121000
     27 H1          0.6990   -1.0070    2.1510 h2        1 18O      0.161000
     28 HN1         0.8820    0.7940   -0.0090 hn        1 18O      0.253000
     29 H2          2.7790    0.6460    1.4120 h1        1 18O      0.102000
     30 HN2        -1.5150   -0.5510   -1.8220 hn        1 18O      0.260000
     31 HO2         3.7320   -1.2270    0.6750 ho        1 18O      0.228000
     32 H3          2.8180   -1.0380    3.5880 h1        1 18O      0.109000
     33 HO3         4.8500    0.1460    3.8810 ho        1 18O      0.230000
     34 H4          2.7590    1.7880    3.7110 h1        1 18O      0.101000
     35 HO4         3.6450    1.3300    5.4750 ho        1 18O      0.233000
     36 H5          0.5550    0.1080    4.6350 h1        1 18O      0.102000
     37 H6          1.0770    2.7420    4.6610 h1        1 18O      0.108000
     38 H6A        -0.4380    2.2870    4.4400 h1        1 18O      0.108000
     39 HO6         0.0320    2.4890    6.5960 ho        1 18O      0.210000
     40 H8          0.7330   -1.4260   -4.4510 ha        1 18O      0.178000
     41 H10        -2.0220   -2.8700   -4.1810 ha        1 18O      0.157000
     42 H11        -4.1320   -2.4340   -5.1940 ha        1 18O      0.177000
     43 H13        -3.2120    1.5610   -5.4950 ha        1 18O      0.175000
     44 H14        -1.1140    1.1350   -4.4870 ha        1 18O      0.153000
@<TRIPOS>BOND
     1    1    2 1   
     2    1    4 1   
     3    1   14 1   
     4    1   27 1   
     5    2   17 1   
     6    2   28 1   
     7    3   17 1   
     8    4    6 1   
     9    4    7 1   
    10    4   29 1   
    11    5    8 1   
    12    5   17 1   
    13    5   30 1   
    14    6   31 1   
    15    7    9 1   
    16    7   10 1   
    17    7   32 1   
    18    8   19 1   
    19    9   33 1   
    20   10   12 1   
    21   10   13 1   
    22   10   34 1   
    23   11   18 1   
    24   11   24 1   
    25   12   35 1   
    26   13   14 1   
    27   13   15 1   
    28   13   36 1   
    29   15   16 1   
    30   15   37 1   
    31   15   38 1   
    32   16   39 1   
    33   19   40 1   
    34   21   22 1   
    35   21   26 1   
    36   22   23 1   
    37   22   41 1   
    38   23   42 1   
    39   24   25 1   
    40   25   43 1   
    41   26   44 1   
@<TRIPOS>SUBSTRUCTURE
     1 18O         1 TEMP              0 ****  ****    0 ROOT
