@<TRIPOS>MOLECULE
18O
   44    45     1     0     0
SMALL
bcc


@<TRIPOS>ATOM
      1 C1         -2.6980    0.1730   -0.7230 c3        1 18O      0.236500
      2 N1         -1.3200    0.5530   -0.9820 n         1 18O     -0.477900
      3 S1         -2.0380    3.0620   -1.4920 s         1 18O     -0.501400
      4 C2         -3.1470   -1.0190   -1.6150 c3        1 18O      0.089100
      5 N2          0.3430    2.3180   -0.8790 n         1 18O     -0.295900
      6 O2         -3.2540   -0.6460   -2.9750 oh        1 18O     -0.596800
      7 C3         -4.5660   -1.4400   -1.1940 c3        1 18O      0.109100
      8 N3          1.3320    1.5130   -0.5150 n2        1 18O     -0.455300
      9 O3         -4.9490   -2.6320   -1.8580 oh        1 18O     -0.605800
     10 C4         -4.6020   -1.7510    0.3110 c3        1 18O      0.118100
     11 N4          6.9870   -1.3310    1.1950 no        1 18O      0.312200
     12 O4         -5.9320   -1.9830    0.7390 oh        1 18O     -0.592800
     13 C5         -4.0730   -0.5360    1.0930 c3        1 18O      0.150100
     14 O5         -2.7440   -0.2460    0.6550 os        1 18O     -0.439600
     15 C6         -3.9690   -0.8530    2.5870 c3        1 18O      0.135400
     16 O6         -4.0550    0.3830    3.2750 oh        1 18O     -0.594800
     17 C7         -0.9980    1.9020   -1.0700 c         1 18O      0.576400
     18 O7          6.7800   -2.4170    1.6670 o         1 18O     -0.205000
     19 C8          2.5550    1.9620   -0.3840 ce        1 18O      0.366800
     20 O8          8.0990   -0.9030    1.0400 o         1 18O     -0.205000
     21 C9          3.6550    1.0860    0.0270 ca        1 18O     -0.078900
     22 C10         3.4450   -0.1830    0.5830 ca        1 18O     -0.120500
     23 C11         4.5240   -0.9750    0.9660 ca        1 18O     -0.070000
     24 C12         5.8290   -0.4910    0.7900 ca        1 18O     -0.170200
     25 C13         6.0560    0.7800    0.2350 ca        1 18O     -0.070000
     26 C14         4.9670    1.5590   -0.1400 ca        1 18O     -0.120500
     27 H1         -3.3850    1.0610   -0.8900 h2        1 18O      0.122700
     28 HN1        -0.6530   -0.0770   -0.5790 hn        1 18O      0.324500
     29 H2         -2.4410   -1.8860   -1.5040 h1        1 18O      0.061700
     30 HN2         0.4900    3.3010   -1.0750 hn        1 18O      0.342500
     31 HO2        -2.3870   -0.3360   -3.2640 ho        1 18O      0.423000
     32 H3         -5.2940   -0.6180   -1.4410 h1        1 18O      0.070700
     33 HO3        -4.8910   -2.4510   -2.8060 ho        1 18O      0.429000
     34 H4         -3.9710   -2.6580    0.5230 h1        1 18O      0.059700
     35 HO4        -6.2910   -2.6650    0.1540 ho        1 18O      0.427000
     36 H5         -4.7370    0.3570    0.9330 h1        1 18O      0.086700
     37 H6         -4.8280   -1.5180    2.8760 h1        1 18O      0.047700
     38 H6A        -2.9940   -1.3610    2.8120 h1        1 18O      0.047700
     39 HO6        -3.9460    0.1830    4.2120 ho        1 18O      0.405000
     40 H8          2.8560    3.0170   -0.5730 h4        1 18O      0.003800
     41 H10         2.4230   -0.5680    0.7270 ha        1 18O      0.155000
     42 H11         4.3550   -1.9740    1.4040 ha        1 18O      0.174000
     43 H13         7.0850    1.1540    0.1010 ha        1 18O      0.174000
     44 H14         5.1430    2.5560   -0.5750 ha        1 18O      0.155000
@<TRIPOS>BOND
     1    1    2 1   
     2    1    4 1   
     3    1   14 1   
     4    1   27 1   
     5    2   17 1   
     6    2   28 1   
     7    3   17 2   
     8    4    6 1   
     9    4    7 1   
    10    4   29 1   
    11    5    8 1   
    12    5   17 1   
    13    5   30 1   
    14    6   31 1   
    15    7    9 1   
    16    7   10 1   
    17    7   32 1   
    18    8   19 2   
    19    9   33 1   
    20   10   12 1   
    21   10   13 1   
    22   10   34 1   
    23   11   18 1   
    24   11   20 1   
    25   11   24 1   
    26   12   35 1   
    27   13   14 1   
    28   13   15 1   
    29   13   36 1   
    30   15   16 1   
    31   15   37 1   
    32   15   38 1   
    33   16   39 1   
    34   19   21 1   
    35   19   40 1   
    36   21   22 ar  
    37   21   26 ar  
    38   22   23 ar  
    39   22   41 1   
    40   23   24 ar  
    41   23   42 1   
    42   24   25 ar  
    43   25   26 ar  
    44   25   43 1   
    45   26   44 1   
@<TRIPOS>SUBSTRUCTURE
     1 18O         1 TEMP              0 ****  ****    0 ROOT
