@<TRIPOS>MOLECULE
18O
   46    47     1     0     0
SMALL
bcc


@<TRIPOS>ATOM
      1 C1          0.2040   -0.2750    0.0660 c3        1 18O      0.343300
      2 N1         -0.0550   -0.5010   -1.4260 ny        1 18O     -0.604800
      3 S1         -2.6520   -0.8930   -0.8340 s         1 18O      0.315600
      4 C2          1.7160   -0.4670    0.3640 c3        1 18O      0.111100
      5 N2         -1.6340   -1.1740   -3.2470 ny        1 18O     -0.316900
      6 O2          2.0150   -1.8000    0.0160 oh        1 18O     -0.636800
      7 C3          1.9090   -0.1650    1.8610 c3        1 18O      0.117100
      8 N3         -0.9970   -0.2710   -4.1080 n2        1 18O     -0.636400
      9 O3          3.2970   -0.2890    2.0810 oh        1 18O     -0.589800
     10 C4          1.4190    1.2670    2.1630 c3        1 18O      0.080100
     11 N4          0.6530    3.8880   -8.9380 no        1 18O      0.309200
     12 O4          1.4660    1.3850    3.5710 oh        1 18O     -0.576800
     13 C5         -0.0340    1.4480    1.6940 c3        1 18O      0.090100
     14 O5         -0.1700    1.0660    0.3020 os        1 18O     -0.433600
     15 C6         -0.4840    2.9170    1.7200 c3        1 18O      0.137400
     16 O6         -1.8750    2.9850    1.5230 oh        1 18O     -0.590800
     17 C7         -1.4590   -0.8430   -1.7490 c         1 18O      0.004400
     18 O7          1.8360    4.0630   -8.9120 o         1 18O     -0.151000
     19 C8         -1.6610    0.3140   -5.0850 ce        1 18O      0.608800
     20 O8         -0.0900    4.4140   -9.7130 o         1 18O     -0.151000
     21 C9         -1.0300    1.2100   -6.0340 ca        1 18O     -0.215900
     22 C10         0.3590    1.4310   -6.0710 ca        1 18O     -0.057000
     23 C11         0.9080    2.2960   -7.0130 ca        1 18O     -0.082500
     24 C12         0.0620    2.9470   -7.9250 ca        1 18O     -0.090200
     25 C13        -1.3260    2.7330   -7.9050 ca        1 18O     -0.082500
     26 C14        -1.8660    1.8640   -6.9630 ca        1 18O     -0.057000
     27 H1         -0.4310   -1.0040    0.6530 hx        1 18O      0.120700
     28 HN1         0.2100    0.3740   -1.9170 hn        1 18O      0.497300
     29 H2          2.3480    0.2390   -0.2460 h1        1 18O      0.095700
     30 HN2        -2.6620   -1.2810   -3.3880 hn        1 18O      0.467800
     31 HO2         2.8250   -2.0570    0.4910 ho        1 18O      0.488000
     32 H3          1.3460   -0.9060    2.4950 h1        1 18O      0.083700
     33 HO3         3.4540   -0.1200    3.0240 ho        1 18O      0.460000
     34 H4          2.0910    2.0140    1.6580 h1        1 18O      0.085700
     35 HO4         1.6950    2.3000    3.7890 ho        1 18O      0.439000
     36 H5         -0.7270    0.8110    2.3100 h1        1 18O      0.086700
     37 H6         -0.1610    3.3650    2.6960 h1        1 18O      0.081700
     38 H6A        -0.0230    3.4790    0.8630 h1        1 18O      0.081700
     39 HO6        -2.3000    3.0460    2.3890 ho        1 18O      0.427000
     40 H8         -2.7570    0.1560   -5.2630 h4        1 18O      0.038800
     41 H10         1.0340    0.9170   -5.3700 ha        1 18O      0.159000
     42 H11         2.0020    2.4680   -7.0490 ha        1 18O      0.207000
     43 H13        -1.9810    3.2490   -8.6360 ha        1 18O      0.207000
     44 H14        -2.9570    1.6960   -6.9550 ha        1 18O      0.159000
     45 H12         0.5900   -1.2560   -1.7250 hn        1 18O      0.497300
     46 H22        -1.1880   -2.0970   -3.4250 hn        1 18O      0.467800
@<TRIPOS>BOND
     1    1    2 1   
     2    1    4 1   
     3    1   14 1   
     4    1   27 1   
     5    2   17 1   
     6    2   28 1   
     7    2   45 1   
     8    3   17 2   
     9    4    6 1   
    10    4    7 1   
    11    4   29 1   
    12    5    8 1   
    13    5   17 1   
    14    5   30 1   
    15    5   46 1   
    16    6   31 1   
    17    7    9 1   
    18    7   10 1   
    19    7   32 1   
    20    8   19 2   
    21    9   33 1   
    22   10   12 1   
    23   10   13 1   
    24   10   34 1   
    25   11   18 1   
    26   11   20 1   
    27   11   24 1   
    28   12   35 1   
    29   13   14 1   
    30   13   15 1   
    31   13   36 1   
    32   15   16 1   
    33   15   37 1   
    34   15   38 1   
    35   16   39 1   
    36   19   21 1   
    37   19   40 1   
    38   21   22 ar  
    39   21   26 ar  
    40   22   23 ar  
    41   22   41 1   
    42   23   24 ar  
    43   23   42 1   
    44   24   25 ar  
    45   25   26 ar  
    46   25   43 1   
    47   26   44 1   
@<TRIPOS>SUBSTRUCTURE
     1 18O         1 TEMP              0 ****  ****    0 ROOT
