@<TRIPOS>MOLECULE
18O
   44    45     1     0     0
SMALL
bcc


@<TRIPOS>ATOM
      1 C1          0.1860   -0.1530    0.1270 c3        1 18O      0.239500
      2 N1         -0.0970   -0.2750   -1.2920 n         1 18O     -0.481900
      3 S1         -2.1620   -1.8780   -0.8020 s         1 18O     -0.501400
      4 C2          1.6770   -0.4610    0.4460 c3        1 18O      0.090100
      5 N2         -1.7800   -0.6150   -3.0060 n         1 18O     -0.294900
      6 O2          1.9800   -1.8280    0.2470 oh        1 18O     -0.594800
      7 C3          1.9260   -0.2000    1.9410 c3        1 18O      0.109100
      8 N3         -1.1960    0.1880   -3.8870 n2        1 18O     -0.459300
      9 O3          3.3060   -0.3050    2.2410 oh        1 18O     -0.604800
     10 C4          1.5110    1.2360    2.3030 c3        1 18O      0.122100
     11 N4          0.6670    3.7420   -9.0740 no        1 18O      0.312200
     12 O4          1.5710    1.4300    3.7040 oh        1 18O     -0.591800
     13 C5          0.0540    1.4710    1.8760 c3        1 18O      0.108100
     14 O5         -0.0850    1.2200    0.4760 os        1 18O     -0.455600
     15 C6         -0.3440    2.9360    2.0760 c3        1 18O      0.139400
     16 O6         -1.7240    3.1270    1.8560 oh        1 18O     -0.590800
     17 C7         -1.2950   -0.8510   -1.6960 c         1 18O      0.575400
     18 O7          1.4660    4.5750   -8.7410 o         1 18O     -0.204500
     19 C8         -1.6650    0.3090   -5.1030 ce        1 18O      0.371800
     20 O8          0.3330    3.5960  -10.2190 o         1 18O     -0.204500
     21 C9         -1.0410    1.2030   -6.0830 ca        1 18O     -0.080900
     22 C10        -0.1110    2.1880   -5.7240 ca        1 18O     -0.120000
     23 C11         0.4490    3.0180   -6.6920 ca        1 18O     -0.070000
     24 C12         0.0730    2.8600   -8.0340 ca        1 18O     -0.169200
     25 C13        -0.8600    1.8780   -8.4090 ca        1 18O     -0.070000
     26 C14        -1.4110    1.0580   -7.4300 ca        1 18O     -0.120000
     27 H1         -0.4890   -0.8480    0.7190 h2        1 18O      0.123700
     28 HN1         0.2970    0.4620   -1.8430 hn        1 18O      0.324500
     29 H2          2.3570    0.1850   -0.1750 h1        1 18O      0.061700
     30 HN2        -2.5870   -1.1790   -3.2430 hn        1 18O      0.343500
     31 HO2         1.8290   -2.0300   -0.6850 ho        1 18O      0.422000
     32 H3          1.3450   -0.9420    2.5580 h1        1 18O      0.070700
     33 HO3         3.5760   -1.1980    1.9880 ho        1 18O      0.429000
     34 H4          2.1950    1.9660    1.7870 h1        1 18O      0.061700
     35 HO4         2.4660    1.1820    3.9760 ho        1 18O      0.427000
     36 H5         -0.6360    0.7970    2.4540 h1        1 18O      0.079700
     37 H6          0.2580    3.5930    1.3940 h1        1 18O      0.065700
     38 H6A        -0.1680    3.2170    3.1490 h1        1 18O      0.065700
     39 HO6        -1.9080    2.8510    0.9490 ho        1 18O      0.408000
     40 H8         -2.5500   -0.2450   -5.4890 h4        1 18O      0.004800
     41 H10         0.1860    2.3200   -4.6710 ha        1 18O      0.154500
     42 H11         1.1810    3.7940   -6.4060 ha        1 18O      0.174500
     43 H13        -1.1510    1.7610   -9.4670 ha        1 18O      0.174500
     44 H14        -2.1420    0.2880   -7.7220 ha        1 18O      0.154500
@<TRIPOS>BOND
     1    1    2 1   
     2    1    4 1   
     3    1   14 1   
     4    1   27 1   
     5    2   17 1   
     6    2   28 1   
     7    3   17 2   
     8    4    6 1   
     9    4    7 1   
    10    4   29 1   
    11    5    8 1   
    12    5   17 1   
    13    5   30 1   
    14    6   31 1   
    15    7    9 1   
    16    7   10 1   
    17    7   32 1   
    18    8   19 2   
    19    9   33 1   
    20   10   12 1   
    21   10   13 1   
    22   10   34 1   
    23   11   18 1   
    24   11   20 1   
    25   11   24 1   
    26   12   35 1   
    27   13   14 1   
    28   13   15 1   
    29   13   36 1   
    30   15   16 1   
    31   15   37 1   
    32   15   38 1   
    33   16   39 1   
    34   19   21 1   
    35   19   40 1   
    36   21   22 ar  
    37   21   26 ar  
    38   22   23 ar  
    39   22   41 1   
    40   23   24 ar  
    41   23   42 1   
    42   24   25 ar  
    43   25   26 ar  
    44   25   43 1   
    45   26   44 1   
@<TRIPOS>SUBSTRUCTURE
     1 18O         1 TEMP              0 ****  ****    0 ROOT
