@<TRIPOS>MOLECULE
18O
   46    47     1     0     0
SMALL
bcc


@<TRIPOS>ATOM
      1 C1          0.2390   -0.3230    0.0560 c3        1 18O      0.340300
      2 N1         -0.0150   -0.5370   -1.4380 n4        1 18O     -0.602800
      3 S1         -2.5990   -1.0060   -0.8460 s         1 18O      0.320600
      4 C2          1.7570   -0.4690    0.3510 c3        1 18O      0.113100
      5 N2         -1.5790   -1.2280   -3.2640 n4        1 18O     -0.316900
      6 O2          2.0910   -1.7930   -0.0010 oh        1 18O     -0.635800
      7 C3          1.9530   -0.1610    1.8470 c3        1 18O      0.086100
      8 N3         -0.9660   -0.2980   -4.1140 n2        1 18O     -0.636400
      9 O3          3.3450   -0.2480    2.0580 oh        1 18O     -0.585800
     10 C4          1.4070    1.2470    2.1560 c3        1 18O      0.073100
     11 N4          0.5840    3.9450   -8.9050 no        1 18O      0.309200
     12 O4          1.5630    1.5460    3.5210 oh        1 18O     -0.549800
     13 C5         -0.0590    1.3560    1.7140 c3        1 18O      0.114100
     14 O5         -0.1840    1.0010    0.3140 os        1 18O     -0.429600
     15 C6         -0.5740    2.7970    1.7970 c3        1 18O      0.136400
     16 O6         -1.9770    2.7320    1.6260 oh        1 18O     -0.615800
     17 C7         -1.4110   -0.9120   -1.7630 c         1 18O      0.002400
     18 O7          1.7600    4.1610   -8.8660 o         1 18O     -0.150500
     19 C8         -1.6400    0.2720   -5.0920 ce        1 18O      0.608800
     20 O8         -0.1690    4.4490   -9.6840 o         1 18O     -0.150500
     21 C9         -1.0320    1.1940   -6.0300 ca        1 18O     -0.215900
     22 C10         0.3490    1.4650   -6.0520 ca        1 18O     -0.057000
     23 C11         0.8760    2.3540   -6.9840 ca        1 18O     -0.082500
     24 C12         0.0170    2.9790   -7.9020 ca        1 18O     -0.090200
     25 C13        -1.3630    2.7150   -7.8980 ca        1 18O     -0.082500
     26 C14        -1.8810    1.8230   -6.9660 ca        1 18O     -0.057000
     27 H1         -0.3690   -1.0830    0.6330 hx        1 18O      0.119700
     28 HN1         0.6500   -1.2720   -1.7460 hn        1 18O      0.497800
     29 H2          2.3660    0.2550   -0.2610 h1        1 18O      0.096700
     30 HN2        -1.1130   -2.1380   -3.4550 hn        1 18O      0.467300
     31 HO2         2.9140   -2.0270    0.4650 ho        1 18O      0.489000
     32 H3          1.4320   -0.9360    2.4770 h1        1 18O      0.067700
     33 HO3         3.5470    0.2030    2.8940 ho        1 18O      0.462000
     34 H4          2.0370    2.0250    1.6310 h1        1 18O      0.124700
     35 HO4         1.0250    0.9290    4.0390 ho        1 18O      0.420000
     36 H5         -0.7200    0.6710    2.3140 h1        1 18O      0.080700
     37 H6         -0.2840    3.2100    2.8010 h1        1 18O      0.076700
     38 H6A        -0.1270    3.4210    0.9780 h1        1 18O      0.076700
     39 HO6        -2.3570    3.4960    2.0810 ho        1 18O      0.440000
     40 H8         -2.7290    0.0790   -5.2800 h4        1 18O      0.037800
     41 H10         1.0350    0.9720   -5.3450 ha        1 18O      0.159000
     42 H11         1.9630    2.5660   -7.0070 ha        1 18O      0.207000
     43 H13        -2.0280    3.2100   -8.6330 ha        1 18O      0.207000
     44 H14        -2.9650    1.6160   -6.9700 ha        1 18O      0.159000
     45 H12         0.2260    0.3500   -1.9190 hn        1 18O      0.497800
     46 H22        -2.6040   -1.3570   -3.4060 hn        1 18O      0.467300
@<TRIPOS>BOND
     1    1    2 1   
     2    1    4 1   
     3    1   14 1   
     4    1   27 1   
     5    2   17 1   
     6    2   28 1   
     7    2   45 1   
     8    3   17 2   
     9    4    6 1   
    10    4    7 1   
    11    4   29 1   
    12    5    8 1   
    13    5   17 1   
    14    5   30 1   
    15    5   46 1   
    16    6   31 1   
    17    7    9 1   
    18    7   10 1   
    19    7   32 1   
    20    8   19 2   
    21    9   33 1   
    22   10   12 1   
    23   10   13 1   
    24   10   34 1   
    25   11   18 1   
    26   11   20 1   
    27   11   24 1   
    28   12   35 1   
    29   13   14 1   
    30   13   15 1   
    31   13   36 1   
    32   15   16 1   
    33   15   37 1   
    34   15   38 1   
    35   16   39 1   
    36   19   21 1   
    37   19   40 1   
    38   21   22 ar  
    39   21   26 ar  
    40   22   23 ar  
    41   22   41 1   
    42   23   24 ar  
    43   23   42 1   
    44   24   25 ar  
    45   25   26 ar  
    46   25   43 1   
    47   26   44 1   
@<TRIPOS>SUBSTRUCTURE
     1 18O         1 TEMP              0 ****  ****    0 ROOT
