@<TRIPOS>MOLECULE
18P
   46    47     1     0     0
SMALL
bcc


@<TRIPOS>ATOM
      1 C           2.8560    1.6590   -1.2190 c1        1 18P      0.056000
      2 N           3.4890    0.6590   -0.6810 n3        1 18P     -0.108000
      3 O           3.0100   -2.1930    1.6030 o         1 18P     -0.302000
      4 CL          0.6310    3.1600   -1.7800 cl        1 18P      0.199000
      5 N01         8.9490    3.4520   -1.9290 n3        1 18P     -0.238000
      6 C02         7.9390    4.4320   -1.5690 c3        1 18P     -0.075000
      7 C03         6.7620    3.8090   -0.7810 c2        1 18P      0.159000
      8 N03         6.4850    2.5200   -0.7920 n2        1 18P     -0.302000
      9 C04         7.2370    1.6150   -1.6220 c3        1 18P      0.115000
     10 N04         4.5070   -2.0880   -0.1480 n4        1 18P     -0.060000
     11 C05         6.6060    1.3810   -3.0090 c3        1 18P     -0.232000
     12 C06         8.6740    2.1490   -1.9500 c2        1 18P      0.244000
     13 C07         7.3980    0.2470   -0.9000 c3        1 18P     -0.148000
     14 C08         8.9750   -1.4190    1.8910 c1        1 18P      0.017000
     15 C09         7.8640   -1.6700    1.5020 c1        1 18P     -0.256000
     16 C10         6.5780   -2.0550    1.1480 c2        1 18P      0.197000
     17 C11         5.8420   -1.5160    0.1130 c2        1 18P     -0.183000
     18 C12         6.1250   -0.3940   -0.6870 c1        1 18P     -0.122000
     19 C13         3.3850   -1.4390    0.6970 c2        1 18P      0.296000
     20 C14         2.9330   -0.1700    0.3290 c2        1 18P     -0.421000
     21 C15         1.6900    0.3300    1.0620 c3        1 18P     -0.034000
     22 C16         1.1310    1.3190    0.1900 c1        1 18P      0.107000
     23 C17         1.3830    2.0430   -0.8440 c2        1 18P     -0.099000
     24 H           4.4790    0.4740   -0.9490 hn        1 18P      0.331000
     25 H01         9.8550    3.8110   -2.1740 hn        1 18P      0.284000
     26 H01A       10.8750    2.1560   -3.6060 h1        1 18P      0.137000
     27 H01B       11.3450    0.5250   -2.8880 h1        1 18P      0.137000
     28 H02         8.4510    5.2360   -0.9610 h1        1 18P      0.162000
     29 H02A       11.4430    2.0420   -1.8420 h1        1 18P      0.137000
     30 HN02        7.5270    4.8980   -2.5140 h1        1 18P      0.162000
     31 HN0A        6.2630    5.6600   -0.0520 hn        1 18P      0.263000
     32 HN04        4.2920   -1.9710   -1.1420 hn        1 18P      0.250000
     33 H05         7.2510    0.6900   -3.6040 hc        1 18P      0.115333
     34 H05A        6.4770    2.3400   -3.5640 hc        1 18P      0.115333
     35 H05B        5.6010    0.9100   -2.8750 hc        1 18P      0.115333
     36 H08         8.0180   -0.4290   -1.5650 hc        1 18P      0.147000
     37 H09         9.9610   -1.2100    2.2470 ha        1 18P      0.264000
     38 H10         6.1430   -2.8480    1.8060 ha        1 18P      0.196000
     39 H12         7.9760    0.3870    0.0590 hc        1 18P      0.147000
     40 H15         1.9560    0.7610    2.0690 hc        1 18P      0.167000
     41 H16         0.9940   -0.5430    1.2400 hc        1 18P      0.167000
     42 O01         9.5590    1.1970   -2.2660 os        1 18P     -0.162000
     43 N02         6.0280    4.6970   -0.0460 n3        1 18P     -0.348000
     44 H042        4.5130   -3.0910    0.0770 hn        1 18P      0.250000
     45 H023        5.2210    4.4010    0.4510 hn        1 18P      0.263000
     46 C01        10.9020    1.5370   -2.6780 c3        1 18P     -0.109000
@<TRIPOS>BOND
     1    1    2 1   
     2    1   23 1   
     3    2   20 1   
     4    2   24 1   
     5    3   19 1   
     6    4   23 1   
     7    5    6 1   
     8    5   12 1   
     9    5   25 1   
    10    6    7 1   
    11    6   28 1   
    12    6   30 1   
    13    7    8 1   
    14    7   43 1   
    15    8    9 1   
    16    9   11 1   
    17    9   12 1   
    18    9   13 1   
    19   10   17 1   
    20   10   19 1   
    21   10   32 1   
    22   10   44 1   
    23   11   33 1   
    24   11   34 1   
    25   11   35 1   
    26   12   42 1   
    27   13   18 1   
    28   13   36 1   
    29   13   39 1   
    30   14   15 1   
    31   14   37 1   
    32   15   16 1   
    33   16   17 1   
    34   16   38 1   
    35   17   18 1   
    36   19   20 1   
    37   20   21 1   
    38   21   22 1   
    39   21   40 1   
    40   21   41 1   
    41   22   23 1   
    42   26   46 1   
    43   27   46 1   
    44   29   46 1   
    45   31   43 1   
    46   42   46 1   
    47   43   45 1   
@<TRIPOS>SUBSTRUCTURE
     1 18P         1 TEMP              0 ****  ****    0 ROOT
