@<TRIPOS>MOLECULE
18P
   44    42     1     0     0
SMALL
bcc


@<TRIPOS>ATOM
      1 C          -6.2620   -0.6880   -0.3450 c1        1 18P     -0.063000
      2 N          -4.9270   -0.9150   -0.2000 n1        1 18P     -0.123000
      3 O          -2.2720   -2.9320   -1.5050 o         1 18P     -0.355000
      4 CL         -8.6960   -1.1040   -1.4780 cl        1 18P      0.017000
      5 C01         5.1860    1.6900    1.6630 c3        1 18P     -0.074000
      6 N01         3.8000    1.7290    1.3400 n         1 18P     -0.339000
      7 O01         3.7140   -0.3070    1.2830 o         1 18P     -0.362000
      8 C02         2.9700    2.7660    1.8720 c3        1 18P     -0.020000
      9 N02         0.9240    4.1330    1.2650 n3        1 18P     -0.324000
     10 C03         1.8460    3.1080    0.9280 c2        1 18P      0.071000
     11 N03         1.4220    1.9660   -0.0510 n1        1 18P     -0.245000
     12 C04         2.3550    0.9300   -0.2100 c2        1 18P      0.066000
     13 N04        -2.0400   -1.1740   -0.0690 n         1 18P     -0.301000
     14 C05         3.0070    0.8170   -1.5710 c3        1 18P     -0.185000
     15 C06         3.2710    0.7840    0.9870 c2        1 18P      0.289000
     16 C07         1.5400   -0.2580   -0.1460 c2        1 18P     -0.061000
     17 C08         2.1360   -1.4980    0.0270 c2        1 18P     -0.148000
     18 C09         1.3500   -2.6320    0.1570 c1        1 18P     -0.111000
     19 C10        -0.0310   -2.5260    0.1130 c1        1 18P     -0.146000
     20 C11        -0.6270   -1.2860   -0.0600 c2        1 18P      0.062000
     21 C12         0.1590   -0.1520   -0.1890 c2        1 18P     -0.155000
     22 C13        -2.8170   -2.0690   -0.8460 c2        1 18P      0.361000
     23 C14        -4.3150   -1.8830   -0.9390 c2        1 18P     -0.068000
     24 C15        -5.0520   -2.6380   -1.8380 c2        1 18P     -0.113000
     25 C16        -6.3900   -2.4110   -1.9830 c1        1 18P     -0.098000
     26 C17        -7.0010   -1.4410   -1.2430 c1        1 18P     -0.101000
     27 H          -6.6990    0.0060    0.1850 ha        1 18P      0.178000
     28 H01         5.6900    2.2130    1.0030 h1        1 18P      0.087333
     29 H01A        5.4990    0.7590    1.6500 h1        1 18P      0.087333
     30 H01B        5.3250    2.0690    2.5570 h1        1 18P      0.087333
     31 H02         2.6780    2.5740    2.7860 h1        1 18P      0.103000
     32 H02A        3.5080    3.5710    2.0220 h1        1 18P      0.103000
     33 HN02        1.1920    4.8360    1.7830 hn        1 18P      0.197500
     34 HN0A        0.0580    4.0820    0.9750 hn        1 18P      0.197500
     35 HN04       -2.4500   -0.5400    0.4420 hn        1 18P      0.251000
     36 H05         3.8780    0.3770   -1.4810 hc        1 18P      0.093333
     37 H05A        2.4330    0.2870   -2.1650 hc        1 18P      0.093333
     38 H05B        3.1300    1.7120   -1.9490 hc        1 18P      0.093333
     39 H08         3.1080   -1.5720    0.0580 ha        1 18P      0.160000
     40 H09         1.7690   -3.5050    0.2790 ha        1 18P      0.137000
     41 H10        -0.5850   -3.3250    0.2040 ha        1 18P      0.170000
     42 H12        -0.2600    0.7180   -0.3280 ha        1 18P      0.148000
     43 H15        -4.6140   -3.3310   -2.3670 ha        1 18P      0.178000
     44 H16        -6.9090   -2.9420   -2.6160 ha        1 18P      0.160000
@<TRIPOS>BOND
     1    1   26 1   
     2    1   27 1   
     3    2   23 1   
     4    3   22 1   
     5    4   26 1   
     6    5    6 1   
     7    5   28 1   
     8    5   29 1   
     9    5   30 1   
    10    6    8 1   
    11    6   15 1   
    12    7   15 1   
    13    8   10 1   
    14    8   31 1   
    15    8   32 1   
    16    9   10 1   
    17    9   33 1   
    18    9   34 1   
    19   10   11 1   
    20   12   14 1   
    21   12   15 1   
    22   12   16 1   
    23   13   20 1   
    24   13   22 1   
    25   13   35 1   
    26   14   36 1   
    27   14   37 1   
    28   14   38 1   
    29   16   17 1   
    30   16   21 1   
    31   17   18 1   
    32   17   39 1   
    33   18   40 1   
    34   19   20 1   
    35   19   41 1   
    36   20   21 1   
    37   21   42 1   
    38   22   23 1   
    39   23   24 1   
    40   24   25 1   
    41   24   43 1   
    42   25   44 1   
@<TRIPOS>SUBSTRUCTURE
     1 18P         1 TEMP              0 ****  ****    0 ROOT
