@<TRIPOS>MOLECULE
18P
   45    46     1     0     0
SMALL
bcc


@<TRIPOS>ATOM
      1 C           2.0540   -1.4020    0.9030 c1        1 18P      0.030000
      2 N           3.1540   -0.7000    0.8030 n7        1 18P     -0.072000
      3 O           4.2760    2.7860    0.8810 o         1 18P     -0.476000
      4 Cl         -0.6720   -1.6190    0.8750 cl        1 18P      0.165000
      5 N01         9.4730    2.8400   -1.5660 ns        1 18P     -0.428000
      6 C02         8.3780    3.3500   -0.8090 c3        1 18P      0.006000
      7 C03         7.0460    3.1390   -1.5330 c2        1 18P     -0.043000
      8 N03         6.8200    2.3330   -2.5140 n2        1 18P     -0.106000
      9 C04         7.8880    1.4470   -2.9800 c3        1 18P      0.030000
     10 N04         5.5160    1.0730    0.0650 ns        1 18P     -0.385000
     11 C05         7.8790    1.3800   -4.5180 c3        1 18P     -0.196000
     12 C06         9.3190    1.8850   -2.5400 c2        1 18P      0.279000
     13 C07         7.7100    0.0410   -2.4400 c2        1 18P     -0.087000
     14 C08         6.0240   -3.6960    0.1300 c2        1 18P     -0.132000
     15 C09         6.0470   -2.4880   -0.3440 c1        1 18P     -0.087000
     16 C10         6.0860   -1.2980   -0.8240 cu        1 18P     -0.157000
     17 C11         5.4730    0.0670   -0.9360 cx        1 18P      0.025000
     18 C12         6.7250   -0.3270   -1.6500 cu        1 18P     -0.105000
     19 C13         4.3130    1.5350    0.6830 c2        1 18P      0.363000
     20 C14         3.2360    0.6870    1.0590 c2        1 18P     -0.427000
     21 C15         2.0780    1.3300    1.8010 c3        1 18P     -0.029000
     22 C16         0.9620    0.4670    1.5620 c1        1 18P      0.054000
     23 C17         0.6860   -0.7280    1.1480 c2        1 18P     -0.095000
     24 H           3.9970   -1.1780    0.5260 hn        1 18P      0.292000
     25 H01        12.7460    2.5680   -0.5830 ha        1 18P      0.065500
     26 H01A       12.7060    3.9280   -1.8250 ha        1 18P      0.065500
     27 H01B       10.4580    3.1160   -1.2860 hn        1 18P      0.326000
     28 H02         8.5500    4.4500   -0.6190 h1        1 18P      0.104000
     29 H02A        8.3000    2.8300    0.1940 h1        1 18P      0.104000
     30 HN02        6.1220    4.9290   -1.0980 hn        1 18P      0.272667
     31 HN0A        5.7970    3.6920    0.0160 hn        1 18P      0.272667
     32 HN04        6.2800    0.9940    0.7050 hn        1 18P      0.211000
     33 H05         8.7220    0.7190   -4.8420 hc        1 18P      0.109667
     34 H05A        8.0290    2.3930   -4.9590 hc        1 18P      0.109667
     35 H05B        6.9140    0.9560   -4.8840 hc        1 18P      0.109667
     36 H08         6.5530   -3.9760    1.0550 ha        1 18P      0.158500
     37 H09         5.4730   -4.5100   -0.3690 ha        1 18P      0.158500
     38 H10         4.5440    0.1480   -1.5540 h1        1 18P      0.153000
     39 H12         8.5010   -0.6550   -2.7740 ha        1 18P      0.182000
     40 H15         1.9340    2.3740    1.3940 hc        1 18P      0.159000
     41 H16         2.2930    1.4280    2.9020 hc        1 18P      0.159000
     42 O01        10.3160    1.3810   -3.0890 o         1 18P     -0.344000
     43 N02         5.9200    3.9340   -0.9920 nz        1 18P     -0.039000
     44 H023        5.0320    3.7060   -1.4590 hn        1 18P      0.272667
     45 C01        12.1340    3.2720   -1.1580 c1        1 18P     -0.029000
@<TRIPOS>BOND
     1    1    2 1   
     2    1   23 1   
     3    2   20 1   
     4    2   24 1   
     5    3   19 1   
     6    4   23 1   
     7    5    6 1   
     8    5   12 1   
     9    5   27 1   
    10    6    7 1   
    11    6   28 1   
    12    6   29 1   
    13    7    8 1   
    14    7   43 1   
    15    8    9 1   
    16    9   11 1   
    17    9   12 1   
    18    9   13 1   
    19   10   17 1   
    20   10   19 1   
    21   10   32 1   
    22   11   33 1   
    23   11   34 1   
    24   11   35 1   
    25   12   42 1   
    26   13   18 1   
    27   13   39 1   
    28   14   15 1   
    29   14   36 1   
    30   14   37 1   
    31   15   16 1   
    32   16   17 1   
    33   16   18 1   
    34   17   18 1   
    35   17   38 1   
    36   19   20 1   
    37   20   21 1   
    38   21   22 1   
    39   21   40 1   
    40   21   41 1   
    41   22   23 1   
    42   25   45 1   
    43   26   45 1   
    44   30   43 1   
    45   31   43 1   
    46   43   44 1   
@<TRIPOS>SUBSTRUCTURE
     1 18P         1 TEMP              0 ****  ****    0 ROOT
