@<TRIPOS>MOLECULE
18P
   44    46     1     0     0
SMALL
bcc


@<TRIPOS>ATOM
      1 C           5.0790   -1.0790   -0.9570 ca        1 18P      0.402200
      2 N           3.8700   -0.5280   -0.7830 nb        1 18P     -0.650000
      3 O           2.4530    2.4440    0.6280 o         1 18P     -0.594100
      4 CL          7.7410   -1.3210   -0.6320 cl        1 18P     -0.061400
      5 N01        -5.4810   -0.3860    0.6130 n         1 18P     -0.483800
      6 C02        -4.8460   -1.4110    1.3980 c3        1 18P      0.020700
      7 C03        -3.8330   -2.2300    0.5800 c2        1 18P      0.587200
      8 N03        -3.2250   -1.7720   -0.4800 n2        1 18P     -0.657900
      9 C04        -3.4520   -0.3920   -0.8940 c3        1 18P      0.147500
     10 N04         1.3060    0.5340   -0.0160 n         1 18P     -0.446100
     11 C05        -3.3690   -0.2990   -2.4330 c3        1 18P     -0.068100
     12 C06        -4.8580    0.1510   -0.5040 c         1 18P      0.680500
     13 C07        -2.3880    0.5380   -0.3200 ca        1 18P     -0.064300
     14 C08        -2.7210    1.7640    0.2630 ca        1 18P     -0.144000
     15 C09        -1.7130    2.5890    0.7560 ca        1 18P     -0.111000
     16 C10        -0.3740    2.2200    0.6820 ca        1 18P     -0.147000
     17 C11        -0.0210    0.9910    0.0870 ca        1 18P      0.057600
     18 C12        -1.0490    0.1580   -0.4180 ca        1 18P     -0.152000
     19 C13         2.4520    1.2670    0.2180 c         1 18P      0.578600
     20 C14         3.7830    0.5770   -0.0020 ca        1 18P      0.348800
     21 C15         4.9040    1.1590    0.6240 ca        1 18P     -0.178300
     22 C16         6.1600    0.5760    0.4400 ca        1 18P     -0.099000
     23 C17         6.2550   -0.5640   -0.3640 ca        1 18P     -0.086900
     24 H           5.1130   -1.9760   -1.6030 h4        1 18P      0.041100
     25 H01        -7.5110   -0.7680    1.0150 h1        1 18P      0.047700
     26 H01A       -6.6970    0.4410    2.1150 h1        1 18P      0.047700
     27 H01B       -7.1220    0.9080    0.3960 h1        1 18P      0.047700
     28 H02        -4.2840   -0.9470    2.2620 h1        1 18P      0.063200
     29 H02A       -5.6460   -2.0810    1.8270 h1        1 18P      0.063200
     30 HN02       -4.3420   -3.9780    1.4550 hn        1 18P      0.401300
     31 HN0A       -2.9390   -4.0690    0.5630 hn        1 18P      0.401300
     32 HN04        1.4070   -0.3820   -0.4000 hn        1 18P      0.338500
     33 H05        -4.1500   -0.9390   -2.9050 hc        1 18P      0.054700
     34 H05A       -3.5420    0.7620   -2.7350 hc        1 18P      0.054700
     35 H05B       -2.3620   -0.6260   -2.7820 hc        1 18P      0.054700
     36 H08        -3.7680    2.1000    0.3230 ha        1 18P      0.147000
     37 H09        -1.9780    3.5560    1.2120 ha        1 18P      0.136000
     38 H10         0.3970    2.8970    1.0830 ha        1 18P      0.172000
     39 H12        -0.7950   -0.8020   -0.8980 ha        1 18P      0.148000
     40 H15         4.7790    2.0660    1.2370 ha        1 18P      0.178000
     41 H16         7.0520    1.0100    0.9170 ha        1 18P      0.160000
     42 C01        -6.7660    0.0720    1.0560 c3        1 18P      0.080300
     43 O01        -5.4270    1.0280   -1.1810 o         1 18P     -0.632500
     44 N02        -3.5390   -3.4950    1.1180 nh        1 18P     -0.884800
@<TRIPOS>BOND
     1    1    2 ar  
     2    1   23 ar  
     3    1   24 1   
     4    2   20 ar  
     5    3   19 2   
     6    4   23 1   
     7    5    6 1   
     8    5   12 1   
     9    5   42 1   
    10    6    7 1   
    11    6   28 1   
    12    6   29 1   
    13    7    8 2   
    14    7   44 1   
    15    8    9 1   
    16    9   11 1   
    17    9   12 1   
    18    9   13 1   
    19   10   17 1   
    20   10   19 1   
    21   10   32 1   
    22   11   33 1   
    23   11   34 1   
    24   11   35 1   
    25   12   43 2   
    26   13   14 ar  
    27   13   18 ar  
    28   14   15 ar  
    29   14   36 1   
    30   15   16 ar  
    31   15   37 1   
    32   16   17 ar  
    33   16   38 1   
    34   17   18 ar  
    35   18   39 1   
    36   19   20 1   
    37   20   21 ar  
    38   21   22 ar  
    39   21   40 1   
    40   22   23 ar  
    41   22   41 1   
    42   25   42 1   
    43   26   42 1   
    44   27   42 1   
    45   30   44 1   
    46   31   44 1   
@<TRIPOS>SUBSTRUCTURE
     1 18P         1 TEMP              0 ****  ****    0 ROOT
