@<TRIPOS>MOLECULE
18P
   45    47     1     0     0
SMALL
bcc


@<TRIPOS>ATOM
      1 C           0.1780   -1.2530   -1.7220 c1        1 18P     -0.018000
      2 N           1.4390   -0.9460   -1.4090 n3        1 18P     -0.076000
      3 O           3.6060   -0.7550    1.4380 o         1 18P     -0.325000
      4 CL         -2.1510   -2.4160   -0.9420 cl        1 18P      0.105000
      5 N01        10.4150    2.6680   -1.6530 n3        1 18P     -0.046000
      6 C02        10.2190    2.8940   -0.2920 c2        1 18P     -0.443000
      7 C03         8.8710    2.9190    0.1520 c2        1 18P      0.072000
      8 N03         7.7860    2.7030   -0.5660 n2        1 18P     -0.271000
      9 C04         7.9500    2.1160   -1.8830 c3        1 18P      0.132000
     10 N04         4.2200   -0.1250   -0.7020 n         1 18P     -0.282000
     11 C05         6.9680    2.7490   -2.8790 c3        1 18P     -0.208000
     12 C06         9.3960    2.3180   -2.4360 c2        1 18P      0.091000
     13 C07         7.7480    0.5660   -1.8680 c3        1 18P     -0.061000
     14 C08         7.1010    0.6920    2.7150 c1        1 18P     -0.295000
     15 C09         6.8920    0.1450    1.6680 c1        1 18P     -0.078000
     16 C10         6.6510   -0.5420    0.4480 cx        1 18P      0.045000
     17 C11         5.5500   -0.1290   -0.4800 cu        1 18P      0.050000
     18 C12         6.7930    0.1090   -0.8940 cu        1 18P     -0.242000
     19 C13         3.2630   -0.5020    0.2700 c2        1 18P      0.363000
     20 C14         1.8600   -0.5380   -0.1550 c2        1 18P     -0.309000
     21 C15         0.8250   -0.2840    0.9060 c3        1 18P     -0.047000
     22 C16        -0.3720   -0.9560    0.4980 c1        1 18P     -0.061000
     23 C17        -0.7780   -1.5360   -0.6100 c2        1 18P     -0.119000
     24 H           2.1230   -1.0760   -2.1310 hn        1 18P      0.269000
     25 H01        11.1310    3.3200   -4.3200 h1        1 18P      0.114333
     26 H01A       10.5100    2.0500   -5.4970 h1        1 18P      0.114333
     27 H01B       11.3480    2.7680   -2.0060 hn        1 18P      0.267000
     28 H02        11.4890    1.5290   -4.0290 h1        1 18P      0.114333
     29 H02A       11.1110    3.0220    0.3240 h4        1 18P      0.184000
     30 HN02        9.5510    3.4970    2.0140 hn        1 18P      0.264000
     31 HN0A        8.2110    2.4710    2.0570 hn        1 18P      0.264000
     32 HN04        3.9060    0.3510   -1.5200 hn        1 18P      0.239000
     33 H05         7.1260    3.8510   -2.9540 hc        1 18P      0.102333
     34 H05A        7.1190    2.2940   -3.8880 hc        1 18P      0.102333
     35 H05B        5.9200    2.5570   -2.5440 hc        1 18P      0.102333
     36 H08         7.4310    0.2590   -2.9030 hc        1 18P      0.108500
     37 H09         7.2200    1.0770    3.6970 ha        1 18P      0.226000
     38 H10         6.8800   -1.6300    0.5510 hc        1 18P      0.142000
     39 H12         8.7380    0.0730   -1.6570 hc        1 18P      0.108500
     40 H15         0.6270    0.8210    1.0260 hc        1 18P      0.169500
     41 H16         1.2240   -0.6550    1.8990 hc        1 18P      0.169500
     42 O01         9.4870    2.1240   -3.7780 os        1 18P     -0.166000
     43 N02         8.6530    3.2790    1.5800 n4        1 18P     -0.030000
     44 H023        8.0270    4.0890    1.6490 hn        1 18P      0.264000
     45 C01        10.7560    2.2730   -4.4250 c3        1 18P     -0.107000
@<TRIPOS>BOND
     1    1    2 1   
     2    1   23 1   
     3    2   20 1   
     4    2   24 1   
     5    3   19 1   
     6    4   23 1   
     7    5    6 1   
     8    5   12 1   
     9    5   27 1   
    10    6    7 1   
    11    6   29 1   
    12    7    8 1   
    13    7   43 1   
    14    8    9 1   
    15    9   11 1   
    16    9   12 1   
    17    9   13 1   
    18   10   17 1   
    19   10   19 1   
    20   10   32 1   
    21   11   33 1   
    22   11   34 1   
    23   11   35 1   
    24   12   42 1   
    25   13   18 1   
    26   13   36 1   
    27   13   39 1   
    28   14   15 1   
    29   14   37 1   
    30   15   16 1   
    31   16   17 1   
    32   16   18 1   
    33   16   38 1   
    34   17   18 1   
    35   19   20 1   
    36   20   21 1   
    37   21   22 1   
    38   21   40 1   
    39   21   41 1   
    40   22   23 1   
    41   25   45 1   
    42   26   45 1   
    43   28   45 1   
    44   30   43 1   
    45   31   43 1   
    46   42   45 1   
    47   43   44 1   
@<TRIPOS>SUBSTRUCTURE
     1 18P         1 TEMP              0 ****  ****    0 ROOT
