@<TRIPOS>MOLECULE
18Q
   45    47     1     0     0
SMALL
bcc


@<TRIPOS>ATOM
      1 P           4.1570    1.6210    1.7000 p5        1 18Q      1.331900
      2 N1          0.3250   -2.4690   -0.9160 n         1 18Q     -0.366000
      3 C2         -0.1440   -3.0070   -2.1410 c         1 18Q      0.800500
      4 O2          0.4460   -3.9360   -2.7380 o         1 18Q     -0.660500
      5 N3         -1.3310   -2.4880   -2.6860 n         1 18Q     -0.591500
      6 C4         -2.0880   -1.4820   -2.0590 c         1 18Q      0.738700
      7 O4         -3.1050   -1.0720   -2.6600 o         1 18Q     -0.682500
      8 C5         -1.6030   -1.0360   -0.7600 cc        1 18Q     -0.401400
      9 C6         -0.4050   -1.5150   -0.2620 cd        1 18Q      0.170600
     10 C1'         1.6280   -2.9850   -0.4000 c3        1 18Q      0.314500
     11 C2'         2.8450   -2.5180   -1.2190 c3        1 18Q     -0.127400
     12 C21        -2.3950   -0.0910    0.0570 c         1 18Q      0.711300
     13 O22        -2.4630   -0.2050    1.3000 o         1 18Q     -0.618100
     14 N23        -3.0220    0.9570   -0.6040 n         1 18Q     -0.546900
     15 C24        -3.8270    1.9090    0.1050 c3        1 18Q      0.163300
     16 C25        -5.2660    1.5520    0.2570 cc        1 18Q     -0.115400
     17 S26        -6.5200    2.3790   -0.5040 ss        1 18Q     -0.030800
     18 C27        -7.7130    1.4310    0.1840 cc        1 18Q     -0.183100
     19 C28        -7.1810    0.4600    1.0030 cd        1 18Q     -0.157000
     20 C29        -5.7520    0.5310    1.0470 cd        1 18Q     -0.141000
     21 C3'         3.5400   -1.4680   -0.3400 c3        1 18Q      0.156100
     22 O3'         4.9170   -1.7650   -0.2940 oh        1 18Q     -0.670800
     23 C4'         2.8940   -1.6120    1.0530 c3        1 18Q      0.051100
     24 O4'         1.8040   -2.5740    0.9370 os        1 18Q     -0.437600
     25 C5'         2.3600   -0.2820    1.6390 c3        1 18Q      0.228400
     26 O5'         3.2960    0.2930    2.4480 os        1 18Q     -0.550200
     27 OP1         5.0390    2.1300    2.7960 o         1 18Q     -0.929167
     28 OP2         4.8220    0.8280    0.5910 o         1 18Q     -0.929167
     29 OP3         3.0210    2.4820    1.2310 o         1 18Q     -0.929167
     30 HN3        -1.6170   -2.8390   -3.5720 hn        1 18Q      0.336500
     31 H6          0.0220   -1.1410    0.7040 h4        1 18Q      0.243000
     32 H1'         1.5110   -4.1080   -0.3960 h2        1 18Q      0.068700
     33 H2'         3.5190   -3.3930   -1.3900 hc        1 18Q      0.058200
     34 H2'A        2.5630   -2.0980   -2.2120 hc        1 18Q      0.058200
     35 HN23       -3.1790    0.8620   -1.5820 hn        1 18Q      0.324500
     36 H24        -3.3870    2.0420    1.1400 h1        1 18Q      0.073200
     37 H24A       -3.7480    2.8930   -0.4440 h1        1 18Q      0.073200
     38 H27        -8.7710    1.5870   -0.0120 h4        1 18Q      0.154000
     39 H28        -7.7560   -0.2810    1.5590 ha        1 18Q      0.141000
     40 H29        -5.1200   -0.1420    1.6350 ha        1 18Q      0.180000
     41 H3'         3.3930   -0.4270   -0.7420 h1        1 18Q      0.111700
     42 HO3'        5.3430   -0.9500    0.0630 ho        1 18Q      0.501000
     43 H4'         3.6140   -2.0790    1.7770 h1        1 18Q      0.083700
     44 H5'         2.0620    0.4120    0.8010 h1        1 18Q     -0.002800
     45 H5'A        1.4390   -0.5420    2.2450 h1        1 18Q     -0.002800
@<TRIPOS>BOND
     1    1   26 1   
     2    1   27 1   
     3    1   28 1   
     4    1   29 1   
     5    2    3 1   
     6    2    9 1   
     7    2   10 1   
     8    3    4 2   
     9    3    5 1   
    10    5    6 1   
    11    5   30 1   
    12    6    7 2   
    13    6    8 1   
    14    8    9 2   
    15    8   12 1   
    16    9   31 1   
    17   10   11 1   
    18   10   24 1   
    19   10   32 1   
    20   11   21 1   
    21   11   33 1   
    22   11   34 1   
    23   12   13 2   
    24   12   14 1   
    25   14   15 1   
    26   14   35 1   
    27   15   16 1   
    28   15   36 1   
    29   15   37 1   
    30   16   17 1   
    31   16   20 2   
    32   17   18 1   
    33   18   19 2   
    34   18   38 1   
    35   19   20 1   
    36   19   39 1   
    37   20   40 1   
    38   21   22 1   
    39   21   23 1   
    40   21   41 1   
    41   22   42 1   
    42   23   24 1   
    43   23   25 1   
    44   23   43 1   
    45   25   26 1   
    46   25   44 1   
    47   25   45 1   
@<TRIPOS>SUBSTRUCTURE
     1 18Q         1 TEMP              0 ****  ****    0 ROOT
