@<TRIPOS>MOLECULE
18Q
   45    43     1     0     0
SMALL
bcc


@<TRIPOS>ATOM
      1 P          -3.9240    0.0610    4.1300 p3        1 18Q      2.550000
      2 N1          0.6670   -0.9250    1.2500 n         1 18Q     -0.264000
      3 C2          1.4260    0.1270    1.9100 c2        1 18Q      0.389000
      4 O2          1.7770   -0.0110    3.0450 o         1 18Q     -0.425000
      5 N3          1.7630    1.3480    1.1840 n         1 18Q     -0.381000
      6 C4          1.2960    1.5350   -0.1490 c2        1 18Q      0.377000
      7 O4          1.5230    2.5590   -0.7240 o         1 18Q     -0.364000
      8 C5          0.4570    0.5150   -0.7750 c2        1 18Q     -0.327000
      9 C6          0.0950   -0.6900   -0.0240 c2        1 18Q      0.102000
     10 C1'         0.6500   -2.2700    1.8070 c3        1 18Q      0.155000
     11 C2'         1.1240   -2.2580    3.3070 c3        1 18Q     -0.199000
     12 C21         0.0780    0.6350   -2.2500 c2        1 18Q      0.366000
     13 O22        -0.6250   -0.2200   -2.7700 o         1 18Q     -0.402000
     14 N23         0.6460    1.6450   -3.0390 n         1 18Q     -0.343000
     15 C24        -0.1120    2.2240   -4.1160 c3        1 18Q      0.004000
     16 C25         0.6790    2.0900   -5.4350 c2        1 18Q     -0.319000
     17 S26         1.2620    0.7720   -6.0190 ss        1 18Q      0.607000
     18 C27         1.7940    1.0870   -7.4490 c1        1 18Q     -0.508000
     19 C28         1.5520    2.4940   -7.7150 c1        1 18Q     -0.159000
     20 C29         0.8430    3.1320   -6.4340 c1        1 18Q     -0.201000
     21 C3'        -0.1770   -2.4880    4.1570 c3        1 18Q     -0.003000
     22 O3'        -0.1920   -3.8670    4.7150 oh        1 18Q     -0.378000
     23 C4'        -1.1420   -2.3350    3.3350 c3        1 18Q     -0.049000
     24 O4'        -0.5450   -2.7200    1.8390 os        1 18Q     -0.294000
     25 C5'        -1.6240   -0.9050    3.3570 c3        1 18Q      0.079000
     26 O5'        -3.0420   -0.8830    3.1740 o         1 18Q     -0.730000
     27 OP1        -4.1760   -0.6430    5.4400 o         1 18Q     -1.248667
     28 OP2        -3.1830    1.3500    4.3880 o         1 18Q     -1.248667
     29 OP3        -5.2470    0.3640    3.4570 o         1 18Q     -1.248667
     30 HN3         2.2360    2.0040    1.5960 hn        1 18Q      0.240000
     31 H6         -0.4670   -1.3590   -0.4300 h4        1 18Q      0.298000
     32 H1'         1.2160   -2.8580    1.2820 h2        1 18Q      0.129000
     33 H2'         1.7680   -2.9860    3.4650 hc        1 18Q      0.094000
     34 H2'A        1.5180   -1.4090    3.5260 hc        1 18Q      0.094000
     35 HN23        1.4730    1.9680   -2.8390 hn        1 18Q      0.298000
     36 H24        -0.2750    3.1710   -3.9290 h1        1 18Q      0.132000
     37 H24A       -0.9780    1.7500   -4.2020 h1        1 18Q      0.132000
     38 H27         2.2190    0.4450   -8.0660 DU        1 18Q      0.138667
     39 H28         1.7870    2.9790   -8.5530 DU        1 18Q      0.138667
     40 H29         0.5600    4.0850   -6.3370 DU        1 18Q      0.138667
     41 H3'        -0.2330   -1.8370    4.8680 h1        1 18Q      0.188000
     42 HO3'        0.0020   -3.8370    5.5930 ho        1 18Q      0.279000
     43 H4'        -1.8770   -2.9390    3.5660 h1        1 18Q      0.088000
     44 H5'        -1.3960   -0.4940    4.2260 h1        1 18Q      0.037000
     45 H5'A       -1.1960   -0.4060    2.6400 h1        1 18Q      0.037000
@<TRIPOS>BOND
     1    1   27 1   
     2    1   28 1   
     3    1   29 1   
     4    2    3 1   
     5    2    9 1   
     6    2   10 1   
     7    3    4 1   
     8    3    5 1   
     9    5    6 1   
    10    5   30 1   
    11    6    7 1   
    12    6    8 1   
    13    8    9 1   
    14    8   12 1   
    15    9   31 1   
    16   10   11 1   
    17   10   24 1   
    18   10   32 1   
    19   11   21 1   
    20   11   33 1   
    21   11   34 1   
    22   12   13 1   
    23   12   14 1   
    24   14   15 1   
    25   14   35 1   
    26   15   16 1   
    27   15   36 1   
    28   15   37 1   
    29   16   17 1   
    30   16   20 1   
    31   17   18 1   
    32   18   19 1   
    33   19   20 1   
    34   21   22 1   
    35   21   23 1   
    36   21   41 1   
    37   22   42 1   
    38   23   24 1   
    39   23   25 1   
    40   23   43 1   
    41   25   26 1   
    42   25   44 1   
    43   25   45 1   
@<TRIPOS>SUBSTRUCTURE
     1 18Q         1 TEMP              0 ****  ****    0 ROOT
