@<TRIPOS>MOLECULE
18R
   72    76     1     0     0
SMALL
bcc


@<TRIPOS>ATOM
      1 C1          3.1880   -0.5970    1.0190 c         1 18R      0.676700
      2 N1          4.3950   -0.7470    0.3520 n         1 18R     -0.469100
      3 O1          3.0800   -0.0210    2.1170 o         1 18R     -0.579100
      4 N2         -7.2220   -1.1130    0.3370 n         1 18R     -0.457800
      5 C2         -8.3000   -0.5400   -0.3420 c         1 18R      0.654300
      6 O2         -9.4450   -0.5830    0.1500 o         1 18R     -0.591100
      7 C3         -5.0840    0.0800    0.8090 c3        1 18R      0.050000
      8 C4         -5.1450   -0.4210    2.2590 c3        1 18R     -0.090400
      9 C5         -6.5900   -0.5760    2.6860 c3        1 18R     -0.105400
     10 C6         -7.3640   -1.4860    1.7300 c3        1 18R      0.075000
     11 C7         -5.8610   -0.9270   -0.0980 c3        1 18R      0.074000
     12 N3         -1.7440    3.4890   -1.4090 nb        1 18R     -0.799000
     13 C8         -3.0530    3.5820   -1.0540 ca        1 18R      0.699900
     14 N4         -3.8670    2.6650   -0.4850 nb        1 18R     -0.746000
     15 C9         -1.1090    2.2900   -1.1730 ca        1 18R      0.767200
     16 N5         -3.7200    0.2820    0.3280 na        1 18R      0.000200
     17 N6         -2.7590   -0.6590    0.3810 nc        1 18R     -0.501100
     18 C10        -1.6100   -0.1430   -0.1280 cd        1 18R      0.416500
     19 C11        -1.8350    1.2250   -0.5530 ca        1 18R     -0.496500
     20 C12        -3.2330    1.4760   -0.2390 ca        1 18R      0.477800
     21 C13        -0.3650   -0.8970   -0.2140 ca        1 18R     -0.103900
     22 C14         0.7920   -0.4210    0.4120 ca        1 18R     -0.082000
     23 C15         1.9840   -1.1490    0.3230 ca        1 18R     -0.149600
     24 C16         2.0140   -2.3670   -0.3610 ca        1 18R     -0.100000
     25 C17         0.8550   -2.8470   -0.9700 ca        1 18R     -0.137000
     26 C18        -0.3320   -2.1180   -0.9020 ca        1 18R     -0.080000
     27 C19        -8.0580    0.0670   -1.6800 ce        1 18R     -0.225200
     28 C20        -8.5910   -0.4290   -2.7930 c2        1 18R     -0.155000
     29 C21         8.0370   -0.0370    0.2230 ca        1 18R     -0.038300
     30 C22         6.7440   -0.4330   -0.1330 ca        1 18R     -0.184000
     31 C23         8.2600    0.4810    1.5030 ca        1 18R     -0.152000
     32 C24         9.1440   -0.1830   -0.7890 c3        1 18R     -0.010700
     33 C25         5.6650   -0.3200    0.7760 ca        1 18R      0.065600
     34 C26         7.2040    0.5950    2.4040 ca        1 18R     -0.106000
     35 C27         8.8130    0.6440   -2.0290 c3        1 18R     -0.085100
     36 C28        10.4880    0.2910   -0.2490 c3        1 18R     -0.085100
     37 C29         9.2820   -1.6510   -1.1840 c3        1 18R     -0.085100
     38 C30         5.9140    0.2030    2.0620 ca        1 18R     -0.155000
     39 H1          4.3660   -1.1790   -0.5450 hn        1 18R      0.316500
     40 H2         -5.5910    1.0890    0.7530 h1        1 18R      0.094700
     41 H3         -4.6190   -1.4080    2.3470 hc        1 18R      0.062200
     42 H4         -4.6250    0.3040    2.9370 hc        1 18R      0.062200
     43 H5         -6.6290   -1.0260    3.7120 hc        1 18R      0.056200
     44 H6         -7.0820    0.4300    2.7380 hc        1 18R      0.056200
     45 H7         -8.4560   -1.4780    2.0090 h1        1 18R      0.069200
     46 H8         -6.9780   -2.5400    1.8370 h1        1 18R      0.069200
     47 H9         -5.3450   -1.9300   -0.0440 h1        1 18R      0.068700
     48 H10        -5.8320   -0.5750   -1.1650 h1        1 18R      0.068700
     49 H11        -3.5220    4.5680   -1.2670 h5        1 18R      0.054100
     50 H12         0.7200    2.8760   -1.9150 hn        1 18R      0.445800
     51 H13         0.6610    1.2840   -1.2920 hn        1 18R      0.445800
     52 H14         0.7680    0.5110    1.0030 ha        1 18R      0.165000
     53 H15         2.9350   -2.9680   -0.4060 ha        1 18R      0.140000
     54 H16         0.8740   -3.8110   -1.5010 ha        1 18R      0.143000
     55 H17        -1.2460   -2.5030   -1.3790 ha        1 18R      0.151000
     56 H18        -7.4490    0.9860   -1.6670 ha        1 18R      0.147000
     57 H19        -8.4410    0.0480   -3.7710 ha        1 18R      0.124500
     58 H20        -9.2130   -1.3350   -2.8030 ha        1 18R      0.124500
     59 H21         6.5710   -0.8390   -1.1420 ha        1 18R      0.128000
     60 H22         9.2630    0.8030    1.8170 ha        1 18R      0.137000
     61 H23         7.3900    1.0040    3.4090 ha        1 18R      0.135000
     62 H24         8.6960    1.7200   -1.7550 hc        1 18R      0.037033
     63 H25         9.6360    0.5520   -2.7780 hc        1 18R      0.037033
     64 H26         7.8650    0.2900   -2.4990 hc        1 18R      0.037033
     65 H27        10.4430    1.3710    0.0290 hc        1 18R      0.037033
     66 H28        10.7850   -0.3060    0.6460 hc        1 18R      0.037033
     67 H29        11.2740    0.1630   -1.0330 hc        1 18R      0.037033
     68 H30        10.1110   -1.7690   -1.9230 hc        1 18R      0.037033
     69 H31         9.5120   -2.2720   -0.2860 hc        1 18R      0.037033
     70 H32         8.3390   -2.0260   -1.6470 hc        1 18R      0.037033
     71 H33         5.1020    0.3080    2.7990 ha        1 18R      0.172000
     72 N7          0.1950    2.1150   -1.5590 nh        1 18R     -0.962500
@<TRIPOS>BOND
     1    1    2 1   
     2    1    3 2   
     3    1   23 1   
     4    2   33 1   
     5    2   39 1   
     6    4    5 1   
     7    4   10 1   
     8    4   11 1   
     9    5    6 2   
    10    5   27 1   
    11    7    8 1   
    12    7   11 1   
    13    7   16 1   
    14    7   40 1   
    15    8    9 1   
    16    8   41 1   
    17    8   42 1   
    18    9   10 1   
    19    9   43 1   
    20    9   44 1   
    21   10   45 1   
    22   10   46 1   
    23   11   47 1   
    24   11   48 1   
    25   12   13 ar  
    26   12   15 ar  
    27   13   14 ar  
    28   13   49 1   
    29   14   20 ar  
    30   15   19 ar  
    31   15   72 1   
    32   16   17 1   
    33   16   20 1   
    34   17   18 2   
    35   18   19 1   
    36   18   21 1   
    37   19   20 ar  
    38   21   22 ar  
    39   21   26 ar  
    40   22   23 ar  
    41   22   52 1   
    42   23   24 ar  
    43   24   25 ar  
    44   24   53 1   
    45   25   26 ar  
    46   25   54 1   
    47   26   55 1   
    48   27   28 2   
    49   27   56 1   
    50   28   57 1   
    51   28   58 1   
    52   29   30 ar  
    53   29   31 ar  
    54   29   32 1   
    55   30   33 ar  
    56   30   59 1   
    57   31   34 ar  
    58   31   60 1   
    59   32   35 1   
    60   32   36 1   
    61   32   37 1   
    62   33   38 ar  
    63   34   38 ar  
    64   34   61 1   
    65   35   62 1   
    66   35   63 1   
    67   35   64 1   
    68   36   65 1   
    69   36   66 1   
    70   36   67 1   
    71   37   68 1   
    72   37   69 1   
    73   37   70 1   
    74   38   71 1   
    75   50   72 1   
    76   51   72 1   
@<TRIPOS>SUBSTRUCTURE
     1 18R         1 TEMP              0 ****  ****    0 ROOT
