@<TRIPOS>MOLECULE
18R
   72    72     1     0     0
SMALL
bcc


@<TRIPOS>ATOM
      1 C1          0.4930   -1.5370    0.3980 c2        1 18R      0.321000
      2 N1          0.6380   -0.1890    0.6370 ns        1 18R     -0.334000
      3 O1          1.0530   -2.4100    1.0890 o         1 18R     -0.374000
      4 N2         -9.2960   -0.8100   -8.1100 n2        1 18R     -0.245000
      5 C2         -9.8890   -2.0890   -7.9290 c2        1 18R      0.288000
      6 O2         -9.2320   -3.1440   -8.0120 o         1 18R     -0.330000
      7 C3         -8.0610   -0.1720   -4.4390 c2        1 18R     -0.155000
      8 C4         -6.9430   -0.2780   -5.4090 c3        1 18R     -0.146000
      9 C5         -7.2970   -1.1370   -6.6060 c3        1 18R     -0.189000
     10 C6         -8.2070   -0.4240   -7.5570 c2        1 18R      0.025000
     11 C7         -8.4400    0.9680   -3.8610 c2        1 18R     -0.255000
     12 N3         -4.4280    1.9920    1.5310 n7        1 18R     -0.306000
     13 C8         -5.7260    2.2280    1.2180 c1        1 18R      0.044000
     14 N4         -6.2930    1.6860    0.0950 nu        1 18R     -0.244000
     15 C9         -3.5090    1.1780    0.7650 c2        1 18R      0.171000
     16 N5         -5.7900    0.2030   -1.9220 na        1 18R     -0.172000
     17 N6         -4.7040   -0.4260   -2.3950 n2        1 18R     -0.065000
     18 C10        -3.6770   -0.2120   -1.5220 c2        1 18R      0.023000
     19 C11        -4.1380    0.6220   -0.4320 c2        1 18R     -0.210000
     20 C12        -5.5080    0.8910   -0.7380 c2        1 18R      0.039000
     21 C13        -2.3180   -0.7150   -1.6930 c2        1 18R     -0.090000
     22 C14        -1.7350   -1.4470   -0.7070 c2        1 18R     -0.037000
     23 C15        -0.3410   -1.9480   -0.8240 c3        1 18R     -0.126000
     24 C16         0.3430   -1.5670   -2.0870 c2        1 18R     -0.087000
     25 C17        -0.2920   -0.8640   -3.0500 c2        1 18R     -0.207000
     26 C18        -1.6120   -0.3250   -2.8850 c1        1 18R     -0.025000
     27 C19       -11.3600   -2.0930   -7.7330 c2        1 18R     -0.203000
     28 C20       -12.0340   -3.2330   -7.5750 c2        1 18R     -0.141000
     29 C21         3.7500    0.6190    1.8790 c2        1 18R     -0.143000
     30 C22         2.5390    1.0600    1.5340 c2        1 18R     -0.190000
     31 C23         0.7430    2.3250    4.8960 c1        1 18R     -0.125000
     32 C24         5.0230    1.3620    1.6060 c3        1 18R     -0.122000
     33 C25         1.2800    0.2870    1.8520 c3        1 18R      0.052000
     34 C26         0.6640    1.7160    3.8470 c1        1 18R     -0.179000
     35 C27         5.0530    2.1890    0.3840 c1        1 18R     -0.025000
     36 C28         5.3470    2.2390    2.8150 c3        1 18R     -0.183500
     37 C29         6.1620    0.3470    1.4100 c3        1 18R     -0.183500
     38 C30         0.3820    1.0980    2.6850 c1        1 18R     -0.008000
     39 H1          0.0170    0.4470    0.1860 hn        1 18R      0.256000
     40 H2         -6.6170    0.2580   -2.4780 hn        1 18R      0.285000
     41 H3         -8.5670   -1.1240   -4.2040 ha        1 18R      0.127000
     42 H4         -6.0620   -0.7460   -4.8830 hc        1 18R      0.108000
     43 H5         -6.6170    0.7400   -5.7540 hc        1 18R      0.108000
     44 H6         -6.3560   -1.3850   -7.1710 hc        1 18R      0.117500
     45 H7         -7.7430   -2.1120   -6.2690 hc        1 18R      0.117500
     46 H8         -7.8810    0.6080   -7.8210 h4        1 18R      0.146000
     47 H9         -9.2680    1.0110   -3.1420 ha        1 18R      0.116000
     48 H10        -7.9690    1.9340   -4.0850 ha        1 18R      0.116000
     49 H11        -7.2430    1.8780   -0.1120 hn        1 18R      0.262000
     50 H12        -4.0930    2.4290    2.3600 hn        1 18R      0.253000
     51 H13        -1.8690    1.3160    1.8710 hn        1 18R      0.181000
     52 H14        -2.2570   -1.6990    0.2310 ha        1 18R      0.155000
     53 H15        -0.3900   -3.0850   -0.8020 hc        1 18R      0.176000
     54 H16         1.3870   -1.9080   -2.1850 ha        1 18R      0.141000
     55 H17         0.2100   -0.6330   -4.0050 ha        1 18R      0.152000
     56 H18       -11.8610   -1.1120   -7.7340 ha        1 18R      0.147000
     57 H19       -13.1230   -3.2500   -7.4300 ha        1 18R      0.127500
     58 H20       -11.5370   -4.2150   -7.5840 ha        1 18R      0.127500
     59 H21         2.3860    2.0050    0.9880 ha        1 18R      0.135000
     60 H22         3.8780   -0.3380    2.4150 ha        1 18R      0.134000
     61 H23         0.8010    2.8580    5.8120 ha        1 18R      0.232000
     62 H24         3.6230    3.8750    0.9380 ha        1 18R      0.012500
     63 H25         4.2770    1.9500   -0.3630 ha        1 18R      0.035000
     64 H26         4.2410    4.1650    0.9250 ha        1 18R      0.012500
     65 H27         4.5220    2.9690    2.9930 hc        1 18R      0.086833
     66 H28         6.2930    2.8020    2.6290 hc        1 18R      0.086833
     67 H29         5.4700    1.6030    3.7240 hc        1 18R      0.086833
     68 H30         7.1150    0.8810    1.1780 hc        1 18R      0.086833
     69 H31         6.2950   -0.2400    2.3500 hc        1 18R      0.086833
     70 H32         5.9190   -0.3540    0.5770 hc        1 18R      0.086833
     71 H33         1.5560   -0.6350    2.4750 h1        1 18R      0.162000
     72 N7         -2.2740    0.9220    1.0470 n2        1 18R     -0.328000
@<TRIPOS>BOND
     1    1    2 1   
     2    1    3 1   
     3    1   23 1   
     4    2   33 1   
     5    2   39 1   
     6    4    5 1   
     7    4   10 1   
     8    5    6 1   
     9    5   27 1   
    10    7    8 1   
    11    7   11 1   
    12    7   41 1   
    13    8    9 1   
    14    8   42 1   
    15    8   43 1   
    16    9   10 1   
    17    9   44 1   
    18    9   45 1   
    19   10   46 1   
    20   11   47 1   
    21   11   48 1   
    22   12   13 1   
    23   12   15 1   
    24   12   50 1   
    25   13   14 1   
    26   14   20 1   
    27   14   49 1   
    28   15   19 1   
    29   15   72 1   
    30   16   17 1   
    31   16   20 1   
    32   16   40 1   
    33   17   18 1   
    34   18   19 1   
    35   18   21 1   
    36   19   20 1   
    37   21   22 1   
    38   21   26 1   
    39   22   23 1   
    40   22   52 1   
    41   23   24 1   
    42   23   53 1   
    43   24   25 1   
    44   24   54 1   
    45   25   26 1   
    46   25   55 1   
    47   27   28 1   
    48   27   56 1   
    49   28   57 1   
    50   28   58 1   
    51   29   30 1   
    52   29   32 1   
    53   29   60 1   
    54   30   33 1   
    55   30   59 1   
    56   31   34 1   
    57   31   61 1   
    58   32   35 1   
    59   32   36 1   
    60   32   37 1   
    61   33   38 1   
    62   33   71 1   
    63   34   38 1   
    64   35   63 1   
    65   36   65 1   
    66   36   66 1   
    67   36   67 1   
    68   37   68 1   
    69   37   69 1   
    70   37   70 1   
    71   51   72 1   
    72   62   64 1   
@<TRIPOS>SUBSTRUCTURE
     1 18R         1 TEMP              0 ****  ****    0 ROOT
