@<TRIPOS>MOLECULE
18R
   74    75     1     0     0
SMALL
bcc


@<TRIPOS>ATOM
      1 C1          0.7910    1.3320   -0.9690 c2        1 18R      0.347000
      2 N1          2.2050    1.3400   -0.4430 n4        1 18R     -0.119000
      3 O1          0.1590    2.3840   -0.8740 o         1 18R     -0.290000
      4 N2         -8.4980   -1.6570   -5.8260 n2        1 18R     -0.273000
      5 C2         -8.8470   -0.5090   -5.1030 c2        1 18R      0.352000
      6 O2         -8.1050   -0.1290   -4.1620 o         1 18R     -0.458000
      7 C3         -8.7120   -5.2530   -3.9510 c2        1 18R     -0.187000
      8 C4         -9.9470   -4.8730   -4.6790 c3        1 18R     -0.131000
      9 C5        -10.0640   -3.3730   -4.8710 c3        1 18R     -0.194000
     10 C6         -8.9850   -2.8360   -5.7590 c2        1 18R      0.056000
     11 C7         -8.6900   -6.0790   -2.9080 c2        1 18R     -0.194000
     12 N3         -4.9160    3.4920   -2.0020 n2        1 18R     -0.205000
     13 C8         -6.1940    3.1060   -2.3430 c1        1 18R      0.101000
     14 N4         -6.4520    1.8780   -2.8990 nh        1 18R     -0.150000
     15 C9         -3.8860    2.6690   -2.2050 c2        1 18R      0.085000
     16 N5         -5.3380   -0.2870   -3.6400 na        1 18R     -0.129000
     17 N6         -4.0910   -0.7510   -3.6470 n2        1 18R      0.064000
     18 C10        -3.2630    0.1930   -3.1150 c2        1 18R     -0.072000
     19 C11        -4.0370    1.3660   -2.7460 c2        1 18R     -0.262000
     20 C12        -5.4090    1.0010   -3.1110 c2        1 18R      0.096000
     21 C13        -1.8290    0.0140   -2.9750 c2        1 18R     -0.020000
     22 C14        -1.1730    0.1530   -1.7900 c2        1 18R     -0.210000
     23 C15         0.3230    0.0880   -1.7120 c3        1 18R     -0.059000
     24 C16         1.0080    0.0260   -3.0430 c2        1 18R     -0.206000
     25 C17         0.3030   -0.1780   -4.1800 c2        1 18R     -0.124000
     26 C18        -1.0690   -0.5400   -4.0540 c1        1 18R      0.106000
     27 C19        -9.9770    0.3190   -5.5810 c2        1 18R     -0.239000
     28 C20       -10.4530    1.3410   -4.8670 c2        1 18R     -0.105000
     29 C21         4.0920    1.3350    2.4470 c2        1 18R      0.002000
     30 C22         2.8760    1.5770    1.9360 c2        1 18R     -0.311000
     31 C23        -0.3210   -0.7710    3.2080 c1        1 18R      0.065000
     32 C24         4.7760    2.1680    3.4860 c3        1 18R     -0.051000
     33 C25         2.2400    0.6620    0.9430 c3        1 18R      0.020000
     34 C26         0.2890   -0.2530    2.2870 c1        1 18R     -0.205000
     35 C27         3.9550    3.3750    3.9120 c3        1 18R     -0.211667
     36 C28         5.0400    1.2830    4.7020 c3        1 18R     -0.211667
     37 C29         6.1090    2.6430    2.9110 c3        1 18R     -0.211667
     38 C30         0.8480    0.3360    1.2290 c1        1 18R     -0.059000
     39 H1          2.5290    2.3120   -0.3410 hn        1 18R      0.255000
     40 H2         -6.1130   -0.8230   -4.0140 hn        1 18R      0.349000
     41 H3         -7.7820   -4.8170   -4.3540 ha        1 18R      0.110000
     42 H4         -9.9490   -5.3830   -5.6820 hc        1 18R      0.104500
     43 H5        -10.8570   -5.2320   -4.1260 hc        1 18R      0.104500
     44 H6        -10.0500   -2.8630   -3.8710 hc        1 18R      0.116000
     45 H7        -11.0550   -3.1430   -5.3540 hc        1 18R      0.116000
     46 H8         -8.5480   -3.5710   -6.4760 h4        1 18R      0.168000
     47 H9         -9.5980   -6.5340   -2.4890 ha        1 18R      0.120000
     48 H10        -7.7560   -6.3640   -2.4070 ha        1 18R      0.120000
     49 H11        -7.3960    1.6220   -3.1580 hn        1 18R      0.322000
     50 H12        -2.2180    3.8210   -2.5810 hn        1 18R      0.268000
     51 H13        -2.5350    3.6370   -0.9540 hn        1 18R      0.268000
     52 H14        -1.6940    0.2330   -0.8230 ha        1 18R      0.168000
     53 H15         0.6020   -0.8270   -1.1020 hc        1 18R      0.162000
     54 H16         2.1070    0.0740   -3.0470 ha        1 18R      0.147000
     55 H17         0.7720   -0.2110   -5.1800 ha        1 18R      0.207000
     56 H18       -10.4080    0.0440   -6.5590 ha        1 18R      0.162000
     57 H19       -11.3010    1.9490   -5.2150 ha        1 18R      0.134000
     58 H20       -10.0330    1.6270   -3.8920 ha        1 18R      0.134000
     59 H21         2.2620    2.4340    2.2590 ha        1 18R      0.169000
     60 H22         4.6860    0.4580    2.1230 ha        1 18R      0.135000
     61 H23        -0.8580   -1.2260    4.0140 ha        1 18R      0.271000
     62 H24         2.9840    3.0540    4.3600 hc        1 18R      0.091778
     63 H25         4.5190    3.9580    4.6810 hc        1 18R      0.091778
     64 H26         3.7540    4.0450    3.0430 hc        1 18R      0.091778
     65 H27         5.5860    1.8720    5.4790 hc        1 18R      0.091778
     66 H28         5.6660    0.4030    4.4200 hc        1 18R      0.091778
     67 H29         4.0790    0.9220    5.1400 hc        1 18R      0.091778
     68 H30         6.6600    3.2290    3.6870 hc        1 18R      0.091778
     69 H31         5.9430    3.2980    2.0240 hc        1 18R      0.091778
     70 H32         6.7410    1.7730    2.6110 hc        1 18R      0.091778
     71 H33         2.8490   -0.2910    0.8150 hx        1 18R      0.173000
     72 H121        2.8250    0.8500   -1.0900 hn        1 18R      0.255000
     73 H73        -1.8670    2.3630   -1.8210 hn        1 18R      0.268000
     74 N7         -2.5240    3.1540   -1.8620 n4        1 18R     -0.038000
@<TRIPOS>BOND
     1    1    2 1   
     2    1    3 1   
     3    1   23 1   
     4    2   33 1   
     5    2   39 1   
     6    2   72 1   
     7    4    5 1   
     8    4   10 1   
     9    5    6 1   
    10    5   27 1   
    11    7    8 1   
    12    7   11 1   
    13    7   41 1   
    14    8    9 1   
    15    8   42 1   
    16    8   43 1   
    17    9   10 1   
    18    9   44 1   
    19    9   45 1   
    20   10   46 1   
    21   11   47 1   
    22   11   48 1   
    23   12   13 1   
    24   12   15 1   
    25   13   14 1   
    26   14   20 1   
    27   14   49 1   
    28   15   19 1   
    29   15   74 1   
    30   16   17 1   
    31   16   20 1   
    32   16   40 1   
    33   17   18 1   
    34   18   19 1   
    35   18   21 1   
    36   19   20 1   
    37   21   22 1   
    38   21   26 1   
    39   22   23 1   
    40   22   52 1   
    41   23   24 1   
    42   23   53 1   
    43   24   25 1   
    44   24   54 1   
    45   25   26 1   
    46   25   55 1   
    47   27   28 1   
    48   27   56 1   
    49   28   57 1   
    50   28   58 1   
    51   29   30 1   
    52   29   32 1   
    53   29   60 1   
    54   30   33 1   
    55   30   59 1   
    56   31   34 1   
    57   31   61 1   
    58   32   35 1   
    59   32   36 1   
    60   32   37 1   
    61   33   38 1   
    62   33   71 1   
    63   34   38 1   
    64   35   62 1   
    65   35   63 1   
    66   35   64 1   
    67   36   65 1   
    68   36   66 1   
    69   36   67 1   
    70   37   68 1   
    71   37   69 1   
    72   37   70 1   
    73   50   74 1   
    74   51   74 1   
    75   73   74 1   
@<TRIPOS>SUBSTRUCTURE
     1 18R         1 TEMP              0 ****  ****    0 ROOT
