@<TRIPOS>MOLECULE
18R
   72    65     1     0     0
SMALL
bcc


@<TRIPOS>ATOM
      1 C1          2.5890   -0.0150    0.9550 c1        1 18R      0.353000
      2 N1          3.6230    0.9510    1.2060 n2        1 18R     -0.323000
      3 O1          2.3690   -0.9030    1.7710 o         1 18R     -0.339000
      4 N2         -5.4990   -3.5970   -3.0240 n         1 18R     -0.315000
      5 C2         -5.9060   -3.9780   -4.3510 c2        1 18R      0.325000
      6 O2         -5.4090   -3.4310   -5.3220 o         1 18R     -0.349000
      7 C3         -4.9900   -1.5190   -1.7880 c3        1 18R      0.033000
      8 C4         -5.5380   -2.1240   -0.5450 c3        1 18R     -0.174000
      9 C5         -6.5530   -3.1680   -0.8340 c3        1 18R     -0.183000
     10 C6         -6.0460   -4.2040   -1.8220 c3        1 18R     -0.036000
     11 C7         -4.4980   -2.5650   -2.7650 c3        1 18R     -0.048000
     12 N3         -3.8840    3.4760   -1.7210 n1        1 18R     -0.270000
     13 C8         -5.1070    2.8700   -1.7030 c1        1 18R      0.033000
     14 N4         -5.1980    1.5030   -1.5930 n1        1 18R     -0.208000
     15 C9         -2.7590    2.7310   -1.6310 c1        1 18R      0.233000
     16 N5         -3.8630   -0.6280   -1.4330 n3        1 18R     -0.130000
     17 N6         -2.5100   -0.8620   -1.4080 n2        1 18R     -0.029000
     18 C10        -1.8750    0.3380   -1.4610 c1        1 18R     -0.042000
     19 C11        -2.8500    1.3410   -1.5200 c1        1 18R     -0.278000
     20 C12        -4.0620    0.7440   -1.5020 c1        1 18R      0.086000
     21 N7         -1.9440    3.9620   -1.7350 n3        1 18R     -0.352000
     22 C13        -0.3380    0.2100   -1.5060 c1        1 18R     -0.025000
     23 C14         0.3840    0.0900   -0.3240 c1        1 18R     -0.053000
     24 C15         1.7830    0.0400   -0.3620 c1        1 18R     -0.130000
     25 C16         2.4470    0.1110   -1.5810 c1        1 18R     -0.121500
     26 C17         1.7230    0.2310   -2.7590 c1        1 18R     -0.121500
     27 C18         0.3260    0.2800   -2.7210 c1        1 18R     -0.101000
     28 C19        -6.8830   -5.1170   -4.5440 c2        1 18R     -0.192000
     29 C20        -6.5910   -6.1200   -5.4040 c1        1 18R     -0.173000
     30 C21         6.1170    1.7680    3.8250 c1        1 18R     -0.031000
     31 C22         5.3410    1.8600    2.6900 c2        1 18R     -0.184000
     32 C23         5.9540    0.6840    4.6990 c1        1 18R     -0.153000
     33 C24         7.1150    2.9050    4.1750 c2        1 18R     -0.018000
     34 C25         4.3970    0.8770    2.4110 c2        1 18R      0.075000
     35 C26         5.0160   -0.2920    4.4220 c1        1 18R     -0.106000
     36 C27         6.3390    4.1990    4.4350 c3        1 18R     -0.203000
     37 C28         7.9110    2.5190    5.4320 c3        1 18R     -0.203000
     38 C29         8.0950    3.1180    2.9960 c3        1 18R     -0.203000
     39 C30         4.2350   -0.1990    3.2780 c2        1 18R     -0.155000
     40 H1          3.8040    1.5900    0.5920 hn        1 18R      0.230000
     41 H2         -5.6890   -0.9890   -2.2160 h1        1 18R      0.138000
     42 H3         -5.9530   -1.4160    0.0000 hc        1 18R      0.100500
     43 H4         -4.8000   -2.5290   -0.0350 hc        1 18R      0.100500
     44 H5         -7.3470   -2.7410   -1.2060 hc        1 18R      0.093500
     45 H6         -6.8000   -3.6260    0.0170 hc        1 18R      0.093500
     46 H7         -5.3500   -4.7380   -1.3930 h1        1 18R      0.097000
     47 H8         -6.7950   -4.7980   -2.0770 h1        1 18R      0.097000
     48 H9         -3.6910   -2.9860   -2.4010 h1        1 18R      0.123500
     49 H10        -4.2730   -2.1260   -3.6100 h1        1 18R      0.123500
     50 H11        -5.9280    3.4150   -1.7690 ha        1 18R      0.192000
     51 H12        -1.0270    3.9010   -1.8070 hn        1 18R      0.232500
     52 H13        -2.3600    4.7920   -1.7920 hn        1 18R      0.232500
     53 H14        -0.0840    0.0200    0.5300 ha        1 18R      0.168000
     54 H15         3.4140    0.0770   -1.6090 ha        1 18R      0.141000
     55 H16         2.1940    0.2810   -3.6260 ha        1 18R      0.141000
     56 H17        -0.1840    0.3660   -3.5550 ha        1 18R      0.153000
     57 H18        -7.7240   -5.1280   -4.0480 ha        1 18R      0.152000
     58 H19        -5.7450   -6.1080   -5.9030 DU        1 18R      0.125000
     59 H20        -7.2210   -6.8550   -5.5290 ha        1 18R      0.122000
     60 H21         5.4530    2.6100    2.0840 ha        1 18R      0.127000
     61 H22         6.4990    0.6190    5.4990 ha        1 18R      0.136000
     62 H23         4.9010   -1.0580    5.0400 ha        1 18R      0.134000
     63 H24         6.9280    4.8530    4.8600 hc        1 18R      0.076111
     64 H25         5.5770    4.0110    5.0260 hc        1 18R      0.076111
     65 H26         6.0100    4.5590    3.5840 hc        1 18R      0.076111
     66 H27         7.3030    2.4180    6.1840 hc        1 18R      0.076111
     67 H28         8.5750    3.2310    5.6350 hc        1 18R      0.076111
     68 H29         8.3740    1.6780    5.2740 hc        1 18R      0.076111
     69 H30         8.4770    2.2510    2.7260 hc        1 18R      0.076111
     70 H31         7.6140    3.5160    2.2370 hc        1 18R      0.076111
     71 H32         8.8170    3.7200    3.2770 hc        1 18R      0.076111
     72 H33         3.5660   -0.8960    3.0810 ha        1 18R      0.172000
@<TRIPOS>BOND
     1    1    3 1   
     2    1   24 1   
     3    2   34 1   
     4    2   40 1   
     5    4    5 1   
     6    4   10 1   
     7    4   11 1   
     8    5    6 1   
     9    5   28 1   
    10    7    8 1   
    11    7   11 1   
    12    7   16 1   
    13    7   41 1   
    14    8    9 1   
    15    8   42 1   
    16    8   43 1   
    17    9   10 1   
    18    9   44 1   
    19    9   45 1   
    20   10   46 1   
    21   10   47 1   
    22   11   48 1   
    23   11   49 1   
    24   12   15 1   
    25   13   14 1   
    26   13   50 1   
    27   15   21 1   
    28   16   17 1   
    29   16   20 1   
    30   17   18 1   
    31   18   19 1   
    32   19   20 1   
    33   21   51 1   
    34   21   52 1   
    35   22   27 1   
    36   23   24 1   
    37   23   53 1   
    38   25   26 1   
    39   25   54 1   
    40   26   55 1   
    41   27   56 1   
    42   28   29 1   
    43   28   57 1   
    44   29   59 1   
    45   30   31 1   
    46   30   32 1   
    47   31   34 1   
    48   31   60 1   
    49   32   61 1   
    50   33   36 1   
    51   33   37 1   
    52   33   38 1   
    53   34   39 1   
    54   35   39 1   
    55   35   62 1   
    56   36   63 1   
    57   36   64 1   
    58   36   65 1   
    59   37   66 1   
    60   37   67 1   
    61   37   68 1   
    62   38   69 1   
    63   38   70 1   
    64   38   71 1   
    65   39   72 1   
@<TRIPOS>SUBSTRUCTURE
     1 18R         1 TEMP              0 ****  ****    0 ROOT
