@<TRIPOS>MOLECULE
18S
   45    43     1     0     0
SMALL
bcc


@<TRIPOS>ATOM
      1 C1          0.4400   -0.7080    2.0610 c3        1 18S      0.082000
      2 N1         -0.0320   -0.5190    0.6560 n         1 18S     -0.310000
      3 S1         -1.9980   -2.3300    1.1480 s         1 18S     -0.137000
      4 C2          1.7700   -1.1620    2.0180 c3        1 18S     -0.016000
      5 N2         -1.8660   -0.7560   -1.0050 n         1 18S     -0.266000
      6 O2          1.7760   -2.5920    1.3880 oh        1 18S     -0.327000
      7 C3          2.4050   -1.2300    3.2780 c3        1 18S     -0.002000
      8 N3         -3.0610   -0.0910   -0.9880 n2        1 18S     -0.002000
      9 O3          3.8800   -1.5510    3.0560 oh        1 18S     -0.335000
     10 C4          2.3090    0.0130    4.0490 c3        1 18S      0.004000
     11 O4          2.8910   -0.2100    5.3590 oh        1 18S     -0.335000
     12 C5          0.8300    0.5370    4.2480 c3        1 18S     -0.003000
     13 O5          0.2670    0.5350    2.7750 os        1 18S     -0.302000
     14 C6          0.8250    1.7610    4.7600 c3        1 18S     -0.005000
     15 O6          0.7920    1.6660    6.1920 oh        1 18S     -0.322000
     16 C7         -1.2690   -1.1580    0.2050 c2        1 18S      0.116000
     17 C8         -3.4830    0.5200   -2.0670 c1        1 18S     -0.113000
     18 C9         -2.6380    0.4910   -3.3430 c1        1 18S     -0.102000
     19 C10        -3.0010   -0.3280   -4.3890 c2        1 18S     -0.101000
     20 C11        -2.2960   -0.2820   -5.5860 c1        1 18S     -0.132000
     21 C12        -1.2130    0.5990   -5.7320 c1        1 18S     -0.053000
     22 C13        -0.8460    1.4220   -4.6830 c1        1 18S     -0.133000
     23 C14        -1.5510    1.3760   -3.4860 c1        1 18S     -0.118000
     24 C15        -0.4450    0.6600   -7.0750 c3        1 18S     -0.184000
     25 H1         -0.1100   -1.3900    2.4890 h2        1 18S      0.161000
     26 HN1         0.4520    0.0280    0.0720 hn        1 18S      0.205000
     27 H2          2.2980   -0.5450    1.4260 h1        1 18S      0.099000
     28 HN2        -1.5090   -0.9880   -1.7630 hn        1 18S      0.206000
     29 HO2         2.0750   -2.5490    0.5630 ho        1 18S      0.227000
     30 H3          1.9790   -1.9940    3.8250 h1        1 18S      0.110000
     31 HO3         4.1160   -2.1720    3.5830 ho        1 18S      0.229000
     32 H4          2.8320    0.7110    3.5850 h1        1 18S      0.102000
     33 HO4         3.6780    0.1810    5.4020 ho        1 18S      0.231000
     34 H5          0.3020   -0.0990    4.8390 h1        1 18S      0.116000
     35 H6          0.0390    2.2450    4.4470 h1        1 18S      0.096000
     36 H6A         1.6380    2.2390    4.4790 h1        1 18S      0.096000
     37 HO6         0.5610    2.4850    6.5550 ho        1 18S      0.220000
     38 H8         -4.3340    0.9940   -2.0580 ha        1 18S      0.178000
     39 H10        -3.7290   -0.9210   -4.2930 ha        1 18S      0.139000
     40 H11        -2.5650   -0.8830   -6.3510 ha        1 18S      0.138000
     41 H13        -0.0620    2.0600   -4.7870 ha        1 18S      0.138000
     42 H14        -1.3030    1.9390   -2.7700 ha        1 18S      0.143000
     43 H15        -0.0730    1.5550   -7.1990 hc        1 18S      0.088333
     44 H15A        0.3010   -0.0150   -7.0660 hc        1 18S      0.088333
     45 H15B       -1.0690    0.4560   -7.8190 hc        1 18S      0.088333
@<TRIPOS>BOND
     1    1    2 1   
     2    1    4 1   
     3    1   13 1   
     4    1   25 1   
     5    2   16 1   
     6    2   26 1   
     7    3   16 1   
     8    4    6 1   
     9    4    7 1   
    10    4   27 1   
    11    5    8 1   
    12    5   16 1   
    13    5   28 1   
    14    6   29 1   
    15    7    9 1   
    16    7   10 1   
    17    7   30 1   
    18    8   17 1   
    19    9   31 1   
    20   10   11 1   
    21   10   12 1   
    22   10   32 1   
    23   11   33 1   
    24   12   13 1   
    25   12   14 1   
    26   12   34 1   
    27   14   15 1   
    28   14   35 1   
    29   14   36 1   
    30   15   37 1   
    31   17   38 1   
    32   18   19 1   
    33   18   23 1   
    34   19   20 1   
    35   19   39 1   
    36   20   40 1   
    37   21   22 1   
    38   21   24 1   
    39   22   41 1   
    40   23   42 1   
    41   24   43 1   
    42   24   44 1   
    43   24   45 1   
@<TRIPOS>SUBSTRUCTURE
     1 18S         1 TEMP              0 ****  ****    0 ROOT
