@<TRIPOS>MOLECULE
18S
   47    49     1     0     0
SMALL
bcc


@<TRIPOS>ATOM
      1 C1          0.0000    0.0000    0.0000 c3        1 18S     -0.135000
      2 N1         -0.4890    0.0570   -1.3800 ny        1 18S      0.841000
      3 S1         -2.4750   -1.4990   -0.5470 s         1 18S      0.444000
      4 C2          1.5300    0.0000    0.0000 c3        1 18S      0.022000
      5 N2         -2.0650   -0.5460   -2.9930 ny        1 18S      0.878000
      6 O2          2.0080   -1.1680   -0.6720 oh        1 18S     -0.320000
      7 C3          2.0340    0.0000    1.4460 c3        1 18S      0.048000
      8 N3         -1.3620    0.1900   -3.9550 n2        1 18S     -0.519000
      9 O3          3.4610    0.0730    1.4560 oh        1 18S     -0.294000
     10 C4          1.4520    1.2150    2.1780 c3        1 18S      0.031000
     11 O4          1.8560    1.1860    3.5480 oh        1 18S     -0.282000
     12 C5         -0.0760    1.1670    2.0940 c3        1 18S      0.068000
     13 O5         -0.4760    1.1380    0.7220 os        1 18S     -0.250000
     14 C6         -0.6620    2.4080    2.7700 c3        1 18S      0.080000
     15 O6         -2.0880    2.3080    2.7940 oh        1 18S     -0.331000
     16 C7         -1.6150   -0.5980   -1.7230 c2        1 18S     -0.643000
     17 C8         -1.7950    0.2410   -5.1770 c2        1 18S     -0.171000
     18 C9         -1.0540    1.0160   -6.1900 c3        1 18S     -0.174000
     19 C10        -1.5180    1.0730   -7.5070 c2        1 18S      0.051500
     20 C11        -0.8190    1.7990   -8.4500 c2        1 18S     -0.140000
     21 C12         0.3370    2.4710   -8.0930 c2        1 18S      0.136000
     22 C13         0.8020    2.4190   -6.7910 c2        1 18S     -0.140000
     23 C14         0.1100    1.7020   -5.8370 c2        1 18S      0.051500
     24 C15         1.0930    3.2630   -9.1290 c3        1 18S     -0.100000
     25 H1         -0.3590   -0.9040    0.4780 hx        1 18S      0.147000
     26 HN1        -0.6370    1.0230   -1.5970 hn        1 18S      0.059500
     27 H2          1.8910    0.8870   -0.5070 h1        1 18S      0.076000
     28 HN2        -2.1110   -1.4900   -3.3250 hn        1 18S      0.046500
     29 HO2         2.7610   -0.9450   -1.1930 ho        1 18S      0.238000
     30 H3          1.7090   -0.9080    1.9410 h1        1 18S      0.080000
     31 HO3         3.8120   -0.6830    1.8980 ho        1 18S      0.228000
     32 H4          1.8110    2.1230    1.7090 h1        1 18S      0.069000
     33 HO4         2.5570    1.8030    3.6820 ho        1 18S      0.223000
     34 H5         -0.4360    0.2750    2.5920 h1        1 18S      0.089000
     35 H6         -0.3710    3.2920    2.2160 h1        1 18S      0.059500
     36 H6A        -0.2870    2.4770    3.7840 h1        1 18S      0.059500
     37 HO6        -2.4490    3.0670    3.2210 ho        1 18S      0.221000
     38 H8         -1.8360    1.3190   -5.2730 DU        1 18S      0.328000
     39 H10        -2.4600    0.6080   -7.7710 ha        1 18S      0.128500
     40 H11        -1.1760    1.8430   -9.4720 ha        1 18S      0.151500
     41 H13         1.7070    2.9480   -6.5180 ha        1 18S      0.151500
     42 H14         0.4360    1.7190   -4.8040 ha        1 18S      0.128500
     43 H15         1.4090    2.6030   -9.9280 hc        1 18S      0.086667
     44 H15A        0.4510    4.0360   -9.5320 hc        1 18S      0.086667
     45 H15B        1.9640    3.7180   -8.6710 hc        1 18S      0.086667
     46 H12         0.2430   -0.2970   -1.9630 hn        1 18S      0.059500
     47 H22        -2.9920   -0.1710   -2.9600 hn        1 18S      0.046500
@<TRIPOS>BOND
     1    1    2 1   
     2    1    4 1   
     3    1   13 1   
     4    1   25 1   
     5    2   16 1   
     6    2   26 1   
     7    2   46 1   
     8    3   16 1   
     9    4    6 1   
    10    4    7 1   
    11    4   27 1   
    12    5    8 1   
    13    5   16 1   
    14    5   28 1   
    15    5   47 1   
    16    6   29 1   
    17    7    9 1   
    18    7   10 1   
    19    7   30 1   
    20    8   17 1   
    21    9   31 1   
    22   10   11 1   
    23   10   12 1   
    24   10   32 1   
    25   11   33 1   
    26   12   13 1   
    27   12   14 1   
    28   12   34 1   
    29   14   15 1   
    30   14   35 1   
    31   14   36 1   
    32   15   37 1   
    33   17   18 1   
    34   17   38 1   
    35   18   19 1   
    36   18   23 1   
    37   18   38 1   
    38   19   20 1   
    39   19   39 1   
    40   20   21 1   
    41   20   40 1   
    42   21   22 1   
    43   21   24 1   
    44   22   23 1   
    45   22   41 1   
    46   23   42 1   
    47   24   43 1   
    48   24   44 1   
    49   24   45 1   
@<TRIPOS>SUBSTRUCTURE
     1 18S         1 TEMP              0 ****  ****    0 ROOT
