@<TRIPOS>MOLECULE
18S
   47    47     1     0     0
SMALL
bcc


@<TRIPOS>ATOM
      1 C1        -34.5450 -292.7370  622.0260 c3        1 18S      0.050000
      2 N1        -34.1970 -291.3860  621.4700 n4        1 18S     -0.077000
      3 S1        -33.6120 -289.1810  622.7180 s         1 18S      0.084000
      4 C2        -35.8120 -293.3280  621.3520 c3        1 18S      0.001000
      5 N2        -31.9840 -291.2560  622.4980 n         1 18S     -0.326000
      6 O2        -36.8600 -292.4260  621.6270 oh        1 18S     -0.344000
      7 C3        -36.0500 -294.7190  621.9640 c3        1 18S      0.003000
      8 N3         57.8390  521.1170-1100.7170 n1        1 18S      0.104000
      9 O3        -37.1570 -295.2530  621.2680 oh        1 18S     -0.320000
     10 C4        -34.7970 -295.5980  621.7670 c3        1 18S     -0.030000
     11 O4        -35.0480 -296.7780  622.5060 oh        1 18S     -0.310000
     12 C5        -33.5590 -294.8830  622.3290 c3        1 18S     -0.028000
     13 O5        -33.4350 -293.5780  621.7330 os        1 18S     -0.294000
     14 C6        -32.2420 -295.5810  621.9660 c3        1 18S     -0.018000
     15 O6        -31.1670 -294.9130  622.5870 oh        1 18S     -0.319000
     16 C7        -33.1570 -290.6120  622.2850 c2        1 18S     -0.023000
     17 C8         58.4970  520.8070-1101.6220 c1        1 18S     -0.186000
     18 C9         59.3140  520.4120-1102.7520 c3        1 18S     -0.038000
     19 C10        60.7570  520.3620-1102.3990 c2        1 18S      0.049000
     20 C11        61.7130  520.8820-1103.2210 c2        1 18S     -0.223000
     21 C12        61.3650  521.5690-1104.4170 c2        1 18S      0.241000
     22 C13        59.9920  521.7190-1104.7580 c2        1 18S     -0.223000
     23 C14        59.0050  521.2150-1103.9640 c2        1 18S      0.049000
     24 C15        62.4070  522.1460-1105.2690 c3        1 18S     -0.263000
     25 H1        -34.6970 -292.6290  623.1420 hx        1 18S      0.158000
     26 HN1       -33.8670 -291.5030  620.5040 hn        1 18S      0.275000
     27 H2        -35.6700 -293.4250  620.2390 h1        1 18S      0.125000
     28 HN2       -31.8060 -292.2030  622.2270 hn        1 18S      0.284000
     29 HO2       -37.6970 -292.8890  621.4560 ho        1 18S      0.268000
     30 H3        -36.2870 -294.6340  623.0620 h1        1 18S      0.119000
     31 HO3       -37.3310 -296.1290  621.6440 ho        1 18S      0.247000
     32 H4        -34.6570 -295.8200  620.6730 h1        1 18S      0.119000
     33 HO4       -34.5250 -297.4880  622.1120 ho        1 18S      0.227000
     34 H5        -33.6500 -294.7720  623.4460 h1        1 18S      0.117000
     35 H6        -32.0470 -295.4960  620.8620 h1        1 18S      0.117000
     36 H6A       -32.3110 -296.6580  622.2680 h1        1 18S      0.117000
     37 HO6       -31.0440 -295.2990  623.4640 ho        1 18S      0.217000
     38 H8         59.0240  519.3250-1103.0190 hc        1 18S      0.231000
     39 H10        61.0210  519.8580-1101.4490 ha        1 18S      0.199000
     40 H11        62.7850  520.7930-1102.9570 ha        1 18S      0.198000
     41 H13        59.7360  522.2760-1105.6810 ha        1 18S      0.198000
     42 H14        57.9340  521.3600-1104.2070 ha        1 18S      0.199000
     43 H15        63.3670  521.5700-1105.2020 hc        1 18S      0.155333
     44 H15A       62.0860  522.2030-1106.3420 hc        1 18S      0.155333
     45 H15B       62.6210  523.1990-1104.9230 hc        1 18S      0.155333
     46 H12       -35.0650 -290.8110  621.4700 hn        1 18S      0.275000
     47 H22       -31.2720 -290.7670  623.0000 hn        1 18S      0.284000
@<TRIPOS>BOND
     1    1    2 1   
     2    1    4 1   
     3    1   13 1   
     4    1   25 1   
     5    2   16 1   
     6    2   26 1   
     7    2   46 1   
     8    3   16 1   
     9    4    6 1   
    10    4    7 1   
    11    4   27 1   
    12    5   16 1   
    13    5   28 1   
    14    5   47 1   
    15    6   29 1   
    16    7    9 1   
    17    7   10 1   
    18    7   30 1   
    19    8   17 1   
    20    9   31 1   
    21   10   11 1   
    22   10   12 1   
    23   10   32 1   
    24   11   33 1   
    25   12   13 1   
    26   12   14 1   
    27   12   34 1   
    28   14   15 1   
    29   14   35 1   
    30   14   36 1   
    31   15   37 1   
    32   17   18 1   
    33   18   19 1   
    34   18   23 1   
    35   18   38 1   
    36   19   20 1   
    37   19   39 1   
    38   20   21 1   
    39   20   40 1   
    40   21   22 1   
    41   21   24 1   
    42   22   23 1   
    43   22   41 1   
    44   23   42 1   
    45   24   43 1   
    46   24   44 1   
    47   24   45 1   
@<TRIPOS>SUBSTRUCTURE
     1 18S         1 TEMP              0 ****  ****    0 ROOT
