@<TRIPOS>MOLECULE
18S
   47    48     1     0     0
SMALL
bcc


@<TRIPOS>ATOM
      1 C1          0.2520   -0.2340    0.0670 c3        1 18S      0.340300
      2 N1          0.0040   -0.4150   -1.4290 n4        1 18S     -0.601800
      3 S1         -2.5650   -0.9580   -0.8460 s         1 18S      0.290600
      4 C2          1.7630   -0.4090    0.3790 c3        1 18S      0.111100
      5 N2         -1.5100   -1.2140   -3.2510 n4        1 18S     -0.302900
      6 O2          2.0970   -1.7190   -0.0200 oh        1 18S     -0.635800
      7 C3          1.9260   -0.1720    1.8910 c3        1 18S      0.119100
      8 N3         -0.8900   -0.3090   -4.1200 n2        1 18S     -0.671400
      9 O3          3.3140   -0.2660    2.1280 oh        1 18S     -0.590800
     10 C4          1.3900    1.2280    2.2590 c3        1 18S      0.079100
     11 O4          1.4110    1.2650    3.6720 oh        1 18S     -0.575800
     12 C5         -0.0560    1.3990    1.7630 c3        1 18S      0.116100
     13 O5         -0.1390    1.0950    0.3480 os        1 18S     -0.427600
     14 C6         -0.5430    2.8460    1.8740 c3        1 18S      0.136400
     15 O6         -1.9170    2.8350    1.5360 oh        1 18S     -0.608800
     16 C7         -1.3740   -0.8520   -1.7620 c         1 18S      0.004400
     17 C8         -1.5870    0.2840   -5.0800 ce        1 18S      0.609800
     18 C9         -1.0000    1.1640   -6.0470 ca        1 18S     -0.261900
     19 C10        -1.8620    1.7730   -6.9940 ca        1 18S     -0.029500
     20 C11        -1.3510    2.6190   -7.9620 ca        1 18S     -0.154500
     21 C12         0.0300    2.8840   -8.0280 ca        1 18S      0.064700
     22 C13         0.8870    2.2790   -7.0910 ca        1 18S     -0.154500
     23 C14         0.3850    1.4320   -6.1150 ca        1 18S     -0.029500
     24 C15         0.5690    3.7710   -9.0780 c3        1 18S     -0.095800
     25 H1         -0.3750   -0.9890    0.6300 hx        1 18S      0.120700
     26 HN1         0.1920    0.4960   -1.8890 hn        1 18S      0.497300
     27 H2          2.3890    0.3360   -0.1900 h1        1 18S      0.095700
     28 HN2        -1.0250   -2.1210   -3.4010 hn        1 18S      0.464300
     29 HO2         2.9110   -1.9740    0.4480 ho        1 18S      0.486000
     30 H3          1.3780   -0.9600    2.4810 h1        1 18S      0.083700
     31 HO3         3.4520   -0.1270    3.0790 ho        1 18S      0.460000
     32 H4          2.0540    2.0190    1.8140 h1        1 18S      0.083700
     33 HO4         1.5100    2.1880    3.9460 ho        1 18S      0.437000
     34 H5         -0.7510    0.7120    2.3220 h1        1 18S      0.095700
     35 H6         -0.3770    3.1900    2.9300 h1        1 18S      0.063700
     36 H6A         0.0140    3.5080    1.1580 h1        1 18S      0.063700
     37 HO6        -2.3150    3.6240    1.9290 ho        1 18S      0.437000
     38 H8         -2.6900    0.1220   -5.2090 h4        1 18S      0.026800
     39 H10        -2.9460    1.5740   -6.9620 ha        1 18S      0.146500
     40 H11        -2.0280    3.0910   -8.6950 ha        1 18S      0.174000
     41 H13         1.9700    2.4800   -7.1410 ha        1 18S      0.174000
     42 H14         1.0800    0.9620   -5.4020 ha        1 18S      0.146500
     43 H15         0.7150    3.1860  -10.0240 hc        1 18S      0.083367
     44 H15A        1.5570    4.2040   -8.7810 hc        1 18S      0.083367
     45 H15B       -0.1390    4.6100   -9.2980 hc        1 18S      0.083367
     46 H12         0.7030   -1.1030   -1.7640 hn        1 18S      0.497300
     47 H22        -2.5290   -1.3630   -3.4070 hn        1 18S      0.464300
@<TRIPOS>BOND
     1    1    2 1   
     2    1    4 1   
     3    1   13 1   
     4    1   25 1   
     5    2   16 1   
     6    2   26 1   
     7    2   46 1   
     8    3   16 2   
     9    4    6 1   
    10    4    7 1   
    11    4   27 1   
    12    5    8 1   
    13    5   16 1   
    14    5   28 1   
    15    5   47 1   
    16    6   29 1   
    17    7    9 1   
    18    7   10 1   
    19    7   30 1   
    20    8   17 2   
    21    9   31 1   
    22   10   11 1   
    23   10   12 1   
    24   10   32 1   
    25   11   33 1   
    26   12   13 1   
    27   12   14 1   
    28   12   34 1   
    29   14   15 1   
    30   14   35 1   
    31   14   36 1   
    32   15   37 1   
    33   17   18 1   
    34   17   38 1   
    35   18   19 ar  
    36   18   23 ar  
    37   19   20 ar  
    38   19   39 1   
    39   20   21 ar  
    40   20   40 1   
    41   21   22 ar  
    42   21   24 1   
    43   22   23 ar  
    44   22   41 1   
    45   23   42 1   
    46   24   43 1   
    47   24   44 1   
    48   24   45 1   
@<TRIPOS>SUBSTRUCTURE
     1 18S         1 TEMP              0 ****  ****    0 ROOT
