@<TRIPOS>MOLECULE
18S
   45    46     1     0     0
SMALL
bcc


@<TRIPOS>ATOM
      1 C1         -2.0760   -0.1470    0.6870 c3        1 18S      0.238500
      2 N1         -0.6600   -0.3750    0.8980 n         1 18S     -0.482900
      3 S1         -1.1230   -2.9070    1.5700 s         1 18S     -0.534400
      4 C2         -2.5820    1.0990    1.4670 c3        1 18S      0.090100
      5 N2          1.1590   -1.9760    0.8330 n         1 18S     -0.292900
      6 O2         -2.5690    0.8820    2.8650 oh        1 18S     -0.597800
      7 C3         -4.0570    1.3450    1.1050 c3        1 18S      0.108100
      8 N3          2.0660   -1.0830    0.4340 n2        1 18S     -0.484300
      9 O3         -4.5110    2.5650    1.6650 oh        1 18S     -0.605800
     10 C4         -4.2120    1.4800   -0.4180 c3        1 18S      0.122100
     11 O4         -5.5810    1.5340   -0.7750 oh        1 18S     -0.592800
     12 C5         -3.6110    0.2440   -1.1040 c3        1 18S      0.108100
     13 O5         -2.2410    0.0990   -0.7260 os        1 18S     -0.455600
     14 C6         -3.6040    0.4140   -2.6270 c3        1 18S      0.140400
     15 O6         -3.2210   -0.7780   -3.2740 oh        1 18S     -0.591800
     16 C7         -0.2010   -1.6800    1.0530 c         1 18S      0.582400
     17 C8          3.3260   -1.4150    0.3210 ce        1 18S      0.404800
     18 C9          4.3450   -0.4670   -0.1330 ca        1 18S     -0.141900
     19 C10         5.6900   -0.8640   -0.0640 ca        1 18S     -0.097000
     20 C11         6.6990   -0.0040   -0.4840 ca        1 18S     -0.136500
     21 C12         6.3880    1.2660   -0.9860 ca        1 18S     -0.057300
     22 C13         5.0480    1.6600   -1.0550 ca        1 18S     -0.136500
     23 C14         4.0330    0.8040   -0.6340 ca        1 18S     -0.097000
     24 C15         7.4640    2.1720   -1.4480 c3        1 18S     -0.058800
     25 H1         -2.6690   -1.0650    0.9960 h2        1 18S      0.124700
     26 HN1        -0.0730    0.2900    0.4330 hn        1 18S      0.324500
     27 H2         -1.9680    2.0050    1.2100 h1        1 18S      0.061700
     28 HN2         1.4170   -2.9170    1.1010 hn        1 18S      0.339500
     29 HO2        -1.6620    0.6770    3.1230 ho        1 18S      0.424000
     30 H3         -4.6880    0.4950    1.4880 h1        1 18S      0.070700
     31 HO3        -4.3750    2.4980    2.6200 ho        1 18S      0.429000
     32 H4         -3.6900    2.4150   -0.7670 h1        1 18S      0.060700
     33 HO4        -5.9710    2.2480   -0.2520 ho        1 18S      0.426000
     34 H5         -4.1860   -0.6790   -0.8180 h1        1 18S      0.078700
     35 H6         -4.6520    0.6220   -2.9730 h1        1 18S      0.064700
     36 H6A        -2.9210    1.2550   -2.9150 h1        1 18S      0.064700
     37 HO6        -2.3400   -1.0070   -2.9500 ho        1 18S      0.410000
     38 H8          3.7230   -2.4290    0.5580 h4        1 18S     -0.004200
     39 H10         5.9500   -1.8590    0.3280 ha        1 18S      0.139000
     40 H11         7.7500   -0.3240   -0.4230 ha        1 18S      0.136500
     41 H13         4.7920    2.6560   -1.4470 ha        1 18S      0.136500
     42 H14         2.9850    1.1350   -0.7010 ha        1 18S      0.139000
     43 H15         7.6990    1.9650   -2.5230 hc        1 18S      0.048367
     44 H15A        7.1560    3.2420   -1.3570 hc        1 18S      0.048367
     45 H15B        8.3980    2.0200   -0.8520 hc        1 18S      0.048367
@<TRIPOS>BOND
     1    1    2 1   
     2    1    4 1   
     3    1   13 1   
     4    1   25 1   
     5    2   16 1   
     6    2   26 1   
     7    3   16 2   
     8    4    6 1   
     9    4    7 1   
    10    4   27 1   
    11    5    8 1   
    12    5   16 1   
    13    5   28 1   
    14    6   29 1   
    15    7    9 1   
    16    7   10 1   
    17    7   30 1   
    18    8   17 2   
    19    9   31 1   
    20   10   11 1   
    21   10   12 1   
    22   10   32 1   
    23   11   33 1   
    24   12   13 1   
    25   12   14 1   
    26   12   34 1   
    27   14   15 1   
    28   14   35 1   
    29   14   36 1   
    30   15   37 1   
    31   17   18 1   
    32   17   38 1   
    33   18   19 ar  
    34   18   23 ar  
    35   19   20 ar  
    36   19   39 1   
    37   20   21 ar  
    38   20   40 1   
    39   21   22 ar  
    40   21   24 1   
    41   22   23 ar  
    42   22   41 1   
    43   23   42 1   
    44   24   43 1   
    45   24   44 1   
    46   24   45 1   
@<TRIPOS>SUBSTRUCTURE
     1 18S         1 TEMP              0 ****  ****    0 ROOT
