@<TRIPOS>MOLECULE
18U
   32    33     1     0     0
SMALL
bcc


@<TRIPOS>ATOM
      1 C4          0.0460    0.0210   -0.0720 ca        1 18U     -0.129000
      2 C6          1.4350   -0.0670   -0.0520 ca        1 18U     -0.111000
      3 C8          2.1280   -0.0850    1.1630 ca        1 18U     -0.091600
      4 C9          3.6520   -0.1990    1.1770 c         1 18U      0.906200
      5 O10         4.2210   -0.2540    2.3000 o         1 18U     -0.815300
      6 O11         4.2400   -0.2330    0.0610 o         1 18U     -0.815300
      7 C7          1.4120   -0.0060    2.3630 ca        1 18U     -0.111000
      8 C5          0.0230    0.0790    2.3510 ca        1 18U     -0.129000
      9 C3         -0.6660    0.0870    1.1320 ca        1 18U     -0.200300
     10 C2         -2.1530    0.1270    1.1110 c3        1 18U      0.184100
     11 N1         -2.7030    1.4780    1.4010 n4        1 18U     -0.723900
     12 S13        -4.4360    1.7170    0.8560 sy        1 18U      1.505200
     13 O16        -4.5630    3.0880    0.7030 o         1 18U     -0.615300
     14 O17        -4.5050    0.9820   -0.3380 o         1 18U     -0.615300
     15 C15        -5.2510    1.0060    2.0280 cc        1 18U     -0.567500
     16 C19        -6.0380   -0.1790    1.7680 cc        1 18U     -0.046000
     17 C22        -6.7230   -0.5930    2.8790 cd        1 18U     -0.243100
     18 S20        -6.4230    0.4060    4.1830 ss        1 18U      0.234200
     19 C18        -5.4020    1.3910    3.3700 cd        1 18U     -0.037700
     20 C21        -4.6920    2.5660    4.0490 c         1 18U      0.935200
     21 O24        -5.2870    3.1280    4.9910 o         1 18U     -0.775800
     22 O23        -3.5450    2.8530    3.6000 o         1 18U     -0.775800
     23 H1         -0.4930    0.0280   -1.0310 ha        1 18U      0.114500
     24 H2          2.0200   -0.1250   -0.9860 ha        1 18U      0.164500
     25 H4          1.9780   -0.0180    3.3090 ha        1 18U      0.164500
     26 H5         -0.5360    0.1370    3.2960 ha        1 18U      0.114500
     27 H6         -2.5340   -0.1850    0.0930 hx        1 18U      0.087200
     28 H7         -2.5710   -0.5770    1.8880 hx        1 18U      0.087200
     29 H8         -2.1000    2.1760    0.9610 hn        1 18U      0.478800
     30 H9         -6.0620   -0.6560    0.7820 ha        1 18U      0.173000
     31 H10        -7.3830   -1.4580    2.9250 h4        1 18U      0.177000
     32 H12        -2.6280    1.6640    2.4230 hn        1 18U      0.478800
@<TRIPOS>BOND
     1    1    2 ar  
     2    1    9 ar  
     3    1   23 1   
     4    2    3 ar  
     5    2   24 1   
     6    3    4 1   
     7    3    7 ar  
     8    4    5 1   
     9    4    6 1   
    10    7    8 ar  
    11    7   25 1   
    12    8    9 ar  
    13    8   26 1   
    14    9   10 1   
    15   10   11 1   
    16   10   27 1   
    17   10   28 1   
    18   11   12 1   
    19   11   29 1   
    20   11   32 1   
    21   12   13 2   
    22   12   14 2   
    23   12   15 1   
    24   15   16 1   
    25   15   19 2   
    26   16   17 2   
    27   16   30 1   
    28   17   18 1   
    29   17   31 1   
    30   18   19 1   
    31   19   20 1   
    32   20   21 1   
    33   20   22 1   
@<TRIPOS>SUBSTRUCTURE
     1 18U         1 TEMP              0 ****  ****    0 ROOT
