@<TRIPOS>MOLECULE
18U
   32    33     1     0     0
SMALL
bcc


@<TRIPOS>ATOM
      1 C4          0.0460    0.0130   -0.0700 ca        1 18U     -0.129000
      2 C6          1.4350   -0.0750   -0.0500 ca        1 18U     -0.111000
      3 C8          2.1280   -0.0860    1.1650 ca        1 18U     -0.091600
      4 C9          3.6520   -0.1990    1.1780 c         1 18U      0.906200
      5 O10         4.2210   -0.2480    2.3020 o         1 18U     -0.815300
      6 O11         4.2400   -0.2410    0.0630 o         1 18U     -0.815300
      7 C7          1.4120   -0.0000    2.3640 ca        1 18U     -0.111000
      8 C5          0.0230    0.0850    2.3530 ca        1 18U     -0.129000
      9 C3         -0.6660    0.0850    1.1340 ca        1 18U     -0.200300
     10 C2         -2.1530    0.1250    1.1130 c3        1 18U      0.184100
     11 N1         -2.7040    1.4780    1.3970 n4        1 18U     -0.723900
     12 S13        -4.4360    1.7140    0.8520 sy        1 18U      1.505200
     13 O16        -4.5630    3.0850    0.6950 o         1 18U     -0.615300
     14 O17        -4.5050    0.9750   -0.3390 o         1 18U     -0.615300
     15 C15        -5.2510    1.0060    2.0270 cc        1 18U     -0.567500
     16 C19        -6.0380   -0.1790    1.7710 cc        1 18U     -0.046000
     17 C22        -6.7230   -0.5900    2.8830 cd        1 18U     -0.243100
     18 S20        -6.4220    0.4130    4.1840 ss        1 18U      0.234200
     19 C18        -5.4020    1.3960    3.3680 cd        1 18U     -0.037700
     20 C21        -4.6920    2.5730    4.0420 c         1 18U      0.935200
     21 O24        -5.2870    3.1380    4.9830 o         1 18U     -0.775800
     22 O23        -3.5460    2.8590    3.5930 o         1 18U     -0.775800
     23 H1         -0.4930    0.0130   -1.0280 ha        1 18U      0.114500
     24 H2          2.0190   -0.1390   -0.9840 ha        1 18U      0.164500
     25 H4          1.9790   -0.0060    3.3110 ha        1 18U      0.164500
     26 H5         -0.5350    0.1480    3.2980 ha        1 18U      0.114500
     27 H6         -2.5710   -0.5760    1.8930 hx        1 18U      0.087200
     28 H7         -2.5340   -0.1920    0.0970 hx        1 18U      0.087200
     29 H8         -2.1000    2.1740    0.9550 hn        1 18U      0.478800
     30 H9         -6.0610   -0.6600    0.7860 ha        1 18U      0.173000
     31 H10        -7.3820   -1.4550    2.9320 h4        1 18U      0.177000
     32 H12        -2.6290    1.6670    2.4190 hn        1 18U      0.478800
@<TRIPOS>BOND
     1    1    2 ar  
     2    1    9 ar  
     3    1   23 1   
     4    2    3 ar  
     5    2   24 1   
     6    3    4 1   
     7    3    7 ar  
     8    4    5 1   
     9    4    6 1   
    10    7    8 ar  
    11    7   25 1   
    12    8    9 ar  
    13    8   26 1   
    14    9   10 1   
    15   10   11 1   
    16   10   27 1   
    17   10   28 1   
    18   11   12 1   
    19   11   29 1   
    20   11   32 1   
    21   12   13 2   
    22   12   14 2   
    23   12   15 1   
    24   15   16 1   
    25   15   19 2   
    26   16   17 2   
    27   16   30 1   
    28   17   18 1   
    29   17   31 1   
    30   18   19 1   
    31   19   20 1   
    32   20   21 1   
    33   20   22 1   
@<TRIPOS>SUBSTRUCTURE
     1 18U         1 TEMP              0 ****  ****    0 ROOT
