@<TRIPOS>MOLECULE
18V
   54    56     1     0     0
SMALL
bcc


@<TRIPOS>ATOM
      1 FAE         0.1560   -0.2750   -0.3600 f         1 18V     -0.240300
      2 CAK         1.4320   -0.7730   -0.1970 c3        1 18V      0.157900
      3 CAL         2.0020   -0.4490    1.1910 c3        1 18V      0.087400
      4 OAS         1.7190   -1.5990    1.9970 os        1 18V     -0.308900
      5 CBA         2.0040   -1.4700    3.3420 ca        1 18V      0.098100
      6 CAI         2.7270   -0.4190    3.9030 ca        1 18V     -0.135000
      7 CAZ         1.5260   -2.5260    4.1650 ca        1 18V      0.117100
      8 OAR         0.8310   -3.5190    3.5100 os        1 18V     -0.299900
      9 CAB         0.3260   -4.5700    4.3270 c3        1 18V      0.109700
     10 CAG         1.7840   -2.4990    5.5370 ca        1 18V     -0.182000
     11 CAF         2.5030   -1.4420    6.0910 ca        1 18V     -0.117000
     12 CAX         2.9780   -0.4030    5.2850 ca        1 18V     -0.132500
     13 CBD         3.7370    0.6850    5.8830 cc        1 18V      0.457900
     14 NAQ         3.9450    1.8810    5.3240 nd        1 18V     -0.617000
     15 SAU         4.4680    0.4960    7.4360 ss        1 18V     -0.089300
     16 CBC         5.0820    2.0570    7.3750 cc        1 18V     -0.165700
     17 CAM         5.8960    2.6540    8.4460 c3        1 18V     -0.014100
     18 CAJ         5.0620    3.4650    9.4220 c3        1 18V     -0.077400
     19 CAA         5.9260    4.0750   10.4950 c3        1 18V     -0.095100
     20 CBB         4.7170    2.6710    6.1710 cd        1 18V      0.336600
     21 CAN         5.0840    4.0550    5.7970 c3        1 18V     -0.053600
     22 SAT         6.6160    3.9210    4.9050 ss        1 18V     -0.201400
     23 C2          7.0740    5.5540    4.5620 ca        1 18V      0.791300
     24 N3          8.2630    5.6740    3.9060 nb        1 18V     -0.797000
     25 N1          6.2430    6.5590    4.9550 nb        1 18V     -0.797000
     26 C6          6.6580    7.8400    4.6700 ca        1 18V      0.705200
     27 NAC         5.9040    8.9170    5.1340 nh        1 18V     -0.937500
     28 C5          7.8720    8.0830    3.9700 ca        1 18V     -0.500600
     29 C4          8.6540    6.9550    3.5910 ca        1 18V      0.705200
     30 NAD         9.8060    7.1430    2.8320 nh        1 18V     -0.937500
     31 H1          2.1000   -0.3090   -0.9740 h1        1 18V      0.059700
     32 H2          1.4080   -1.8890   -0.3420 h1        1 18V      0.059700
     33 H3          1.5150    0.4620    1.6250 h1        1 18V      0.058200
     34 H4          3.1120   -0.3070    1.1290 h1        1 18V      0.058200
     35 H5          3.1020    0.4010    3.2720 ha        1 18V      0.164000
     36 H6         -0.3920   -4.1730    5.0850 h1        1 18V      0.045700
     37 H7         -0.2000   -5.2340    3.5950 h1        1 18V      0.045700
     38 H8          1.1610   -5.1180    4.8270 h1        1 18V      0.045700
     39 H9          1.4200   -3.3050    6.1900 ha        1 18V      0.143000
     40 H10         2.6920   -1.4300    7.1760 ha        1 18V      0.136000
     41 H11         6.6820    3.3170    7.9880 hc        1 18V      0.060700
     42 H12         6.4380    1.8450    9.0080 hc        1 18V      0.060700
     43 H13         4.5190    4.2740    8.8660 hc        1 18V      0.045200
     44 H14         4.2850    2.8060    9.8910 hc        1 18V      0.045200
     45 H15         6.4590    3.2820   11.0730 hc        1 18V      0.036033
     46 H16         6.6910    4.7560   10.0470 hc        1 18V      0.036033
     47 H17         5.2990    4.6680   11.2040 hc        1 18V      0.036033
     48 H18         4.2970    4.5340    5.1610 h1        1 18V      0.094200
     49 H19         5.2080    4.6810    6.7160 h1        1 18V      0.094200
     50 H20         4.9770    8.7250    5.4390 hn        1 18V      0.416050
     51 H21         6.0180    9.7610    4.6230 hn        1 18V      0.416050
     52 H22         8.1940    9.1020    3.7310 ha        1 18V      0.146000
     53 H23        10.4200    6.3680    2.7320 hn        1 18V      0.416050
     54 H24        10.2400    8.0300    2.9310 hn        1 18V      0.416050
@<TRIPOS>BOND
     1    1    2 1   
     2    2    3 1   
     3    2   31 1   
     4    2   32 1   
     5    3    4 1   
     6    3   33 1   
     7    3   34 1   
     8    4    5 1   
     9    5    6 ar  
    10    5    7 ar  
    11    6   12 ar  
    12    6   35 1   
    13    7    8 1   
    14    7   10 ar  
    15    8    9 1   
    16    9   36 1   
    17    9   37 1   
    18    9   38 1   
    19   10   11 ar  
    20   10   39 1   
    21   11   12 ar  
    22   11   40 1   
    23   12   13 1   
    24   13   14 2   
    25   13   15 1   
    26   14   20 1   
    27   15   16 1   
    28   16   17 1   
    29   16   20 2   
    30   17   18 1   
    31   17   41 1   
    32   17   42 1   
    33   18   19 1   
    34   18   43 1   
    35   18   44 1   
    36   19   45 1   
    37   19   46 1   
    38   19   47 1   
    39   20   21 1   
    40   21   22 1   
    41   21   48 1   
    42   21   49 1   
    43   22   23 1   
    44   23   24 ar  
    45   23   25 ar  
    46   24   29 ar  
    47   25   26 ar  
    48   26   27 1   
    49   26   28 ar  
    50   27   50 1   
    51   27   51 1   
    52   28   29 ar  
    53   28   52 1   
    54   29   30 1   
    55   30   53 1   
    56   30   54 1   
@<TRIPOS>SUBSTRUCTURE
     1 18V         1 TEMP              0 ****  ****    0 ROOT
