@<TRIPOS>MOLECULE
18V
   54    56     1     0     0
SMALL
bcc


@<TRIPOS>ATOM
      1 FAE         0.1540   -0.2660   -0.3590 f         1 18V     -0.240300
      2 CAK         1.4300   -0.7660   -0.1960 c3        1 18V      0.157900
      3 CAL         1.9990   -0.4430    1.1930 c3        1 18V      0.087400
      4 OAS         1.7140   -1.5920    1.9980 os        1 18V     -0.308900
      5 CBA         1.9990   -1.4650    3.3430 ca        1 18V      0.098100
      6 CAI         2.7240   -0.4150    3.9050 ca        1 18V     -0.135000
      7 CAZ         1.5190   -2.5200    4.1660 ca        1 18V      0.117100
      8 OAR         0.8220   -3.5120    3.5100 os        1 18V     -0.299900
      9 CAB         0.3150   -4.5620    4.3270 c3        1 18V      0.109700
     10 CAG         1.7770   -2.4950    5.5370 ca        1 18V     -0.182000
     11 CAF         2.4980   -1.4390    6.0920 ca        1 18V     -0.117000
     12 CAX         2.9760   -0.4000    5.2870 ca        1 18V     -0.132500
     13 CBD         3.7370    0.6860    5.8850 cc        1 18V      0.457900
     14 NAQ         3.9440    1.8830    5.3270 nd        1 18V     -0.617000
     15 SAU         4.4730    0.4930    7.4350 ss        1 18V     -0.089300
     16 CBC         5.0870    2.0530    7.3760 cc        1 18V     -0.165700
     17 CAM         5.9060    2.6470    8.4450 c3        1 18V     -0.013100
     18 CAJ         5.0750    3.4580    9.4250 c3        1 18V     -0.077400
     19 CAA         5.9430    4.0650   10.4970 c3        1 18V     -0.095100
     20 CBB         4.7200    2.6700    6.1740 cd        1 18V      0.336600
     21 CAN         5.0870    4.0540    5.8010 c3        1 18V     -0.053600
     22 SAT         6.6130    3.9190    4.8990 ss        1 18V     -0.201400
     23 C2          7.0710    5.5530    4.5570 ca        1 18V      0.791300
     24 N3          8.2560    5.6720    3.8930 nb        1 18V     -0.797000
     25 N1          6.2460    6.5590    4.9590 nb        1 18V     -0.797000
     26 C6          6.6600    7.8400    4.6740 ca        1 18V      0.705200
     27 NAC         5.9120    8.9170    5.1460 nv        1 18V     -0.937500
     28 C5          7.8700    8.0820    3.9660 ca        1 18V     -0.500600
     29 C4          8.6470    6.9530    3.5780 ca        1 18V      0.705200
     30 NAD         9.7940    7.1410    2.8110 nv        1 18V     -0.937500
     31 H1          1.4040   -1.8820   -0.3420 h1        1 18V      0.059700
     32 H2          2.0980   -0.3020   -0.9720 h1        1 18V      0.059700
     33 H3          1.5140    0.4690    1.6270 h1        1 18V      0.058200
     34 H4          3.1100   -0.3030    1.1310 h1        1 18V      0.058200
     35 H5          3.1000    0.4050    3.2750 ha        1 18V      0.164000
     36 H6         -0.4020   -4.1640    5.0850 h1        1 18V      0.045700
     37 H7          1.1500   -5.1120    4.8260 h1        1 18V      0.045700
     38 H8         -0.2120   -5.2250    3.5940 h1        1 18V      0.045700
     39 H9          1.4120   -3.3010    6.1900 ha        1 18V      0.143000
     40 H10         2.6880   -1.4280    7.1780 ha        1 18V      0.136000
     41 H11         6.4480    1.8360    9.0050 hc        1 18V      0.060700
     42 H12         6.6920    3.3100    7.9870 hc        1 18V      0.060700
     43 H13         4.2980    2.7990    9.8950 hc        1 18V      0.045200
     44 H14         4.5320    4.2690    8.8720 hc        1 18V      0.045200
     45 H15         6.7070    4.7450   10.0480 hc        1 18V      0.036033
     46 H16         5.3190    4.6570   11.2090 hc        1 18V      0.036033
     47 H17         6.4770    3.2700   11.0720 hc        1 18V      0.036033
     48 H18         4.2970    4.5360    5.1730 h1        1 18V      0.094200
     49 H19         5.2180    4.6770    6.7220 h1        1 18V      0.094200
     50 H20         6.0240    9.7620    4.6370 hn        1 18V      0.416050
     51 H21         4.9870    8.7260    5.4580 hn        1 18V      0.416050
     52 H22         8.1920    9.1010    3.7270 ha        1 18V      0.146000
     53 H23        10.2300    8.0270    2.9090 hn        1 18V      0.416050
     54 H24        10.4060    6.3650    2.7050 hn        1 18V      0.416050
@<TRIPOS>BOND
     1    1    2 1   
     2    2    3 1   
     3    2   31 1   
     4    2   32 1   
     5    3    4 1   
     6    3   33 1   
     7    3   34 1   
     8    4    5 1   
     9    5    6 ar  
    10    5    7 ar  
    11    6   12 ar  
    12    6   35 1   
    13    7    8 1   
    14    7   10 ar  
    15    8    9 1   
    16    9   36 1   
    17    9   37 1   
    18    9   38 1   
    19   10   11 ar  
    20   10   39 1   
    21   11   12 ar  
    22   11   40 1   
    23   12   13 1   
    24   13   14 2   
    25   13   15 1   
    26   14   20 1   
    27   15   16 1   
    28   16   17 1   
    29   16   20 2   
    30   17   18 1   
    31   17   41 1   
    32   17   42 1   
    33   18   19 1   
    34   18   43 1   
    35   18   44 1   
    36   19   45 1   
    37   19   46 1   
    38   19   47 1   
    39   20   21 1   
    40   21   22 1   
    41   21   48 1   
    42   21   49 1   
    43   22   23 1   
    44   23   24 ar  
    45   23   25 ar  
    46   24   29 ar  
    47   25   26 ar  
    48   26   27 1   
    49   26   28 ar  
    50   27   50 1   
    51   27   51 1   
    52   28   29 ar  
    53   28   52 1   
    54   29   30 1   
    55   30   53 1   
    56   30   54 1   
@<TRIPOS>SUBSTRUCTURE
     1 18V         1 TEMP              0 ****  ****    0 ROOT
