@<TRIPOS>MOLECULE
18V
   54    45     1     0     0
SMALL
bcc


@<TRIPOS>ATOM
      1 FAE        -0.0500   -7.2130   -1.9530 f         1 18V     -0.173000
      2 CAK        -1.2410   -7.4190   -1.3670 c3        1 18V      0.006000
      3 CAL        -1.7250   -6.1300   -0.7390 c3        1 18V     -0.058000
      4 OAS        -1.6360   -5.0860   -1.6820 os        1 18V     -0.214000
      5 CBA        -2.1970   -3.8730   -1.2430 c1        1 18V      0.027000
      6 CAI        -1.3820   -2.8880   -0.7030 c1        1 18V     -0.103000
      7 CAZ        -3.5530   -3.6380   -1.4070 c1        1 18V      0.070333
      8 OAR        -4.3910   -4.6600   -1.8890 o         1 18V     -0.208000
      9 CAB        -5.0780   -4.3240   -3.0760 c3        1 18V     -0.078000
     10 CAG        -4.0950   -2.4180   -1.0320 c1        1 18V     -0.211333
     11 CAF        -3.2810   -1.4330   -0.4930 c1        1 18V     -0.211333
     12 CAX        -1.9240   -1.6690   -0.3280 c1        1 18V      0.070333
     13 CBD        -1.0480   -0.6200    0.3290 c1        1 18V     -0.241000
     14 NAQ        -0.6460    0.6230   -0.2500 n2        1 18V     -0.087000
     15 SAU        -0.4720   -0.6850    1.7600 ss        1 18V      0.518000
     16 CBC         0.3050    0.6050    2.0020 c1        1 18V     -0.365000
     17 CAM         0.9630    1.0180    3.3010 c2        1 18V     -0.101000
     18 CAJ         0.6410    0.0000    4.3760 c3        1 18V     -0.165000
     19 CAA         1.7320    0.0110    5.4250 c3        1 18V     -0.210000
     20 CBB         0.2140    1.4070    0.8040 c1        1 18V     -0.097000
     21 CAN         0.8340    2.7780    0.6020 c2        1 18V     -0.218000
     22 SAT         2.2860    2.6290   -0.4100 ss        1 18V      0.309000
     23 C2          2.8520    4.2490   -0.8770 c1        1 18V     -0.061000
     24 N3          4.0890    4.6730   -0.4910 n1        1 18V     -0.252000
     25 N1          2.0920    5.0230   -1.7010 n1        1 18V     -0.292000
     26 C6          2.5600    6.2050   -2.1340 c1        1 18V      0.070333
     27 NAC         1.7950    6.9790   -3.0440 n2        1 18V     -0.338000
     28 C5          3.7970    6.6300   -1.7480 c1        1 18V     -0.211333
     29 C4          4.5580    5.8540   -0.9230 c1        1 18V      0.187000
     30 NAD         5.8470    6.2940   -0.5230 n3        1 18V     -0.339000
     31 H1         -1.8880   -7.7180   -2.0400 h1        1 18V      0.096000
     32 H2         -1.1500   -8.1060   -0.6740 h1        1 18V      0.096000
     33 H3         -1.1680   -5.9170    0.0380 h1        1 18V      0.098500
     34 H4         -2.6570   -6.2350   -0.4550 h1        1 18V      0.098500
     35 H5         -0.4270   -3.0540   -0.5870 ha        1 18V      0.154000
     36 H6         -5.3200   -5.1450   -3.5570 h1        1 18V      0.086667
     37 H7         -5.8920   -3.8240   -2.8520 h1        1 18V      0.086667
     38 H8         -4.5000   -3.7700   -3.6430 h1        1 18V      0.086667
     39 H9         -5.0500   -2.2520   -1.1480 ha        1 18V      0.149667
     40 H10        -3.6620   -0.5740   -0.2290 ha        1 18V      0.149667
     41 H11         1.9320    1.0650    3.1760 ha        1 18V      0.106000
     42 H12         0.6260    1.8960    3.5720 ha        1 18V      0.106000
     43 H13         0.5830   -0.8900    3.9750 hc        1 18V      0.085000
     44 H14        -0.2150    0.2260    4.7930 hc        1 18V      0.085000
     45 H15         1.6790    0.8410    5.9430 hc        1 18V      0.076333
     46 H16         1.6180   -0.7560    6.0240 hc        1 18V      0.076333
     47 H17         2.6070   -0.0440    4.9860 hc        1 18V      0.076333
     48 H18         0.1880    3.3660    0.1620 h4        1 18V      0.132000
     49 H19         1.0790    3.1560    1.4710 h4        1 18V      0.132000
     50 H20         1.0530    6.6200   -3.4390 hn        1 18V      0.211500
     51 H21         2.0610    7.8280   -3.2570 hn        1 18V      0.211500
     52 H22         4.1380    7.4890   -2.0630 ha        1 18V      0.149667
     53 H23         6.1540    7.1140   -0.7900 hn        1 18V      0.214000
     54 H24         6.3670    5.7630    0.0080 hn        1 18V      0.214000
@<TRIPOS>BOND
     1    1    2 1   
     2    2    3 1   
     3    2   31 1   
     4    2   32 1   
     5    3    4 1   
     6    3   33 1   
     7    3   34 1   
     8    4    5 1   
     9    5    6 1   
    10    6   35 1   
    11    7   10 1   
    12    8    9 1   
    13    9   36 1   
    14    9   37 1   
    15    9   38 1   
    16   10   39 1   
    17   11   12 1   
    18   11   40 1   
    19   13   14 1   
    20   13   15 1   
    21   14   20 1   
    22   15   16 1   
    23   16   20 1   
    24   17   18 1   
    25   17   41 1   
    26   17   42 1   
    27   18   19 1   
    28   18   43 1   
    29   18   44 1   
    30   19   45 1   
    31   19   46 1   
    32   19   47 1   
    33   21   22 1   
    34   21   48 1   
    35   21   49 1   
    36   22   23 1   
    37   23   25 1   
    38   24   29 1   
    39   26   28 1   
    40   27   50 1   
    41   27   51 1   
    42   28   52 1   
    43   29   30 1   
    44   30   53 1   
    45   30   54 1   
@<TRIPOS>SUBSTRUCTURE
     1 18V         1 TEMP              0 ****  ****    0 ROOT
