@<TRIPOS>MOLECULE
18V
   54    56     1     0     0
SMALL
bcc


@<TRIPOS>ATOM
      1 FAE         5.1550   -4.7600    1.2090 f         1 18V     -0.240300
      2 CAK         4.8090   -4.3850   -0.0730 c3        1 18V      0.157900
      3 CAL         3.9900   -3.0870   -0.0900 c3        1 18V      0.087400
      4 OAS         4.9390   -2.0410   -0.3230 os        1 18V     -0.308900
      5 CBA         4.4460   -0.7550   -0.2310 ca        1 18V      0.098100
      6 CAI         3.0950   -0.4270   -0.1380 ca        1 18V     -0.135000
      7 CAZ         5.4280    0.2730   -0.2650 ca        1 18V      0.117100
      8 OAR         6.7330   -0.1580   -0.3670 os        1 18V     -0.300900
      9 CAB         7.7270    0.8610   -0.3750 c3        1 18V      0.109700
     10 CAG         5.0270    1.6090   -0.2010 ca        1 18V     -0.182000
     11 CAF         3.6740    1.9280   -0.1020 ca        1 18V     -0.117000
     12 CAX         2.7040    0.9200   -0.0720 ca        1 18V     -0.131500
     13 CBD         1.2970    1.2770    0.0190 cc        1 18V      0.456900
     14 NAQ         0.3150    0.4550    0.4060 nd        1 18V     -0.617000
     15 SAU         0.7640    2.8650   -0.3970 ss        1 18V     -0.088300
     16 CBC        -0.8270    2.4610   -0.0470 cc        1 18V     -0.164700
     17 CAM        -1.9540    3.3970   -0.1860 c3        1 18V     -0.014100
     18 CAJ        -2.2820    4.1040    1.1180 c3        1 18V     -0.077400
     19 CAA        -3.4510    5.0390    0.9470 c3        1 18V     -0.095100
     20 CBB        -0.9040    1.1270    0.3680 cd        1 18V      0.335600
     21 CAN        -2.1580    0.4490    0.7630 c3        1 18V     -0.053600
     22 SAT        -2.8000   -0.2810   -0.7260 ss        1 18V     -0.202400
     23 C2         -4.3090   -0.9890   -0.2580 ca        1 18V      0.793300
     24 N3         -4.9780   -1.5970   -1.2780 nb        1 18V     -0.798500
     25 N1         -4.6920   -0.9010    1.0460 nb        1 18V     -0.798500
     26 C6         -5.9010   -1.4770    1.3660 ca        1 18V      0.709200
     27 NAC        -6.3910   -1.3460    2.6630 nh        1 18V     -0.941500
     28 C5         -6.6790   -2.1510    0.3850 ca        1 18V     -0.505600
     29 C4         -6.1860   -2.1700   -0.9520 ca        1 18V      0.709200
     30 NAD        -6.9620   -2.7290   -1.9620 nh        1 18V     -0.941500
     31 H1          5.7480   -4.2460   -0.6780 h1        1 18V      0.059700
     32 H2          4.1890   -5.2050   -0.5300 h1        1 18V      0.059700
     33 H3          3.2500   -3.1080   -0.9320 h1        1 18V      0.057700
     34 H4          3.4650   -2.9280    0.8870 h1        1 18V      0.057700
     35 H5          2.3280   -1.2170   -0.1130 ha        1 18V      0.163000
     36 H6          7.6000    1.5300   -1.2610 h1        1 18V      0.045700
     37 H7          7.6950    1.4540    0.5710 h1        1 18V      0.045700
     38 H8          8.6840    0.2850   -0.4490 h1        1 18V      0.045700
     39 H9          5.7720    2.4170   -0.2230 ha        1 18V      0.143000
     40 H10         3.3730    2.9860   -0.0440 ha        1 18V      0.136000
     41 H11        -1.7180    4.1650   -0.9720 hc        1 18V      0.062200
     42 H12        -2.8620    2.8330   -0.5410 hc        1 18V      0.062200
     43 H13        -2.5190    3.3410    1.9070 hc        1 18V      0.044700
     44 H14        -1.3850    4.6780    1.4700 hc        1 18V      0.044700
     45 H15        -3.2250    5.8180    0.1790 hc        1 18V      0.036367
     46 H16        -4.3610    4.4800    0.6210 hc        1 18V      0.036367
     47 H17        -3.6790    5.5520    1.9130 hc        1 18V      0.036367
     48 H18        -1.9780   -0.3340    1.5430 h1        1 18V      0.094200
     49 H19        -2.8780    1.1930    1.1870 h1        1 18V      0.094200
     50 H20        -5.7550   -1.0530    3.3680 hn        1 18V      0.417550
     51 H21        -7.0580   -2.0270    2.9370 hn        1 18V      0.417550
     52 H22        -7.6400   -2.6100    0.6400 ha        1 18V      0.146000
     53 H23        -7.6270   -3.4040   -1.6690 hn        1 18V      0.417550
     54 H24        -6.5290   -2.8930   -2.8410 hn        1 18V      0.417550
@<TRIPOS>BOND
     1    1    2 1   
     2    2    3 1   
     3    2   31 1   
     4    2   32 1   
     5    3    4 1   
     6    3   33 1   
     7    3   34 1   
     8    4    5 1   
     9    5    6 ar  
    10    5    7 ar  
    11    6   12 ar  
    12    6   35 1   
    13    7    8 1   
    14    7   10 ar  
    15    8    9 1   
    16    9   36 1   
    17    9   37 1   
    18    9   38 1   
    19   10   11 ar  
    20   10   39 1   
    21   11   12 ar  
    22   11   40 1   
    23   12   13 1   
    24   13   14 2   
    25   13   15 1   
    26   14   20 1   
    27   15   16 1   
    28   16   17 1   
    29   16   20 2   
    30   17   18 1   
    31   17   41 1   
    32   17   42 1   
    33   18   19 1   
    34   18   43 1   
    35   18   44 1   
    36   19   45 1   
    37   19   46 1   
    38   19   47 1   
    39   20   21 1   
    40   21   22 1   
    41   21   48 1   
    42   21   49 1   
    43   22   23 1   
    44   23   24 ar  
    45   23   25 ar  
    46   24   29 ar  
    47   25   26 ar  
    48   26   27 1   
    49   26   28 ar  
    50   27   50 1   
    51   27   51 1   
    52   28   29 ar  
    53   28   52 1   
    54   29   30 1   
    55   30   53 1   
    56   30   54 1   
@<TRIPOS>SUBSTRUCTURE
     1 18V         1 TEMP              0 ****  ****    0 ROOT
