@<TRIPOS>MOLECULE
18V
   56    58     1     0     0
SMALL
bcc


@<TRIPOS>ATOM
      1 FAE         1.2370    1.4210   -0.5530 f         1 18V     -0.244300
      2 CAK         1.0290    0.2590    0.1630 c3        1 18V      0.153900
      3 CAL         1.6720    0.3790    1.5540 c3        1 18V      0.088400
      4 OAS         1.6500   -0.9450    2.0920 os        1 18V     -0.293900
      5 CBA         2.1880   -1.0810    3.3550 ca        1 18V      0.096100
      6 CAI         2.7770   -0.0550    4.0870 ca        1 18V     -0.133000
      7 CAZ         2.1140   -2.3970    3.8990 ca        1 18V      0.153100
      8 OAR         1.5150   -3.3320    3.0950 os        1 18V     -0.291900
      9 CAB         1.3950   -4.6490    3.6320 c3        1 18V      0.103700
     10 CAG         2.6420   -2.6450    5.1690 ca        1 18V     -0.184000
     11 CAF         3.2350   -1.6130    5.8930 ca        1 18V     -0.095000
     12 CAX         3.3060   -0.3190    5.3630 ca        1 18V     -0.178500
     13 CBD         3.9230    0.7410    6.1410 cc        1 18V      0.486900
     14 NAQ         4.2970    1.9360    5.6700 nd        1 18V     -0.648000
     15 SAU         4.2320    0.5250    7.8280 ss        1 18V      0.038700
     16 CBC         4.8960    2.0480    7.9520 cc        1 18V     -0.146700
     17 CAM         5.4290    2.6030    9.2080 c3        1 18V     -0.025100
     18 CAJ         4.4440    3.5400    9.8900 c3        1 18V     -0.075400
     19 CAA         5.0280    4.1050   11.1590 c3        1 18V     -0.100100
     20 CBB         4.8510    2.6900    6.7050 cd        1 18V      0.239600
     21 CAN         5.2900    4.0740    6.4460 c3        1 18V     -0.082600
     22 SAT         6.6900    3.7860    5.4000 ss        1 18V      0.187600
     23 C2          7.0790    5.1890    4.6230 ca        1 18V      0.705300
     24 N3          8.1540    5.1140    3.7310 nb        1 18V     -0.695000
     25 N1          6.3560    6.3590    4.8310 nb        1 18V     -0.695000
     26 C6          6.7110    7.4370    4.1120 ca        1 18V      0.591700
     27 NAC         5.9250    8.6780    4.3200 n4        1 18V     -0.834800
     28 C5          7.7750    7.4660    3.1750 ca        1 18V     -0.449600
     29 C4          8.4610    6.2230    3.0490 ca        1 18V      0.591700
     30 NAD         9.5940    6.1370    2.0960 n4        1 18V     -0.834800
     31 H1         -0.0760    0.0810    0.2680 h1        1 18V      0.071700
     32 H2          1.4860   -0.6060   -0.3920 h1        1 18V      0.071700
     33 H3          2.7290    0.7420    1.4660 h1        1 18V      0.045200
     34 H4          1.0830    1.0710    2.2080 h1        1 18V      0.045200
     35 H5          2.8270    0.9640    3.6770 ha        1 18V      0.151000
     36 H6          0.7800   -4.6400    4.5640 h1        1 18V      0.057700
     37 H7          2.4040   -5.0880    3.8240 h1        1 18V      0.057700
     38 H8          0.8680   -5.2060    2.8140 h1        1 18V      0.057700
     39 H9          2.5940   -3.6540    5.6050 ha        1 18V      0.160000
     40 H10         3.6490   -1.8300    6.8910 ha        1 18V      0.137000
     41 H11         6.3870    3.1560    9.0020 hc        1 18V      0.063700
     42 H12         5.6860    1.7680    9.9170 hc        1 18V      0.063700
     43 H13         3.4990    2.9840   10.1240 hc        1 18V      0.045700
     44 H14         4.1730    4.3730    9.1890 hc        1 18V      0.045700
     45 H15         5.9600    4.6830   10.9470 hc        1 18V      0.045700
     46 H16         4.2920    4.7870   11.6490 hc        1 18V      0.045700
     47 H17         5.2790    3.2870   11.8770 hc        1 18V      0.045700
     48 H18         5.5830    4.5930    7.3940 h1        1 18V      0.113200
     49 H19         4.4870    4.6730    5.9480 h1        1 18V      0.113200
     50 H20         5.2860    8.5830    5.1270 hn        1 18V      0.490800
     51 H21         6.5690    9.4610    4.4900 hn        1 18V      0.490800
     52 H22         8.0470    8.3580    2.5990 ha        1 18V      0.189000
     53 H23        10.3050    6.8350    2.3550 hn        1 18V      0.490800
     54 H24         9.2480    6.3290    1.1470 hn        1 18V      0.490800
     55 HAC3        5.3670    8.8650    3.4750 hn        1 18V      0.490800
     56 HAD3       10.0250    5.1960    2.1130 hn        1 18V      0.490800
@<TRIPOS>BOND
     1    1    2 1   
     2    2    3 1   
     3    2   31 1   
     4    2   32 1   
     5    3    4 1   
     6    3   33 1   
     7    3   34 1   
     8    4    5 1   
     9    5    6 ar  
    10    5    7 ar  
    11    6   12 ar  
    12    6   35 1   
    13    7    8 1   
    14    7   10 ar  
    15    8    9 1   
    16    9   36 1   
    17    9   37 1   
    18    9   38 1   
    19   10   11 ar  
    20   10   39 1   
    21   11   12 ar  
    22   11   40 1   
    23   12   13 1   
    24   13   14 2   
    25   13   15 1   
    26   14   20 1   
    27   15   16 1   
    28   16   17 1   
    29   16   20 2   
    30   17   18 1   
    31   17   41 1   
    32   17   42 1   
    33   18   19 1   
    34   18   43 1   
    35   18   44 1   
    36   19   45 1   
    37   19   46 1   
    38   19   47 1   
    39   20   21 1   
    40   21   22 1   
    41   21   48 1   
    42   21   49 1   
    43   22   23 1   
    44   23   24 ar  
    45   23   25 ar  
    46   24   29 ar  
    47   25   26 ar  
    48   26   27 1   
    49   26   28 ar  
    50   27   50 1   
    51   27   51 1   
    52   27   55 1   
    53   28   29 ar  
    54   28   52 1   
    55   29   30 1   
    56   30   53 1   
    57   30   54 1   
    58   30   56 1   
@<TRIPOS>SUBSTRUCTURE
     1 18V         1 TEMP              0 ****  ****    0 ROOT
