@<TRIPOS>MOLECULE
18W
   49    50     1     0     0
SMALL
bcc


@<TRIPOS>ATOM
      1 O3A         0.1160   -0.5980    0.3330 o         1 18W     -0.880300
      2 C9A         1.3730   -0.4940    0.2060 c         1 18W      0.904600
      3 O4A         2.1510   -0.5510    1.2120 o         1 18W     -0.880300
      4 C8A         2.0120   -0.3230   -1.1760 c3        1 18W     -0.174400
      5 C7A         1.0300    0.0710   -2.2600 c3        1 18W      0.001900
      6 C3A         1.5900    0.0310   -3.6250 cc        1 18W     -0.102300
      7 C2A         1.8790   -1.1630   -4.3920 cc        1 18W     -0.098300
      8 C5A         1.7000   -2.5480   -3.9270 c3        1 18W     -0.114100
      9 C6A         1.8380   -3.6490   -4.9870 c         1 18W      0.906600
     10 O2A         2.9570   -4.2370   -5.1260 o         1 18W     -0.881300
     11 O1A         0.8230   -4.0000   -5.6650 o         1 18W     -0.881300
     12 C1A         2.3600   -0.7420   -5.6460 cd        1 18W     -0.116600
     13 CHA         2.7640   -1.5850   -6.7850 c3        1 18W     -0.038800
     14 NA          2.4260    0.6520   -5.6560 na        1 18W     -0.191100
     15 C4A         1.9040    1.1430   -4.4440 cd        1 18W     -0.124100
     16 CHB         1.7170    2.5570   -4.2150 cf        1 18W     -0.075200
     17 C1B         2.4970    3.5500   -4.7050 cc        1 18W     -0.011400
     18 C2B         2.2800    5.0310   -4.5980 cc        1 18W      0.037800
     19 C5B         1.0860    5.6220   -3.9850 c3        1 18W     -0.167200
     20 C6B        -0.0920    5.9940   -4.9200 c         1 18W      0.925600
     21 O2B        -0.1900    5.5080   -6.0780 o         1 18W     -0.852800
     22 O1B        -0.9520    6.7870   -4.4260 o         1 18W     -0.852800
     23 NB          3.7050    3.3650   -5.4470 ns        1 18W     -0.490100
     24 C4B         4.3260    4.6320   -5.6280 c         1 18W      0.687700
     25 O5B         5.4520    4.7410   -6.1430 o         1 18W     -0.669500
     26 C3B         3.3720    5.6740   -5.1290 cd        1 18W     -0.206400
     27 C7B         3.6520    7.1180   -5.2600 c3        1 18W      0.001800
     28 C8B         4.9460    7.5450   -4.5980 c3        1 18W     -0.180400
     29 C9B         5.3380    8.9990   -4.8790 c         1 18W      0.906600
     30 O4B         5.9050    9.6530   -3.9460 o         1 18W     -0.881300
     31 O3B         5.1410    9.5100   -6.0220 o         1 18W     -0.881300
     32 H2          2.4940   -1.2990   -1.4440 hc        1 18W      0.029200
     33 H3          2.8240    0.4430   -1.0970 hc        1 18W      0.029200
     34 H4          0.6420    1.1030   -2.0410 hc        1 18W      0.045200
     35 H5          0.1500   -0.6300   -2.2050 hc        1 18W      0.045200
     36 H6          0.6800   -2.6380   -3.4640 hc        1 18W      0.040700
     37 H7          2.4570   -2.7540   -3.1210 hc        1 18W      0.040700
     38 H9          3.1170   -0.9850   -7.6600 hc        1 18W      0.046700
     39 H10         1.8930   -2.2210   -7.0960 hc        1 18W      0.046700
     40 H11         3.5780   -2.2850   -6.4590 hc        1 18W      0.046700
     41 H12         2.4970    1.1980   -6.4750 hn        1 18W      0.280700
     42 H13         0.8360    2.8180   -3.6040 ha        1 18W      0.156000
     43 H15         0.6620    4.9170   -3.2210 hc        1 18W      0.047700
     44 H16         1.3790    6.5670   -3.4540 hc        1 18W      0.047700
     45 H18         3.7090    7.3860   -6.3510 hc        1 18W      0.056200
     46 H19         2.7970    7.7010   -4.8230 hc        1 18W      0.056200
     47 H20         4.8730    7.4020   -3.4900 hc        1 18W      0.029700
     48 H21         5.7820    6.8970   -4.9720 hc        1 18W      0.029700
     49 H14         4.2500    2.5530   -5.2940 hn        1 18W      0.303500
@<TRIPOS>BOND
     1    1    2 1   
     2    2    3 1   
     3    2    4 1   
     4    4    5 1   
     5    4   32 1   
     6    4   33 1   
     7    5    6 1   
     8    5   34 1   
     9    5   35 1   
    10    6    7 1   
    11    6   15 2   
    12    7    8 1   
    13    7   12 2   
    14    8    9 1   
    15    8   36 1   
    16    8   37 1   
    17    9   10 1   
    18    9   11 1   
    19   12   13 1   
    20   12   14 1   
    21   13   38 1   
    22   13   39 1   
    23   13   40 1   
    24   14   15 1   
    25   14   41 1   
    26   15   16 1   
    27   16   17 2   
    28   16   42 1   
    29   17   18 1   
    30   17   23 1   
    31   18   19 1   
    32   18   26 2   
    33   19   20 1   
    34   19   43 1   
    35   19   44 1   
    36   20   21 1   
    37   20   22 1   
    38   23   24 1   
    39   23   49 1   
    40   24   25 2   
    41   24   26 1   
    42   26   27 1   
    43   27   28 1   
    44   27   45 1   
    45   27   46 1   
    46   28   29 1   
    47   28   47 1   
    48   28   48 1   
    49   29   30 1   
    50   29   31 1   
@<TRIPOS>SUBSTRUCTURE
     1 18W         1 TEMP              0 ****  ****    0 ROOT
