@<TRIPOS>MOLECULE
18W
   49    50     1     0     0
SMALL
bcc


@<TRIPOS>ATOM
      1 O3A         0.1250   -0.5900    0.3430 o         1 18W     -0.880300
      2 C9A         1.3820   -0.4920    0.2100 c         1 18W      0.904600
      3 O4A         2.1660   -0.5550    1.2110 o         1 18W     -0.880300
      4 C8A         2.0140   -0.3230   -1.1760 c3        1 18W     -0.174400
      5 C7A         1.0280    0.0770   -2.2540 c3        1 18W      0.001900
      6 C3A         1.5810    0.0360   -3.6220 cc        1 18W     -0.102300
      7 C2A         1.8590   -1.1600   -4.3920 cc        1 18W     -0.098300
      8 C5A         1.6750   -2.5440   -3.9270 c3        1 18W     -0.114100
      9 C6A         1.8000   -3.6450   -4.9890 c         1 18W      0.906600
     10 O2A         2.9150   -4.2390   -5.1350 o         1 18W     -0.881300
     11 O1A         0.7790   -3.9890   -5.6610 o         1 18W     -0.881300
     12 C1A         2.3340   -0.7400   -5.6490 cd        1 18W     -0.116600
     13 CHA         2.7280   -1.5850   -6.7910 c3        1 18W     -0.038800
     14 NA          2.4080    0.6540   -5.6570 na        1 18W     -0.191100
     15 C4A         1.8960    1.1460   -4.4420 cd        1 18W     -0.124100
     16 CHB         1.7180    2.5610   -4.2110 cf        1 18W     -0.075200
     17 C1B         2.5010    3.5500   -4.7050 cc        1 18W     -0.011400
     18 C2B         2.2930    5.0330   -4.5940 cc        1 18W      0.037800
     19 C5B         1.1060    5.6290   -3.9740 c3        1 18W     -0.167200
     20 C6B        -0.0750    6.0090   -4.9010 c         1 18W      0.925600
     21 O2B        -0.1830    5.5250   -6.0590 o         1 18W     -0.852800
     22 O1B        -0.9280    6.8060   -4.4010 o         1 18W     -0.852800
     23 NB          3.7040    3.3590   -5.4530 n         1 18W     -0.490100
     24 C4B         4.3310    4.6220   -5.6370 c         1 18W      0.687700
     25 O5B         5.4550    4.7260   -6.1580 o         1 18W     -0.669500
     26 C3B         3.3850    5.6700   -5.1310 cd        1 18W     -0.206400
     27 C7B         3.6730    7.1120   -5.2620 c3        1 18W      0.001800
     28 C8B         4.9740    7.5310   -4.6080 c3        1 18W     -0.180400
     29 C9B         5.3720    8.9830   -4.8900 c         1 18W      0.906600
     30 O4B         5.9490    9.6330   -3.9600 o         1 18W     -0.881300
     31 O3B         5.1710    9.4970   -6.0310 o         1 18W     -0.881300
     32 H2          2.4900   -1.3020   -1.4480 hc        1 18W      0.029200
     33 H3          2.8310    0.4380   -1.1010 hc        1 18W      0.029200
     34 H4          0.6480    1.1110   -2.0320 hc        1 18W      0.045200
     35 H5          0.1450   -0.6190   -2.1950 hc        1 18W      0.045200
     36 H6          0.6560   -2.6280   -3.4590 hc        1 18W      0.040700
     37 H7          2.4350   -2.7550   -3.1260 hc        1 18W      0.040700
     38 H9          3.0790   -0.9860   -7.6660 hc        1 18W      0.046700
     39 H10         1.8520   -2.2160   -7.0970 hc        1 18W      0.046700
     40 H11         3.5390   -2.2890   -6.4700 hc        1 18W      0.046700
     41 H12         2.4780    1.1990   -6.4760 hn        1 18W      0.280700
     42 H13         0.8420    2.8260   -3.5940 ha        1 18W      0.156000
     43 H15         0.6830    4.9260   -3.2080 hc        1 18W      0.047700
     44 H16         1.4080    6.5720   -3.4430 hc        1 18W      0.047700
     45 H18         3.7250    7.3810   -6.3540 hc        1 18W      0.056200
     46 H19         2.8240    7.7000   -4.8190 hc        1 18W      0.056200
     47 H20         4.9060    7.3870   -3.5000 hc        1 18W      0.029700
     48 H21         5.8040    6.8790   -4.9880 hc        1 18W      0.029700
     49 H14         4.2450    2.5430   -5.3050 hn        1 18W      0.303500
@<TRIPOS>BOND
     1    1    2 1   
     2    2    3 1   
     3    2    4 1   
     4    4    5 1   
     5    4   32 1   
     6    4   33 1   
     7    5    6 1   
     8    5   34 1   
     9    5   35 1   
    10    6    7 1   
    11    6   15 2   
    12    7    8 1   
    13    7   12 2   
    14    8    9 1   
    15    8   36 1   
    16    8   37 1   
    17    9   10 1   
    18    9   11 1   
    19   12   13 1   
    20   12   14 1   
    21   13   38 1   
    22   13   39 1   
    23   13   40 1   
    24   14   15 1   
    25   14   41 1   
    26   15   16 1   
    27   16   17 2   
    28   16   42 1   
    29   17   18 1   
    30   17   23 1   
    31   18   19 1   
    32   18   26 2   
    33   19   20 1   
    34   19   43 1   
    35   19   44 1   
    36   20   21 1   
    37   20   22 1   
    38   23   24 1   
    39   23   49 1   
    40   24   25 2   
    41   24   26 1   
    42   26   27 1   
    43   27   28 1   
    44   27   45 1   
    45   27   46 1   
    46   28   29 1   
    47   28   47 1   
    48   28   48 1   
    49   29   30 1   
    50   29   31 1   
@<TRIPOS>SUBSTRUCTURE
     1 18W         1 TEMP              0 ****  ****    0 ROOT
