@<TRIPOS>MOLECULE
18W
   49    50     1     0     0
SMALL
bcc


@<TRIPOS>ATOM
      1 O3A        -4.2740    4.0780    0.4800 o         1 18W     -0.880300
      2 C9A        -3.8280    3.5380    1.5370 c         1 18W      0.904600
      3 O4A        -3.8320    4.1530    2.6520 o         1 18W     -0.880300
      4 C8A        -3.2900    2.1040    1.5200 c3        1 18W     -0.174400
      5 C7A        -3.0060    1.5720    0.1310 c3        1 18W      0.001900
      6 C3A        -2.6920    0.1310    0.0880 cc        1 18W     -0.102300
      7 C2A        -3.6400   -0.9520    0.2530 cc        1 18W     -0.098300
      8 C5A        -5.0770   -0.8010    0.5310 c3        1 18W     -0.114100
      9 C6A        -5.9320   -2.0720    0.4250 c         1 18W      0.906600
     10 O2A        -6.1810   -2.7400    1.4790 o         1 18W     -0.881300
     11 O1A        -6.4280   -2.4040   -0.6950 o         1 18W     -0.881300
     12 C1A        -2.9240   -2.1550    0.1010 cd        1 18W     -0.116600
     13 CHA        -3.4510   -3.5300    0.1550 c3        1 18W     -0.038800
     14 NA         -1.5760   -1.8510   -0.0960 na        1 18W     -0.191100
     15 C4A        -1.4270   -0.4530   -0.1620 cd        1 18W     -0.124100
     16 CHB        -0.1610    0.1610   -0.4930 cf        1 18W     -0.075200
     17 C1B         1.0620   -0.3220   -0.1710 cc        1 18W     -0.011400
     18 C2B         2.4030    0.2090   -0.5900 cc        1 18W      0.037800
     19 C5B         2.5620    1.3320   -1.5200 c3        1 18W     -0.167200
     20 C6B         2.7520    1.0010   -3.0210 c         1 18W      0.925600
     21 O2B         2.4380   -0.1260   -3.4890 o         1 18W     -0.852800
     22 O1B         3.2090    1.9450   -3.7350 o         1 18W     -0.852800
     23 NB          1.3130   -1.4680    0.6450 n         1 18W     -0.490100
     24 C4B         2.7100   -1.5490    0.9000 c         1 18W      0.687700
     25 O5B         3.1840   -2.3910    1.6820 o         1 18W     -0.669500
     26 C3B         3.3800   -0.5060    0.0580 cd        1 18W     -0.206400
     27 C7B         4.8490   -0.3770   -0.0050 c3        1 18W      0.001800
     28 C8B         5.4940   -0.1420    1.3470 c3        1 18W     -0.180400
     29 C9B         7.0240   -0.1860    1.3210 c         1 18W      0.906600
     30 O4B         7.6550    0.6100    2.0890 o         1 18W     -0.881300
     31 O3B         7.6340   -1.0230    0.5900 o         1 18W     -0.881300
     32 H2         -2.3600    2.0680    2.1420 hc        1 18W      0.029200
     33 H3         -4.0540    1.4540    2.0210 hc        1 18W      0.029200
     34 H4         -3.9120    1.7680   -0.5090 hc        1 18W      0.045200
     35 H5         -2.1560    2.1580   -0.3150 hc        1 18W      0.045200
     36 H6         -5.1980   -0.3950    1.5730 hc        1 18W      0.040700
     37 H7         -5.4990   -0.0400   -0.1800 hc        1 18W      0.040700
     38 H9         -3.9560   -3.6950    1.1430 hc        1 18W      0.046700
     39 H10        -4.2370   -3.6510   -0.6360 hc        1 18W      0.046700
     40 H11        -2.6550   -4.3000    0.0100 hc        1 18W      0.046700
     41 H12        -0.9130   -2.4840   -0.4610 hn        1 18W      0.280700
     42 H13        -0.2340    1.0910   -1.0830 ha        1 18W      0.156000
     43 H15         1.6650    2.0030   -1.4630 hc        1 18W      0.047700
     44 H16         3.4600    1.9340   -1.2120 hc        1 18W      0.047700
     45 H18         5.2850   -1.3180   -0.4430 hc        1 18W      0.056200
     46 H19         5.1170    0.4640   -0.7000 hc        1 18W      0.056200
     47 H20         5.1700    0.8500    1.7550 hc        1 18W      0.029700
     48 H21         5.1510   -0.9350    2.0610 hc        1 18W      0.029700
     49 H14         0.6570   -1.7220    1.3430 hn        1 18W      0.303500
@<TRIPOS>BOND
     1    1    2 1   
     2    2    3 1   
     3    2    4 1   
     4    4    5 1   
     5    4   32 1   
     6    4   33 1   
     7    5    6 1   
     8    5   34 1   
     9    5   35 1   
    10    6    7 1   
    11    6   15 2   
    12    7    8 1   
    13    7   12 2   
    14    8    9 1   
    15    8   36 1   
    16    8   37 1   
    17    9   10 1   
    18    9   11 1   
    19   12   13 1   
    20   12   14 1   
    21   13   38 1   
    22   13   39 1   
    23   13   40 1   
    24   14   15 1   
    25   14   41 1   
    26   15   16 1   
    27   16   17 2   
    28   16   42 1   
    29   17   18 1   
    30   17   23 1   
    31   18   19 1   
    32   18   26 2   
    33   19   20 1   
    34   19   43 1   
    35   19   44 1   
    36   20   21 1   
    37   20   22 1   
    38   23   24 1   
    39   23   49 1   
    40   24   25 2   
    41   24   26 1   
    42   26   27 1   
    43   27   28 1   
    44   27   45 1   
    45   27   46 1   
    46   28   29 1   
    47   28   47 1   
    48   28   48 1   
    49   29   30 1   
    50   29   31 1   
@<TRIPOS>SUBSTRUCTURE
     1 18W         1 TEMP              0 ****  ****    0 ROOT
