@<TRIPOS>MOLECULE
18W
   49    43     1     0     0
SMALL
bcc


@<TRIPOS>ATOM
      1 O3A        -0.4020    4.9970    2.0420 o         1 18W     -0.614000
      2 C9A        -1.0160    5.0890    0.9470 c1        1 18W      0.326000
      3 O4A        -1.8730    5.9960    0.7810 o         1 18W     -0.614000
      4 C8A        -0.7040    4.1280   -0.1780 c2        1 18W     -0.203000
      5 C7A        -1.3340    2.7860    0.1170 c3        1 18W     -0.091000
      6 C3A        -1.1600    1.8740   -1.0780 c2        1 18W     -0.088000
      7 C2A        -1.7940    1.9950   -2.2720 c1        1 18W     -0.093000
      8 C5A        -2.8220    3.0450   -2.6300 c2        1 18W     -0.151000
      9 C6A        -4.1920    2.4060   -2.6980 c1        1 18W      0.326000
     10 O2A        -4.9290    2.6020   -3.6990 os        1 18W     -0.621000
     11 O1A        -4.5950    1.6800   -1.7520 o         1 18W     -0.612000
     12 C1A        -1.3060    1.0200   -3.1130 c1        1 18W     -0.083000
     13 CHA        -1.6840    0.8290   -4.5640 c2        1 18W     -0.165000
     14 NA         -0.3720    0.3020   -2.4280 n2        1 18W     -0.190000
     15 C4A        -0.2760    0.8230   -1.1710 c1        1 18W     -0.092000
     16 CHB         0.6920    0.3790   -0.0990 c1        1 18W     -0.081000
     17 C1B         0.6560   -0.8860    0.3600 c1        1 18W     -0.035000
     18 C2B         1.4890   -1.4810    1.3660 c2        1 18W      0.044000
     19 C5B         2.8910   -0.9610    1.5910 c3        1 18W     -0.203000
     20 C6B         3.0320   -0.4940    3.0230 c2        1 18W      0.347000
     21 O2B         2.0400   -0.5290    3.7970 o         1 18W     -0.584500
     22 O1B         4.1410   -0.0710    3.4400 o         1 18W     -0.584500
     23 NB         -0.3070   -2.0420   -0.0860 n2        1 18W     -0.332000
     24 C4B         0.1330   -3.2610    0.7970 c2        1 18W      0.322000
     25 O5B        -0.3320   -4.3830    0.8000 o         1 18W     -0.391000
     26 C3B         1.2100   -2.7520    1.6000 c2        1 18W     -0.184000
     27 C7B         2.2930   -3.6860    2.0920 c3        1 18W     -0.082000
     28 C8B         1.6600   -4.9240    2.6850 c3        1 18W     -0.207000
     29 C9B         2.6160   -5.5560    3.6700 c2        1 18W      0.326000
     30 O4B         2.2350   -5.8130    4.8420 o         1 18W     -0.615500
     31 O3B         3.7980   -5.8180    3.3210 o         1 18W     -0.615500
     32 H2          0.2650    4.0230   -0.2580 ha        1 18W      0.067500
     33 H3         -1.0650    4.4800   -1.0160 ha        1 18W      0.067500
     34 H4         -0.8990    2.3870    0.8980 hc        1 18W      0.089000
     35 H5         -2.2870    2.9050    0.3000 hc        1 18W      0.089000
     36 H6         -2.6010    3.4350   -3.5000 ha        1 18W      0.082000
     37 H7         -2.8230    3.7460   -1.9490 ha        1 18W      0.082000
     38 H9         -2.5930    0.4670   -4.6200 ha        1 18W      0.087333
     39 H10        -1.6470    1.6920   -5.0280 ha        1 18W      0.087333
     40 H11        -1.0570    0.2050   -4.9850 ha        1 18W      0.087333
     41 H12         0.1060   -0.4040   -2.7530 DU        1 18W      0.231000
     42 H13         1.3460    1.0090    0.2590 ha        1 18W      0.161000
     43 H15         3.5360   -1.6760    1.4170 hc        1 18W      0.085500
     44 H16         3.0620   -0.2130    0.9860 hc        1 18W      0.085500
     45 H18         2.8280   -3.2340    2.7740 hc        1 18W      0.099000
     46 H19         2.8680   -3.9410    1.3430 hc        1 18W      0.099000
     47 H20         0.8330   -4.6780    3.1460 hc        1 18W      0.066000
     48 H21         1.4580   -5.5610    1.9710 hc        1 18W      0.066000
     49 H14        -1.1170   -1.9380   -0.4910 hn        1 18W      0.209000
@<TRIPOS>BOND
     1    1    2 1   
     2    2    3 1   
     3    4    5 1   
     4    4   32 1   
     5    4   33 1   
     6    5    6 1   
     7    5   34 1   
     8    5   35 1   
     9    6    7 1   
    10    6   15 1   
    11    7   12 1   
    12    8    9 1   
    13    8   36 1   
    14    8   37 1   
    15    9   11 1   
    16   12   14 1   
    17   13   38 1   
    18   13   39 1   
    19   13   40 1   
    20   14   15 1   
    21   16   17 1   
    22   16   42 1   
    23   17   18 1   
    24   18   19 1   
    25   18   26 1   
    26   19   20 1   
    27   19   43 1   
    28   19   44 1   
    29   20   21 1   
    30   20   22 1   
    31   23   24 1   
    32   23   49 1   
    33   24   25 1   
    34   24   26 1   
    35   26   27 1   
    36   27   28 1   
    37   27   45 1   
    38   27   46 1   
    39   28   29 1   
    40   28   47 1   
    41   28   48 1   
    42   29   30 1   
    43   29   31 1   
@<TRIPOS>SUBSTRUCTURE
     1 18W         1 TEMP              0 ****  ****    0 ROOT
