@<TRIPOS>MOLECULE
18W
   49    50     1     0     0
SMALL
bcc


@<TRIPOS>ATOM
      1 O3A         0.2150   -0.6210    0.3660 o         1 18W     -0.880300
      2 C9A         1.4690   -0.5230    0.2090 c         1 18W      0.904600
      3 O4A         2.2720   -0.5930    1.1940 o         1 18W     -0.880300
      4 C8A         2.0740   -0.3450   -1.1870 c3        1 18W     -0.174400
      5 C7A         1.0670    0.0640   -2.2440 c3        1 18W      0.001900
      6 C3A         1.5930    0.0310   -3.6220 cc        1 18W     -0.102300
      7 C2A         1.8550   -1.1590   -4.4060 cc        1 18W     -0.098300
      8 C5A         1.6800   -2.5460   -3.9470 c3        1 18W     -0.114100
      9 C6A         1.7850   -3.6400   -5.0190 c         1 18W      0.906600
     10 O2A         2.8970   -4.2330   -5.1910 o         1 18W     -0.881300
     11 O1A         0.7510   -3.9790   -5.6730 o         1 18W     -0.881300
     12 C1A         2.3060   -0.7300   -5.6690 cd        1 18W     -0.116600
     13 CHA         2.6770   -1.5670   -6.8240 c3        1 18W     -0.038800
     14 NA          2.3800    0.6640   -5.6690 na        1 18W     -0.191100
     15 C4A         1.8920    1.1470   -4.4400 cd        1 18W     -0.124100
     16 CHB         1.7190    2.5610   -4.1960 cf        1 18W     -0.075200
     17 C1B         2.4920    3.5530   -4.6980 cc        1 18W     -0.011400
     18 C2B         2.2860    5.0350   -4.5730 cc        1 18W      0.037800
     19 C5B         1.1110    5.6270   -3.9260 c3        1 18W     -0.167200
     20 C6B        -0.0880    6.0130   -4.8270 c         1 18W      0.925600
     21 O2B        -0.2170    5.5370   -5.9860 o         1 18W     -0.852800
     22 O1B        -0.9310    6.8060   -4.3060 o         1 18W     -0.852800
     23 NB          3.6800    3.3680   -5.4710 n         1 18W     -0.490100
     24 C4B         4.3030    4.6320   -5.6570 c         1 18W      0.687700
     25 O5B         5.4170    4.7390   -6.2000 o         1 18W     -0.669500
     26 C3B         3.3680    5.6760   -5.1260 cd        1 18W     -0.206400
     27 C7B         3.6520    7.1190   -5.2530 c3        1 18W      0.001800
     28 C8B         4.9660    7.5340   -4.6200 c3        1 18W     -0.180400
     29 C9B         5.3580    8.9870   -4.9000 c         1 18W      0.906600
     30 O4B         5.9530    9.6310   -3.9770 o         1 18W     -0.881300
     31 O3B         5.1350    9.5100   -6.0330 o         1 18W     -0.881300
     32 H2          2.8920    0.4160   -1.1240 hc        1 18W      0.029200
     33 H3          2.5440   -1.3210   -1.4760 hc        1 18W      0.029200
     34 H4          0.6910    1.0950   -2.0060 hc        1 18W      0.045200
     35 H5          0.1850   -0.6330   -2.1720 hc        1 18W      0.045200
     36 H6          2.4560   -2.7620   -3.1620 hc        1 18W      0.040700
     37 H7          0.6720   -2.6340   -3.4590 hc        1 18W      0.040700
     38 H9          1.7950   -2.1960   -7.1180 hc        1 18W      0.046700
     39 H10         3.4950   -2.2730   -6.5240 hc        1 18W      0.046700
     40 H11         3.0110   -0.9620   -7.7020 hc        1 18W      0.046700
     41 H12         2.4340    1.2150   -6.4850 hn        1 18W      0.280700
     42 H13         0.8550    2.8220   -3.5610 ha        1 18W      0.156000
     43 H15         0.7030    4.9180   -3.1570 hc        1 18W      0.047700
     44 H16         1.4230    6.5660   -3.3940 hc        1 18W      0.047700
     45 H18         3.6840    7.3960   -6.3430 hc        1 18W      0.056200
     46 H19         2.8130    7.7040   -4.7890 hc        1 18W      0.056200
     47 H20         4.9200    7.3820   -3.5120 hc        1 18W      0.029700
     48 H21         5.7890    6.8850   -5.0210 hc        1 18W      0.029700
     49 H14         4.2240    2.5510   -5.3380 hn        1 18W      0.303500
@<TRIPOS>BOND
     1    1    2 1   
     2    2    3 1   
     3    2    4 1   
     4    4    5 1   
     5    4   32 1   
     6    4   33 1   
     7    5    6 1   
     8    5   34 1   
     9    5   35 1   
    10    6    7 1   
    11    6   15 2   
    12    7    8 1   
    13    7   12 2   
    14    8    9 1   
    15    8   36 1   
    16    8   37 1   
    17    9   10 1   
    18    9   11 1   
    19   12   13 1   
    20   12   14 1   
    21   13   38 1   
    22   13   39 1   
    23   13   40 1   
    24   14   15 1   
    25   14   41 1   
    26   15   16 1   
    27   16   17 2   
    28   16   42 1   
    29   17   18 1   
    30   17   23 1   
    31   18   19 1   
    32   18   26 2   
    33   19   20 1   
    34   19   43 1   
    35   19   44 1   
    36   20   21 1   
    37   20   22 1   
    38   23   24 1   
    39   23   49 1   
    40   24   25 2   
    41   24   26 1   
    42   26   27 1   
    43   27   28 1   
    44   27   45 1   
    45   27   46 1   
    46   28   29 1   
    47   28   47 1   
    48   28   48 1   
    49   29   30 1   
    50   29   31 1   
@<TRIPOS>SUBSTRUCTURE
     1 18W         1 TEMP              0 ****  ****    0 ROOT
