@<TRIPOS>MOLECULE
18Z
   56    58     1     0     0
SMALL
bcc


@<TRIPOS>ATOM
      1 N01        -0.2820   -0.0130   -0.0910 n4        1 18Z     -0.762400
      2 N02         4.2380   -0.1400   -4.7980 nh        1 18Z     -0.712600
      3 N03         4.1250    0.3710   -0.0120 nh        1 18Z     -0.732600
      4 N04         6.8740   -0.2340    3.5150 nb        1 18Z     -0.754000
      5 N05         6.6730    2.2190    3.2320 nb        1 18Z     -0.754000
      6 N06         7.4550    1.2670    5.2670 nh        1 18Z     -0.933500
      7 N07         7.6780    0.1070   -6.2570 n3        1 18Z     -0.743600
      8 N08        10.3840   -0.2330   -7.2420 n3        1 18Z     -0.821200
      9 N09         1.2470   -0.4240   -4.8650 no        1 18Z      0.329200
     10 C10         1.3750   -0.1440   -2.4430 ca        1 18Z      0.049000
     11 C11         1.9980    0.0520   -1.1960 ca        1 18Z     -0.351600
     12 C12         3.4480    0.1830   -1.1720 ca        1 18Z      0.355600
     13 C13         4.1370    0.1090   -2.4040 ca        1 18Z     -0.364000
     14 C14         3.5130   -0.0830   -3.6580 ca        1 18Z      0.349600
     15 C15         2.0610   -0.2140   -3.6420 ca        1 18Z     -0.287200
     16 C16         1.2400    0.1200    0.0140 c         1 18Z      0.588700
     17 C17         5.5700    0.5100    0.0540 c3        1 18Z      0.286100
     18 C18         6.0480    0.7100    1.4440 ca        1 18Z     -0.477900
     19 C19         6.4080   -0.3760    2.2730 ca        1 18Z      0.506200
     20 C20         6.9990    1.0810    3.9860 ca        1 18Z      0.914900
     21 C21         6.2130    1.9980    1.9990 ca        1 18Z      0.506200
     22 C22         5.6770   -0.0020   -4.8220 c3        1 18Z      0.187800
     23 C23         6.2340   -0.0540   -6.2690 c3        1 18Z      0.164800
     24 C24         8.1660    0.8860   -7.3890 c3        1 18Z      0.170300
     25 C25         9.7010    1.0350   -7.3930 c3        1 18Z      0.163800
     26 C26         9.9160   -0.9940   -6.1020 c3        1 18Z      0.163800
     27 C27         8.3830   -1.1580   -6.0940 c3        1 18Z      0.170300
     28 O28         1.5770    0.2730    1.1880 o         1 18Z     -0.497100
     29 O29         0.0530   -0.5130   -4.7300 o         1 18Z     -0.205000
     30 O30         1.7650   -0.5020   -5.9450 o         1 18Z     -0.205000
     31 HN01       -0.6620    0.7310   -0.6810 hn        1 18Z      0.463133
     32 HN0A       -0.5310   -0.9190   -0.4920 hn        1 18Z      0.463133
     33 HN02        3.7860   -0.2810   -5.6810 hn        1 18Z      0.482800
     34 HN03        3.6370    0.4230    0.8580 hn        1 18Z      0.467800
     35 HN06        7.6040    2.1840    5.6110 hn        1 18Z      0.460800
     36 HN0B        7.7430    0.4870    5.8070 hn        1 18Z      0.460800
     37 HN08       11.3760   -0.0930   -7.1870 hn        1 18Z      0.375800
     38 H10         0.2740   -0.2520   -2.5000 ha        1 18Z      0.145000
     39 H13         5.2370    0.2070   -2.3880 ha        1 18Z      0.170000
     40 H17         6.0410   -0.4210   -0.3820 h1        1 18Z      0.064200
     41 H17A        5.8770    1.3910   -0.5860 h1        1 18Z      0.064200
     42 H19         6.3230   -1.4200    1.9140 h4        1 18Z      0.029100
     43 H21         5.9680    2.9070    1.4150 h4        1 18Z      0.029100
     44 H22         6.1350   -0.8340   -4.2120 h1        1 18Z      0.067200
     45 H22A        5.9640    0.9820   -4.3510 h1        1 18Z      0.067200
     46 H23         5.7660    0.7830   -6.8620 h1        1 18Z      0.050200
     47 H23A        5.9200   -1.0280   -6.7470 h1        1 18Z      0.050200
     48 H24         7.8450    0.4320   -8.3710 h1        1 18Z      0.040200
     49 H24A        7.7200    1.9170   -7.3170 h1        1 18Z      0.040200
     50 H25        10.0010    1.4710   -8.3870 h1        1 18Z      0.040200
     51 H25A        9.9870    1.7750   -6.5890 h1        1 18Z      0.040200
     52 H26        10.3730   -2.0210   -6.1640 h1        1 18Z      0.040200
     53 H26A       10.2300   -0.5330   -5.1200 h1        1 18Z      0.040200
     54 H27         8.0850   -1.5920   -5.1000 h1        1 18Z      0.040200
     55 H27A        8.0960   -1.8990   -6.8970 h1        1 18Z      0.040200
     56 H013       -0.6870    0.0630    0.8500 hn        1 18Z      0.463133
@<TRIPOS>BOND
     1    1   16 1   
     2    1   31 1   
     3    1   32 1   
     4    1   56 1   
     5    2   14 1   
     6    2   22 1   
     7    2   33 1   
     8    3   12 1   
     9    3   17 1   
    10    3   34 1   
    11    4   19 ar  
    12    4   20 ar  
    13    5   20 ar  
    14    5   21 ar  
    15    6   20 1   
    16    6   35 1   
    17    6   36 1   
    18    7   23 1   
    19    7   24 1   
    20    7   27 1   
    21    8   25 1   
    22    8   26 1   
    23    8   37 1   
    24    9   15 1   
    25    9   29 1   
    26    9   30 1   
    27   10   11 ar  
    28   10   15 ar  
    29   10   38 1   
    30   11   12 ar  
    31   11   16 1   
    32   12   13 ar  
    33   13   14 ar  
    34   13   39 1   
    35   14   15 ar  
    36   16   28 2   
    37   17   18 1   
    38   17   40 1   
    39   17   41 1   
    40   18   19 ar  
    41   18   21 ar  
    42   19   42 1   
    43   21   43 1   
    44   22   23 1   
    45   22   44 1   
    46   22   45 1   
    47   23   46 1   
    48   23   47 1   
    49   24   25 1   
    50   24   48 1   
    51   24   49 1   
    52   25   50 1   
    53   25   51 1   
    54   26   27 1   
    55   26   52 1   
    56   26   53 1   
    57   27   54 1   
    58   27   55 1   
@<TRIPOS>SUBSTRUCTURE
     1 18Z         1 TEMP              0 ****  ****    0 ROOT
