@<TRIPOS>MOLECULE
18Z
   55    57     1     0     0
SMALL
bcc


@<TRIPOS>ATOM
      1 N01        -0.0170    0.5300    0.0000 n         1 18Z     -0.666000
      2 N02         4.2370   -0.2040   -4.8280 nh        1 18Z     -0.763600
      3 N03         4.0690    0.4530   -0.0350 nh        1 18Z     -0.754600
      4 N04         6.2310   -0.2490    3.6920 nb        1 18Z     -0.753500
      5 N05         7.1670    1.9670    3.1310 nb        1 18Z     -0.753500
      6 N06         7.4960    0.9970    5.2830 nh        1 18Z     -0.937500
      7 N07         7.6540    0.2350   -6.3050 n3        1 18Z     -0.736600
      8 N08        10.3940   -0.0390   -7.2320 n3        1 18Z     -0.820200
      9 N09         1.2920   -0.7300   -4.8520 no        1 18Z      0.336200
     10 C10         1.3900   -0.3660   -2.4310 ca        1 18Z      0.042000
     11 C11         2.0130   -0.0860   -1.2330 ca        1 18Z     -0.280600
     12 C12         3.4340    0.1410   -1.2100 ca        1 18Z      0.320600
     13 C13         4.1340    0.0840   -2.4320 ca        1 18Z     -0.348000
     14 C14         3.5050   -0.1860   -3.6740 ca        1 18Z      0.339600
     15 C15         2.0860   -0.4230   -3.6550 ca        1 18Z     -0.342200
     16 C16         1.2220   -0.0590    0.0250 c         1 18Z      0.690700
     17 C17         5.5080    0.5190    0.0620 c3        1 18Z      0.283100
     18 C18         5.9860    0.6680    1.4640 ca        1 18Z     -0.423900
     19 C19         5.7820   -0.3360    2.4350 ca        1 18Z      0.489700
     20 C20         6.9410    0.9100    4.0160 ca        1 18Z      0.885900
     21 C21         6.6870    1.8140    1.8910 ca        1 18Z      0.489700
     22 C22         5.6600    0.0170   -4.8490 c3        1 18Z      0.208800
     23 C23         6.2250   -0.0400   -6.2900 c3        1 18Z      0.159800
     24 C24         8.0850    0.8430   -7.5570 c3        1 18Z      0.169300
     25 C25         9.6020    1.1190   -7.5940 c3        1 18Z      0.162300
     26 C26         9.9690   -0.6500   -5.9890 c3        1 18Z      0.162300
     27 C27         8.4530   -0.9300   -5.9500 c3        1 18Z      0.169300
     28 O28         1.6450   -0.5430    1.1020 o         1 18Z     -0.643100
     29 O29         0.0950   -0.8250   -4.7410 o         1 18Z     -0.242000
     30 O30         1.8160   -0.8860   -5.9290 o         1 18Z     -0.242000
     31 HN01       -0.5700    0.5340    0.8210 hn        1 18Z      0.316500
     32 HN0A       -0.3780    0.9320   -0.8250 hn        1 18Z      0.316500
     33 HN02        3.8000   -0.4390   -5.6930 hn        1 18Z      0.471800
     34 HN03        3.5650    0.3260    0.8200 hn        1 18Z      0.466800
     35 HN06        7.8410    1.8750    5.5860 hn        1 18Z      0.441300
     36 HN0B        7.1990    0.3470    5.9710 hn        1 18Z      0.441300
     37 HN08       11.3640    0.2090   -7.1800 hn        1 18Z      0.366800
     38 H10         0.3010   -0.5730   -2.4440 ha        1 18Z      0.166000
     39 H13         5.2210    0.2610   -2.4240 ha        1 18Z      0.148000
     40 H17         5.8660    1.3970   -0.5550 h1        1 18Z      0.049700
     41 H17A        5.9660   -0.4170   -0.3810 h1        1 18Z      0.049700
     42 H19         5.2190   -1.2590    2.1920 h4        1 18Z      0.032600
     43 H21         6.8740    2.6590    1.2010 h4        1 18Z      0.032600
     44 H22         5.8880    1.0280   -4.4030 h1        1 18Z      0.052700
     45 H22A        6.1700   -0.7660   -4.2150 h1        1 18Z      0.052700
     46 H23         5.6990    0.7410   -6.9100 h1        1 18Z      0.045700
     47 H23A        5.9870   -1.0480   -6.7400 h1        1 18Z      0.045700
     48 H24         7.8130    0.2030   -8.4460 h1        1 18Z      0.039450
     49 H24A        7.5540    1.8300   -7.6630 h1        1 18Z      0.039450
     50 H25         9.8160    2.0080   -6.9310 h1        1 18Z      0.036200
     51 H25A        9.8750    1.4030   -8.6490 h1        1 18Z      0.036200
     52 H26        10.5050   -1.6360   -5.8930 h1        1 18Z      0.036200
     53 H26A       10.2360   -0.0220   -5.0900 h1        1 18Z      0.036200
     54 H27         8.1840   -1.2270   -4.8990 h1        1 18Z      0.039450
     55 H27A        8.2320   -1.8080   -6.6260 h1        1 18Z      0.039450
@<TRIPOS>BOND
     1    1   16 1   
     2    1   31 1   
     3    1   32 1   
     4    2   14 1   
     5    2   22 1   
     6    2   33 1   
     7    3   12 1   
     8    3   17 1   
     9    3   34 1   
    10    4   19 ar  
    11    4   20 ar  
    12    5   20 ar  
    13    5   21 ar  
    14    6   20 1   
    15    6   35 1   
    16    6   36 1   
    17    7   23 1   
    18    7   24 1   
    19    7   27 1   
    20    8   25 1   
    21    8   26 1   
    22    8   37 1   
    23    9   15 1   
    24    9   29 1   
    25    9   30 1   
    26   10   11 ar  
    27   10   15 ar  
    28   10   38 1   
    29   11   12 ar  
    30   11   16 1   
    31   12   13 ar  
    32   13   14 ar  
    33   13   39 1   
    34   14   15 ar  
    35   16   28 2   
    36   17   18 1   
    37   17   40 1   
    38   17   41 1   
    39   18   19 ar  
    40   18   21 ar  
    41   19   42 1   
    42   21   43 1   
    43   22   23 1   
    44   22   44 1   
    45   22   45 1   
    46   23   46 1   
    47   23   47 1   
    48   24   25 1   
    49   24   48 1   
    50   24   49 1   
    51   25   50 1   
    52   25   51 1   
    53   26   27 1   
    54   26   52 1   
    55   26   53 1   
    56   27   54 1   
    57   27   55 1   
@<TRIPOS>SUBSTRUCTURE
     1 18Z         1 TEMP              0 ****  ****    0 ROOT
