@<TRIPOS>MOLECULE
18Z
   55    53     1     0     0
SMALL
bcc


@<TRIPOS>ATOM
      1 N01        -0.1570    1.4990    5.6280 n         1 18Z     -0.426000
      2 N02         1.7710    1.0130   -0.6480 n3        1 18Z     -0.302000
      3 N03        -2.3850    1.5450    1.9630 n3        1 18Z     -0.310000
      4 N04        -6.2440   -0.7980    2.4060 n1        1 18Z     -0.231000
      5 N05        -6.6330    1.5320    2.4620 n1        1 18Z     -0.224000
      6 N06        -8.3010    0.0320    3.3600 n3        1 18Z     -0.335000
      7 N07         3.2460   -1.0730   -3.2050 n3        1 18Z     -0.256000
      8 N08         4.8060   -2.4070   -4.8470 n3        1 18Z     -0.272000
      9 N09         3.2560    1.1280    1.7670 n2        1 18Z      0.480400
     10 C10         1.1870    1.2690    3.0470 c1        1 18Z      0.042000
     11 C11        -0.2050    1.3610    3.0970 c1        1 18Z     -0.261000
     12 C12        -0.9490    1.3170    1.9200 c2        1 18Z      0.237000
     13 C13        -0.3020    1.1810    0.6900 c2        1 18Z     -0.349000
     14 C14         1.0890    1.0890    0.6420 c2        1 18Z      0.253000
     15 C15         1.8330    1.1340    1.8220 c1        1 18Z     -0.294000
     16 C16        -0.9070    1.5080    4.4310 c2        1 18Z      0.364000
     17 C17        -3.2360    0.9390    0.9790 c3        1 18Z      0.039000
     18 C18        -4.6260    0.6910    1.5870 c2        1 18Z     -0.285000
     19 C19        -5.0410   -0.5840    1.8440 c2        1 18Z      0.025000
     20 C20        -7.0480    0.2580    2.7190 c1        1 18Z      0.167000
     21 C21        -5.4330    1.7480    1.9010 c1        1 18Z      0.024000
     22 C22         2.4050   -0.2310   -1.0640 c3        1 18Z     -0.022000
     23 C23         2.0820   -0.5030   -2.5520 c3        1 18Z     -0.084000
     24 C24         3.1950   -0.7580   -4.7210 c3        1 18Z     -0.107500
     25 C25         4.3130   -1.4290   -5.4980 c3        1 18Z     -0.118500
     26 C26         4.1760   -3.2580   -4.1480 c3        1 18Z     -0.118500
     27 C27         3.0550   -2.6020   -3.3580 c3        1 18Z     -0.107500
     28 O28        -2.1200    1.5890    4.4730 o         1 18Z     -0.405000
     29 O29         3.9750    0.6430    2.8170 o         1 18Z     -0.335200
     30 O30         3.8350    1.6330    0.8080 o         1 18Z     -0.335200
     31 HN01       -0.5850    1.5570    6.4370 hn        1 18Z      0.230000
     32 HN0A        0.7500    1.4020    5.5970 hn        1 18Z      0.230000
     33 HN02        1.7900    1.7420   -1.1990 hn        1 18Z      0.277000
     34 HN03       -2.7530    1.9930    2.6650 hn        1 18Z      0.261000
     35 HN06       -8.8460    0.7380    3.5570 hn        1 18Z      0.236500
     36 HN0B       -8.5580   -0.8210    3.5780 hn        1 18Z      0.236500
     37 HN08        5.4280   -2.8380   -5.3670 hn        1 18Z      0.143000
     38 H10         1.7060    1.3000    3.8700 ha        1 18Z      0.166000
     39 H13        -0.8140    1.2200   -0.1330 ha        1 18Z      0.143000
     40 H17        -3.3190    1.5350    0.2090 h1        1 18Z      0.087000
     41 H17A       -2.8480    0.0870    0.6930 h1        1 18Z      0.087000
     42 H19        -4.4670   -1.3380    1.6210 h4        1 18Z      0.164000
     43 H21        -5.1380    2.6530    1.7190 ha        1 18Z      0.175000
     44 H22         3.3760   -0.1580   -0.9490 h1        1 18Z      0.083000
     45 H22A        2.0670   -0.9680   -0.5180 h1        1 18Z      0.083000
     46 H23         1.8400    0.3370   -2.9920 h1        1 18Z      0.084500
     47 H23A        1.3360   -1.1280   -2.6130 h1        1 18Z      0.084500
     48 H24         3.2620    0.2080   -4.8440 h1        1 18Z      0.098000
     49 H24A        2.3370   -1.0630   -5.0770 h1        1 18Z      0.098000
     50 H25         3.9590   -1.7560   -6.3480 h1        1 18Z      0.095750
     51 H25A        5.0190   -0.7720   -5.6750 h1        1 18Z      0.095750
     52 H26         3.7960   -3.9390   -4.7380 h1        1 18Z      0.095750
     53 H26A        4.8000   -3.6870   -3.5240 h1        1 18Z      0.095750
     54 H27         2.2060   -2.7690   -3.8170 h1        1 18Z      0.098000
     55 H27A        3.0180   -3.0040   -2.4720 h1        1 18Z      0.098000
@<TRIPOS>BOND
     1    1   16 1   
     2    1   31 1   
     3    1   32 1   
     4    2   14 1   
     5    2   22 1   
     6    2   33 1   
     7    3   12 1   
     8    3   17 1   
     9    3   34 1   
    10    4   19 1   
    11    5   20 1   
    12    6   20 1   
    13    6   35 1   
    14    6   36 1   
    15    7   23 1   
    16    7   24 1   
    17    7   27 1   
    18    8   25 1   
    19    8   26 1   
    20    8   37 1   
    21    9   29 2   
    22    9   30 2   
    23   10   15 1   
    24   10   38 1   
    25   11   12 1   
    26   11   16 1   
    27   12   13 1   
    28   13   14 1   
    29   13   39 1   
    30   14   15 1   
    31   16   28 1   
    32   17   18 1   
    33   17   40 1   
    34   17   41 1   
    35   18   19 1   
    36   18   21 1   
    37   19   42 1   
    38   21   43 1   
    39   22   23 1   
    40   22   44 1   
    41   22   45 1   
    42   23   46 1   
    43   23   47 1   
    44   24   25 1   
    45   24   48 1   
    46   24   49 1   
    47   25   50 1   
    48   25   51 1   
    49   26   27 1   
    50   26   52 1   
    51   26   53 1   
    52   27   54 1   
    53   27   55 1   
@<TRIPOS>SUBSTRUCTURE
     1 18Z         1 TEMP              0 ****  ****    0 ROOT
