@<TRIPOS>MOLECULE
18Z
   55    57     1     0     0
SMALL
bcc


@<TRIPOS>ATOM
      1 N01        -3.0880    4.4960    0.4600 n         1 18Z     -0.666000
      2 N02         2.4540    1.2070   -0.1730 nh        1 18Z     -0.764600
      3 N03        -2.3190    0.4920    0.1860 nh        1 18Z     -0.753600
      4 N04        -5.5580   -2.2470   -0.8430 nb        1 18Z     -0.753500
      5 N05        -4.9560   -3.1940    1.3580 nb        1 18Z     -0.753500
      6 N06        -6.9620   -3.8390    0.2420 nh        1 18Z     -0.938500
      7 N07         4.4950   -1.9170    0.1780 n3        1 18Z     -0.734600
      8 N08         5.9260   -4.4550   -0.1750 n3        1 18Z     -0.796200
      9 N09         1.9790    4.1350   -0.5610 no        1 18Z      0.336200
     10 C10        -0.4010    3.5930   -0.3510 ca        1 18Z      0.042000
     11 C11        -1.4820    2.7540   -0.1760 ca        1 18Z     -0.280600
     12 C12        -1.2620    1.3410   -0.0200 ca        1 18Z      0.320600
     13 C13         0.0670    0.8710   -0.0330 ca        1 18Z     -0.348000
     14 C14         1.1890    1.7220   -0.1950 ca        1 18Z      0.339600
     15 C15         0.9290    3.1280   -0.3660 ca        1 18Z     -0.342200
     16 C16        -2.8610    3.3090   -0.1890 c         1 18Z      0.689700
     17 C17        -2.1610   -0.9430    0.1810 c3        1 18Z      0.283100
     18 C18        -3.4620   -1.6670    0.2200 ca        1 18Z     -0.423900
     19 C19        -4.4000   -1.5790   -0.8310 ca        1 18Z      0.490200
     20 C20        -5.8110   -3.0670    0.2600 ca        1 18Z      0.886900
     21 C21        -3.8160   -2.4970    1.3040 ca        1 18Z      0.490200
     22 C22         2.7180   -0.2000   -0.0230 c3        1 18Z      0.209800
     23 C23         4.2380   -0.4980   -0.0150 c3        1 18Z      0.160800
     24 C24         5.7530   -2.1640    0.8690 c3        1 18Z      0.133300
     25 C25         6.0560   -3.6690    1.0350 c3        1 18Z      0.150800
     26 C26         4.6760   -4.1840   -0.8560 c3        1 18Z      0.150800
     27 C27         4.3550   -2.6870   -1.0500 c3        1 18Z      0.133300
     28 O28        -3.8170    2.7340   -0.7590 o         1 18Z     -0.643100
     29 O29         1.6620    5.2980   -0.6030 o         1 18Z     -0.242500
     30 O30         3.1390    3.8180   -0.6800 o         1 18Z     -0.242500
     31 HN01       -2.3630    4.9720    0.9310 hn        1 18Z      0.317000
     32 HN0A       -3.9940    4.8950    0.4410 hn        1 18Z      0.317000
     33 HN02        3.2380    1.8030   -0.3320 hn        1 18Z      0.470800
     34 HN03       -3.2430    0.8450    0.0320 hn        1 18Z      0.466800
     35 HN06       -7.6560   -3.6330   -0.4350 hn        1 18Z      0.442300
     36 HN0B       -7.2430   -4.2840    1.0820 hn        1 18Z      0.442300
     37 HN08        6.6980   -4.2690   -0.7890 hn        1 18Z      0.349800
     38 H10        -0.5720    4.6780   -0.5040 ha        1 18Z      0.166000
     39 H13         0.2440   -0.2090    0.0910 ha        1 18Z      0.148000
     40 H17        -1.5940   -1.2640   -0.7450 h1        1 18Z      0.049700
     41 H17A       -1.5380   -1.2360    1.0780 h1        1 18Z      0.049700
     42 H19        -4.2130   -0.9310   -1.7100 h4        1 18Z      0.032600
     43 H21        -3.1480   -2.6090    2.1790 h4        1 18Z      0.032600
     44 H22         2.2670   -0.5650    0.9450 h1        1 18Z      0.053200
     45 H22A        2.2290   -0.7650   -0.8690 h1        1 18Z      0.053200
     46 H23         4.7090    0.0760    0.8340 h1        1 18Z      0.044700
     47 H23A        4.6930   -0.1170   -0.9760 h1        1 18Z      0.044700
     48 H24         6.6220   -1.6750    0.3380 h1        1 18Z      0.035450
     49 H24A        5.6770   -1.7060    1.8940 h1        1 18Z      0.035450
     50 H25         5.3470   -4.1010    1.7960 h1        1 18Z      0.060950
     51 H25A        7.1030   -3.7730    1.4300 h1        1 18Z      0.060950
     52 H26         4.6970   -4.6720   -1.8690 h1        1 18Z      0.060950
     53 H26A        3.8520   -4.6590   -0.2530 h1        1 18Z      0.060950
     54 H27         3.2870   -2.5960   -1.3910 h1        1 18Z      0.035450
     55 H27A        5.0120   -2.2780   -1.8740 h1        1 18Z      0.035450
@<TRIPOS>BOND
     1    1   16 1   
     2    1   31 1   
     3    1   32 1   
     4    2   14 1   
     5    2   22 1   
     6    2   33 1   
     7    3   12 1   
     8    3   17 1   
     9    3   34 1   
    10    4   19 ar  
    11    4   20 ar  
    12    5   20 ar  
    13    5   21 ar  
    14    6   20 1   
    15    6   35 1   
    16    6   36 1   
    17    7   23 1   
    18    7   24 1   
    19    7   27 1   
    20    8   25 1   
    21    8   26 1   
    22    8   37 1   
    23    9   15 1   
    24    9   29 1   
    25    9   30 1   
    26   10   11 ar  
    27   10   15 ar  
    28   10   38 1   
    29   11   12 ar  
    30   11   16 1   
    31   12   13 ar  
    32   13   14 ar  
    33   13   39 1   
    34   14   15 ar  
    35   16   28 2   
    36   17   18 1   
    37   17   40 1   
    38   17   41 1   
    39   18   19 ar  
    40   18   21 ar  
    41   19   42 1   
    42   21   43 1   
    43   22   23 1   
    44   22   44 1   
    45   22   45 1   
    46   23   46 1   
    47   23   47 1   
    48   24   25 1   
    49   24   48 1   
    50   24   49 1   
    51   25   50 1   
    52   25   51 1   
    53   26   27 1   
    54   26   52 1   
    55   26   53 1   
    56   27   54 1   
    57   27   55 1   
@<TRIPOS>SUBSTRUCTURE
     1 18Z         1 TEMP              0 ****  ****    0 ROOT
