@<TRIPOS>MOLECULE
18Z
   56    58     1     0     0
SMALL
bcc


@<TRIPOS>ATOM
      1 N01        -0.2780   -0.0620   -0.0850 nz        1 18Z     -0.762400
      2 N02         4.2370   -0.1440   -4.7980 nu        1 18Z     -0.712600
      3 N03         4.1270    0.3550   -0.0100 nu        1 18Z     -0.732600
      4 N04         6.8860   -0.2350    3.5120 nb        1 18Z     -0.754000
      5 N05         6.6640    2.2170    3.2330 nb        1 18Z     -0.754000
      6 N06         7.4580    1.2680    5.2660 nv        1 18Z     -0.933500
      7 N07         7.6740    0.1320   -6.2590 n3        1 18Z     -0.743600
      8 N08        10.3810   -0.1860   -7.2480 n7        1 18Z     -0.821200
      9 N09         1.2490   -0.4520   -4.8610 no        1 18Z      0.329200
     10 C10         1.3780   -0.1760   -2.4390 ca        1 18Z      0.049000
     11 C11         2.0000    0.0220   -1.1920 ca        1 18Z     -0.351600
     12 C12         3.4490    0.1640   -1.1700 ca        1 18Z      0.355600
     13 C13         4.1380    0.0980   -2.4020 ca        1 18Z     -0.364000
     14 C14         3.5140   -0.0960   -3.6560 ca        1 18Z      0.349600
     15 C15         2.0620   -0.2380   -3.6380 ca        1 18Z     -0.287200
     16 C16         1.2440    0.0820    0.0190 c         1 18Z      0.588700
     17 C17         5.5710    0.5040    0.0540 c3        1 18Z      0.286100
     18 C18         6.0490    0.7060    1.4440 ca        1 18Z     -0.477900
     19 C19         6.4200   -0.3780    2.2710 ca        1 18Z      0.506200
     20 C20         7.0010    1.0810    3.9850 ca        1 18Z      0.914900
     21 C21         6.2050    1.9950    2.0010 ca        1 18Z      0.506200
     22 C22         5.6750    0.0040   -4.8230 c3        1 18Z      0.187800
     23 C23         6.2320   -0.0400   -6.2700 c3        1 18Z      0.164800
     24 C24         8.1550    0.9160   -7.3910 c3        1 18Z      0.170300
     25 C25         9.6890    1.0770   -7.3960 c3        1 18Z      0.163800
     26 C26         9.9210   -0.9530   -6.1100 c3        1 18Z      0.163800
     27 C27         8.3890   -1.1280   -6.1000 c3        1 18Z      0.170300
     28 O28         1.5810    0.2350    1.1940 o         1 18Z     -0.497100
     29 O29         0.0560   -0.5500   -4.7250 o         1 18Z     -0.205000
     30 O30         1.7660   -0.5230   -5.9420 o         1 18Z     -0.205000
     31 HN01       -0.6820    0.0090    0.8570 hn        1 18Z      0.463133
     32 HN0A       -0.5210   -0.9690   -0.4880 hn        1 18Z      0.463133
     33 HN02        3.7860   -0.2860   -5.6800 hn        1 18Z      0.482800
     34 HN03        3.6400    0.4010    0.8610 hn        1 18Z      0.467800
     35 HN06        7.7530    0.4900    5.8040 hn        1 18Z      0.460800
     36 HN0B        7.6000    2.1860    5.6110 hn        1 18Z      0.460800
     37 HN08       11.3720   -0.0390   -7.1950 hn        1 18Z      0.375800
     38 H10         0.2770   -0.2920   -2.4940 ha        1 18Z      0.145000
     39 H13         5.2360    0.2040   -2.3880 ha        1 18Z      0.170000
     40 H17         5.8700    1.3890   -0.5840 h1        1 18Z      0.064200
     41 H17A        6.0480   -0.4220   -0.3830 h1        1 18Z      0.064200
     42 H19         6.3430   -1.4220    1.9110 h4        1 18Z      0.029100
     43 H21         5.9510    2.9020    1.4190 h4        1 18Z      0.029100
     44 H22         5.9550    0.9900   -4.3490 h1        1 18Z      0.067200
     45 H22A        6.1400   -0.8250   -4.2150 h1        1 18Z      0.067200
     46 H23         5.7560    0.7950   -6.8600 h1        1 18Z      0.050200
     47 H23A        5.9240   -1.0150   -6.7500 h1        1 18Z      0.050200
     48 H24         7.7010    1.9440   -7.3160 h1        1 18Z      0.040200
     49 H24A        7.8360    0.4620   -8.3730 h1        1 18Z      0.040200
     50 H25         9.9700    1.8170   -6.5910 h1        1 18Z      0.040200
     51 H25A        9.9840    1.5160   -8.3890 h1        1 18Z      0.040200
     52 H26        10.3850   -1.9770   -6.1740 h1        1 18Z      0.040200
     53 H26A       10.2320   -0.4920   -5.1260 h1        1 18Z      0.040200
     54 H27         8.0950   -1.5670   -5.1060 h1        1 18Z      0.040200
     55 H27A        8.1060   -1.8700   -6.9040 h1        1 18Z      0.040200
     56 H013       -0.6640    0.6800   -0.6730 hn        1 18Z      0.463133
@<TRIPOS>BOND
     1    1   16 1   
     2    1   31 1   
     3    1   32 1   
     4    1   56 1   
     5    2   14 1   
     6    2   22 1   
     7    2   33 1   
     8    3   12 1   
     9    3   17 1   
    10    3   34 1   
    11    4   19 ar  
    12    4   20 ar  
    13    5   20 ar  
    14    5   21 ar  
    15    6   20 1   
    16    6   35 1   
    17    6   36 1   
    18    7   23 1   
    19    7   24 1   
    20    7   27 1   
    21    8   25 1   
    22    8   26 1   
    23    8   37 1   
    24    9   15 1   
    25    9   29 1   
    26    9   30 1   
    27   10   11 ar  
    28   10   15 ar  
    29   10   38 1   
    30   11   12 ar  
    31   11   16 1   
    32   12   13 ar  
    33   13   14 ar  
    34   13   39 1   
    35   14   15 ar  
    36   16   28 2   
    37   17   18 1   
    38   17   40 1   
    39   17   41 1   
    40   18   19 ar  
    41   18   21 ar  
    42   19   42 1   
    43   21   43 1   
    44   22   23 1   
    45   22   44 1   
    46   22   45 1   
    47   23   46 1   
    48   23   47 1   
    49   24   25 1   
    50   24   48 1   
    51   24   49 1   
    52   25   50 1   
    53   25   51 1   
    54   26   27 1   
    55   26   52 1   
    56   26   53 1   
    57   27   54 1   
    58   27   55 1   
@<TRIPOS>SUBSTRUCTURE
     1 18Z         1 TEMP              0 ****  ****    0 ROOT
