@<TRIPOS>MOLECULE
190
   78    80     1     0     0
SMALL
bcc


@<TRIPOS>ATOM
      1 C4         -0.4060   -1.8160   -0.2620 ca        1 190      0.041100
      2 C3         -0.1830   -2.8740    0.6370 ca        1 190     -0.066300
      3 C8         -0.6680   -4.2450    0.3590 c3        1 190     -0.050300
      4 C2          0.5400   -2.6070    1.8050 ca        1 190     -0.121000
      5 C1          1.0200   -1.3260    2.0650 ca        1 190     -0.097000
      6 C6          0.7890   -0.2890    1.1630 ca        1 190     -0.121000
      7 C5          0.0710   -0.5170   -0.0160 ca        1 190     -0.066300
      8 C7         -0.1400    0.5950   -0.9700 c3        1 190     -0.050300
      9 O9         -1.0280   -2.1010   -1.4840 os        1 190     -0.351900
     10 C10        -2.4440   -1.9770   -1.4630 c3        1 190      0.062400
     11 C11        -2.8720   -0.9790   -2.5280 c         1 190      0.525100
     12 O12        -3.7780   -0.1640   -2.4490 o         1 190     -0.414100
     13 N13        -2.1130   -1.0340   -3.8310 n4        1 190     -0.674800
     14 C14        -2.9830   -1.4760   -4.9810 c3        1 190      0.137500
     15 C16        -2.2640   -1.2720   -6.3190 c3        1 190     -0.056100
     16 C15        -1.5860    0.0470   -6.4340 ca        1 190     -0.151300
     17 C42        -0.2440    0.1100   -6.8270 ca        1 190     -0.106000
     18 C43         0.3790    1.3470   -6.9840 ca        1 190     -0.117000
     19 C44        -0.3240    2.5270   -6.7460 ca        1 190     -0.082000
     20 C45        -1.6670    2.4710   -6.3530 ca        1 190     -0.025900
     21 C46        -2.2960    1.2320   -6.2060 ca        1 190     -0.127000
     22 C23        -3.3920   -2.9580   -4.7710 c3        1 190      0.118100
     23 O38        -2.1850   -3.7010   -4.7430 oh        1 190     -0.621800
     24 C24        -4.3490   -3.4290   -5.8610 c3        1 190     -0.079400
     25 C25        -4.7340   -4.8980   -5.7380 c3        1 190     -0.258900
     26 S30        -5.3410   -5.2650   -4.1410 sy        1 190      1.366300
     27 O39        -6.3720   -4.3690   -3.8250 o         1 190     -0.673300
     28 O40        -4.1860   -5.1770   -3.3120 o         1 190     -0.673300
     29 C31        -5.8670   -6.8210   -4.2440 ca        1 190     -0.440500
     30 C32        -4.9750   -7.8990   -4.1160 ca        1 190      0.018500
     31 C33        -5.4140   -9.2130   -4.1440 ca        1 190     -0.192000
     32 C34        -6.7920   -9.4770   -4.3000 ca        1 190      0.223900
     33 F37        -7.2330  -10.7480   -4.3310 f         1 190     -0.106900
     34 C35        -7.7070   -8.4100   -4.4210 ca        1 190     -0.192000
     35 C36        -7.2370   -7.1060   -4.3910 ca        1 190      0.018500
     36 C26        -5.6990   -5.2500   -6.8610 c3        1 190     -0.051400
     37 C27        -5.0180   -5.4780   -8.2040 c3        1 190     -0.062700
     38 C28        -4.3370   -6.8300   -8.2620 c3        1 190     -0.094600
     39 C29        -6.0380   -5.3640   -9.3200 c3        1 190     -0.094600
     40 H81        -0.8910   -4.7900    1.3100 hc        1 190      0.048200
     41 H82         0.1170   -4.8170   -0.1990 hc        1 190      0.048200
     42 H83        -1.5940   -4.2250   -0.2670 hc        1 190      0.048200
     43 H2          0.7290   -3.4220    2.5220 ha        1 190      0.151500
     44 H1          1.5870   -1.1300    2.9900 ha        1 190      0.153000
     45 H6          1.1740    0.7210    1.3750 ha        1 190      0.151500
     46 H71         0.7540    0.7030   -1.6340 hc        1 190      0.048200
     47 H72        -1.0360    0.4070   -1.6130 hc        1 190      0.048200
     48 H73        -0.2930    1.5610   -0.4270 hc        1 190      0.048200
     49 H101       -2.8450   -1.6320   -0.4720 h1        1 190      0.124700
     50 H102       -2.8710   -2.9860   -1.7400 h1        1 190      0.124700
     51 H13        -1.7340   -0.1020   -4.0510 hn        1 190      0.477800
     52 H14        -3.9170   -0.8380   -4.9450 hx        1 190      0.114700
     53 H161       -3.0430   -1.3530   -7.1280 hc        1 190      0.098200
     54 H162       -1.5300   -2.1110   -6.4730 hc        1 190      0.098200
     55 H42         0.3170   -0.8160   -7.0300 ha        1 190      0.149000
     56 H43         1.4320    1.3940   -7.3050 ha        1 190      0.159000
     57 H44         0.1790    3.5000   -6.8770 ha        1 190      0.167000
     58 H46        -3.3640    1.1860   -5.9360 ha        1 190      0.147000
     59 H23        -3.9150   -3.0300   -3.7690 h1        1 190      0.060700
     60 H38        -2.3710   -4.5360   -4.2830 ho        1 190      0.458000
     61 H241       -3.8730   -3.2760   -6.8660 hc        1 190      0.079200
     62 H242       -5.2770   -2.7970   -5.8150 hc        1 190      0.079200
     63 H25        -3.7930   -5.5020   -5.8990 h1        1 190      0.116700
     64 H32        -3.8980   -7.6920   -3.9720 ha        1 190      0.161000
     65 H33        -4.7070  -10.0510   -4.0400 ha        1 190      0.173000
     66 H35        -8.7810   -8.6220   -4.5330 ha        1 190      0.173000
     67 H36        -7.9550   -6.2680   -4.4680 ha        1 190      0.161000
     68 H261       -6.2640   -6.1840   -6.5910 hc        1 190      0.057700
     69 H262       -6.4520   -4.4230   -6.9670 hc        1 190      0.057700
     70 H27        -4.2360   -4.6810   -8.3570 hc        1 190      0.043700
     71 H281       -3.5630   -6.9230   -7.4630 hc        1 190      0.040700
     72 H282       -5.0810   -7.6520   -8.1320 hc        1 190      0.040700
     73 H283       -3.8360   -6.9640   -9.2520 hc        1 190      0.040700
     74 H291       -5.5490   -5.5460  -10.3070 hc        1 190      0.040700
     75 H292       -6.8530   -6.1150   -9.1850 hc        1 190      0.040700
     76 H293       -6.4940   -4.3450   -9.3340 hc        1 190      0.040700
     77 BR17       -2.6220    4.0440   -6.0340 br        1 190     -0.042100
     78 H132       -1.3320   -1.7040   -3.7360 hn        1 190      0.477800
@<TRIPOS>BOND
     1    1    2 ar  
     2    1    7 ar  
     3    1    9 1   
     4    2    3 1   
     5    2    4 ar  
     6    3   40 1   
     7    3   41 1   
     8    3   42 1   
     9    4    5 ar  
    10    4   43 1   
    11    5    6 ar  
    12    5   44 1   
    13    6    7 ar  
    14    6   45 1   
    15    7    8 1   
    16    8   46 1   
    17    8   47 1   
    18    8   48 1   
    19    9   10 1   
    20   10   11 1   
    21   10   49 1   
    22   10   50 1   
    23   11   12 2   
    24   11   13 1   
    25   13   14 1   
    26   13   51 1   
    27   13   78 1   
    28   14   15 1   
    29   14   22 1   
    30   14   52 1   
    31   15   16 1   
    32   15   53 1   
    33   15   54 1   
    34   16   17 ar  
    35   16   21 ar  
    36   17   18 ar  
    37   17   55 1   
    38   18   19 ar  
    39   18   56 1   
    40   19   20 ar  
    41   19   57 1   
    42   20   21 ar  
    43   20   77 1   
    44   21   58 1   
    45   22   23 1   
    46   22   24 1   
    47   22   59 1   
    48   23   60 1   
    49   24   25 1   
    50   24   61 1   
    51   24   62 1   
    52   25   26 1   
    53   25   36 1   
    54   25   63 1   
    55   26   27 2   
    56   26   28 2   
    57   26   29 1   
    58   29   30 ar  
    59   29   35 ar  
    60   30   31 ar  
    61   30   64 1   
    62   31   32 ar  
    63   31   65 1   
    64   32   33 1   
    65   32   34 ar  
    66   34   35 ar  
    67   34   66 1   
    68   35   67 1   
    69   36   37 1   
    70   36   68 1   
    71   36   69 1   
    72   37   38 1   
    73   37   39 1   
    74   37   70 1   
    75   38   71 1   
    76   38   72 1   
    77   38   73 1   
    78   39   74 1   
    79   39   75 1   
    80   39   76 1   
@<TRIPOS>SUBSTRUCTURE
     1 190         1 TEMP              0 ****  ****    0 ROOT
