@<TRIPOS>MOLECULE
190
   77    72     1     0     0
SMALL
bcc


@<TRIPOS>ATOM
      1 C4          1.2690    0.7800    4.6410 c1        1 190      0.021000
      2 C3          2.0910    1.1180    5.7050 c1        1 190     -0.083000
      3 C8          2.8830    2.4030    5.6680 c3        1 190     -0.184000
      4 C2          2.1090    0.3280    6.8440 c1        1 190     -0.129000
      5 C1          1.3050   -0.7990    6.9190 c1        1 190     -0.128500
      6 C6          0.4840   -1.1360    5.8550 c1        1 190     -0.128500
      7 C5          0.4650   -0.3470    4.7160 c1        1 190     -0.067000
      8 C7         -0.5060   -0.6540    3.6010 c3        1 190     -0.191000
      9 O9          1.2780    1.5640    3.4670 os        1 190     -0.207000
     10 C10         2.2530    1.1690    2.5230 c3        1 190     -0.044000
     11 C11         1.8560    1.6710    1.1440 c2        1 190      0.276000
     12 O12         1.1140    2.6270    1.0360 o         1 190     -0.363000
     13 N13         2.4090    1.0630   -0.0210 n         1 190     -0.369000
     14 C14         1.6820    1.0800   -1.2460 c3        1 190      0.028000
     15 C16         2.6490    1.1660   -2.4040 c3        1 190     -0.128000
     16 C15         3.0030    2.6140   -2.6600 c2        1 190     -0.065000
     17 C42         4.3330    3.0010   -2.7130 c2        1 190     -0.114000
     18 C43         4.6640    4.2970   -3.0740 c1        1 190     -0.131000
     19 C44         3.6650    5.2080   -3.3810 c1        1 190     -0.107000
     20 BR17        0.9580    6.0800   -3.7460 br        1 190      0.049000
     21 C45         2.3360    4.8220   -3.3280 c2        1 190     -0.161000
     22 C46         2.0040    3.5260   -2.9670 c2        1 190     -0.099000
     23 C23         0.8670   -0.1860   -1.3640 c3        1 190     -0.003000
     24 O38         1.5370   -1.0990   -2.2010 oh        1 190     -0.345000
     25 C24        -0.4870    0.1400   -1.9540 c3        1 190     -0.157000
     26 C25        -1.4190   -1.0350   -1.7550 c3        1 190     -0.767000
     27 S30        -1.8960   -1.1280   -0.0500 s4        1 190      2.047800
     28 O39        -2.4650    0.1120    0.4000 o         1 190     -0.547900
     29 O40        -0.7490   -1.2360    0.8070 o         1 190     -0.547900
     30 C31        -3.0160   -2.4790    0.2010 c1        1 190     -0.845000
     31 C32        -2.5240   -3.7660    0.3530 c2        1 190      0.010000
     32 C33        -3.3850   -4.8050    0.6690 c1        1 190     -0.194000
     33 C34        -4.7380   -4.5580    0.8330 c1        1 190      0.162000
     34 F37        -5.5660   -5.5580    1.1600 f         1 190     -0.091000
     35 C35        -5.2320   -3.2720    0.6810 c1        1 190     -0.194000
     36 C36        -4.3710   -2.2330    0.3650 c1        1 190      0.009000
     37 C26        -2.6520   -0.8530   -2.6160 c3        1 190     -0.124000
     38 C27        -2.3990   -1.4400   -3.9910 c3        1 190     -0.103000
     39 C28        -3.0610   -2.7980   -4.0890 c3        1 190     -0.209500
     40 C29        -2.9760   -0.5210   -5.0460 c3        1 190     -0.209500
     41 H81         2.3110    3.1300    5.3440 hc        1 190      0.089333
     42 H82         3.6490    2.2970    5.0660 hc        1 190      0.089333
     43 H83         3.2030    2.6160    6.5690 hc        1 190      0.089333
     44 H2          2.6870    0.5650    7.5940 ha        1 190      0.135000
     45 H1          1.3180   -1.3550    7.7220 ha        1 190      0.136000
     46 H6         -0.0820   -1.9300    5.9080 ha        1 190      0.136000
     47 H71        -0.8790    0.1820    3.2530 hc        1 190      0.098000
     48 H72        -1.2320   -1.2160    3.9460 hc        1 190      0.098000
     49 H73        -0.0390   -1.1280    2.8830 hc        1 190      0.098000
     50 H101        3.1210    1.5500    2.7710 h1        1 190      0.124000
     51 H102        2.3180    0.1920    2.5080 h1        1 190      0.124000
     52 H13         3.2240    0.6570    0.0200 hn        1 190      0.235000
     53 H14         1.0850    1.8550   -1.2600 h1        1 190      0.133000
     54 H161        3.4600    0.6650   -2.1890 hc        1 190      0.104500
     55 H162        2.2330    0.7850   -3.2050 hc        1 190      0.104500
     56 H42         5.0360    2.3600   -2.4970 ha        1 190      0.135000
     57 H43         5.6010    4.5690   -3.1120 ha        1 190      0.135000
     58 H44         3.8990    6.1210   -3.6350 ha        1 190      0.145000
     59 H46         1.0670    3.2540   -2.9300 ha        1 190      0.146000
     60 H23         0.7490   -0.5820   -0.4780 h1        1 190      0.109000
     61 H38         1.8320   -1.7830   -1.7170 ho        1 190      0.224000
     62 H241       -0.3910    0.3210   -2.9100 hc        1 190      0.106000
     63 H242       -0.8560    0.9280   -1.5080 hc        1 190      0.106000
     64 H25        -0.9630   -1.8580   -2.0110 h1        1 190      0.166000
     65 H32        -1.5700   -3.9400    0.2370 ha        1 190      0.154000
     66 H33        -3.0370   -5.7120    0.7760 ha        1 190      0.161000
     67 H35        -6.1850   -3.0980    0.7970 ha        1 190      0.162000
     68 H36        -4.7190   -1.3270    0.2580 ha        1 190      0.167000
     69 H261       -2.8520    0.1010   -2.7010 hc        1 190      0.090500
     70 H262       -3.4090   -1.3090   -2.2000 hc        1 190      0.090500
     71 H27        -1.4390   -1.5360   -4.1330 hc        1 190      0.093000
     72 H281       -4.0290   -2.6990   -3.9680 hc        1 190      0.075167
     73 H282       -2.7030   -3.3860   -3.3910 hc        1 190      0.075167
     74 H283       -2.8790   -3.1870   -4.9700 hc        1 190      0.075167
     75 H291       -2.6570    0.3930   -4.8930 hc        1 190      0.075167
     76 H292       -2.6890   -0.8220   -5.9340 hc        1 190      0.075167
     77 H293       -3.9550   -0.5390   -4.9960 hc        1 190      0.075167
@<TRIPOS>BOND
     1    1    7 1   
     2    1    9 1   
     3    2    3 1   
     4    2    4 1   
     5    3   41 1   
     6    3   42 1   
     7    3   43 1   
     8    4   44 1   
     9    5    6 1   
    10    5   45 1   
    11    6   46 1   
    12    7    8 1   
    13    8   47 1   
    14    8   48 1   
    15    8   49 1   
    16    9   10 1   
    17   10   11 1   
    18   10   50 1   
    19   10   51 1   
    20   11   12 1   
    21   11   13 1   
    22   13   14 1   
    23   13   52 1   
    24   14   15 1   
    25   14   23 1   
    26   14   53 1   
    27   15   16 1   
    28   15   54 1   
    29   15   55 1   
    30   16   17 1   
    31   16   22 1   
    32   17   18 1   
    33   17   56 1   
    34   18   57 1   
    35   19   21 1   
    36   19   58 1   
    37   20   21 1   
    38   21   22 1   
    39   22   59 1   
    40   23   24 1   
    41   23   25 1   
    42   23   60 1   
    43   24   61 1   
    44   25   26 1   
    45   25   62 1   
    46   25   63 1   
    47   26   27 1   
    48   26   37 1   
    49   26   64 1   
    50   27   28 1   
    51   27   29 1   
    52   30   31 1   
    53   30   36 1   
    54   31   32 1   
    55   31   65 1   
    56   32   66 1   
    57   33   34 1   
    58   33   35 1   
    59   35   67 1   
    60   36   68 1   
    61   37   38 1   
    62   37   69 1   
    63   37   70 1   
    64   38   39 1   
    65   38   40 1   
    66   38   71 1   
    67   39   72 1   
    68   39   73 1   
    69   39   74 1   
    70   40   75 1   
    71   40   76 1   
    72   40   77 1   
@<TRIPOS>SUBSTRUCTURE
     1 190         1 TEMP              0 ****  ****    0 ROOT
