@<TRIPOS>MOLECULE
190
   77    79     1     0     0
SMALL
bcc


@<TRIPOS>ATOM
      1 C4         -4.5180   -3.2120    0.6300 ca        1 190      0.080100
      2 C3         -3.9940   -4.2500    1.4230 ca        1 190     -0.076300
      3 C8         -2.5740   -4.2630    1.8410 c3        1 190     -0.056300
      4 C2         -4.8550   -5.2750    1.8310 ca        1 190     -0.129500
      5 C1         -6.1960   -5.2660    1.4580 ca        1 190     -0.123000
      6 C6         -6.7020   -4.2310    0.6730 ca        1 190     -0.129500
      7 C5         -5.8710   -3.1900    0.2460 ca        1 190     -0.076300
      8 C7         -6.4150   -2.0980   -0.5920 c3        1 190     -0.056300
      9 O9         -3.6930   -2.1340    0.3130 os        1 190     -0.354900
     10 C10        -3.1390   -2.2320   -1.0060 c3        1 190      0.055400
     11 C11        -2.1170   -1.1170   -1.2150 c         1 190      0.665100
     12 O12        -1.9140   -0.6960   -2.3710 o         1 190     -0.606100
     13 N13        -1.4070   -0.6620   -0.1280 n         1 190     -0.551900
     14 C14        -0.4160    0.3810   -0.2180 c3        1 190      0.083700
     15 C16        -0.8030    1.6340    0.5950 c3        1 190     -0.059100
     16 C15        -1.9660    2.3570    0.0160 ca        1 190     -0.079300
     17 C42        -3.2220    2.2870    0.6270 ca        1 190     -0.108000
     18 C43        -4.3010    2.9880    0.0910 ca        1 190     -0.129000
     19 C44        -4.1380    3.7660   -1.0540 ca        1 190     -0.103000
     20 C45        -2.8840    3.8400   -1.6670 ca        1 190     -0.020900
     21 C46        -1.8020    3.1350   -1.1360 ca        1 190     -0.095000
     22 C23         0.9770   -0.1400    0.2470 c3        1 190      0.105100
     23 O38         1.0660   -0.1910    1.6590 oh        1 190     -0.598800
     24 C24         2.0890    0.7050   -0.3740 c3        1 190     -0.084400
     25 C25         3.4670    0.2800    0.1080 c3        1 190     -0.270900
     26 S30         4.0950   -0.9950   -0.8920 sy        1 190      1.370300
     27 O39         4.6730   -0.4450   -2.0460 o         1 190     -0.649800
     28 O40         3.0930   -1.9610   -1.0680 o         1 190     -0.649800
     29 C31         5.2900   -1.6040    0.1130 ca        1 190     -0.401500
     30 C32         4.9680   -2.5010    1.1410 ca        1 190      0.008500
     31 C33         5.9480   -3.0430    1.9620 ca        1 190     -0.194500
     32 C34         7.2950   -2.6850    1.7520 ca        1 190      0.193900
     33 F37         8.2590   -3.2020    2.5450 f         1 190     -0.127900
     34 C35         7.6390   -1.7930    0.7180 ca        1 190     -0.194500
     35 C36         6.6360   -1.2680   -0.0860 ca        1 190      0.008500
     36 C26         4.4120    1.4700    0.1420 c3        1 190     -0.045400
     37 C27         4.1960    2.3800    1.3430 c3        1 190     -0.061700
     38 C28         4.8360    1.8120    2.5930 c3        1 190     -0.092600
     39 C29         4.7520    3.7600    1.0540 c3        1 190     -0.092600
     40 H81        -2.4920   -3.9700    2.9180 hc        1 190      0.050200
     41 H82        -2.1380   -5.2860    1.7220 hc        1 190      0.050200
     42 H83        -1.9700   -3.5420    1.2350 hc        1 190      0.050200
     43 H2         -4.4610   -6.0930    2.4520 ha        1 190      0.135500
     44 H1         -6.8610   -6.0790    1.7850 ha        1 190      0.134000
     45 H6         -7.7640   -4.2270    0.3850 ha        1 190      0.135500
     46 H71        -7.4800   -1.8870   -0.3260 hc        1 190      0.050200
     47 H72        -5.8210   -1.1600   -0.4580 hc        1 190      0.050200
     48 H73        -6.3750   -2.3880   -1.6730 hc        1 190      0.050200
     49 H101       -3.9600   -2.1160   -1.7630 h1        1 190      0.072200
     50 H102       -2.6240   -3.2200   -1.1390 h1        1 190      0.072200
     51 H13        -1.6490   -0.9880    0.7790 hn        1 190      0.328500
     52 H14        -0.3240    0.6780   -1.3080 h1        1 190      0.099700
     53 H161       -1.0230    1.3420    1.6570 hc        1 190      0.054200
     54 H162        0.0840    2.3230    0.6130 hc        1 190      0.054200
     55 H42        -3.3610    1.6720    1.5300 ha        1 190      0.137000
     56 H43        -5.2880    2.9270    0.5730 ha        1 190      0.137000
     57 H44        -4.9970    4.3160   -1.4680 ha        1 190      0.146000
     58 H46        -0.8140    3.1810   -1.6220 ha        1 190      0.145000
     59 H23         1.1130   -1.2180   -0.0700 h1        1 190      0.119700
     60 H38         1.1130    0.7160    1.9850 ho        1 190      0.397000
     61 H241        1.9230    1.7870   -0.1260 hc        1 190      0.063700
     62 H242        2.0310    0.6100   -1.4920 hc        1 190      0.063700
     63 H25         3.3510   -0.0970    1.1670 h1        1 190      0.124700
     64 H32         3.9120   -2.7920    1.2900 ha        1 190      0.163000
     65 H33         5.6880   -3.7470    2.7650 ha        1 190      0.160000
     66 H35         8.6940   -1.5260    0.5540 ha        1 190      0.160000
     67 H36         6.9020   -0.5800   -0.9110 ha        1 190      0.163000
     68 H261        4.2840    2.0610   -0.8050 hc        1 190      0.054200
     69 H262        5.4730    1.0960    0.1570 hc        1 190      0.054200
     70 H27         3.0870    2.4750    1.5270 hc        1 190      0.042700
     71 H281        4.6370    2.4810    3.4650 hc        1 190      0.036700
     72 H282        4.4230    0.8010    2.8240 hc        1 190      0.036700
     73 H283        5.9410    1.7230    2.4630 hc        1 190      0.036700
     74 H291        5.8420    3.7010    0.8200 hc        1 190      0.036700
     75 H292        4.2270    4.2190    0.1820 hc        1 190      0.036700
     76 H293        4.6160    4.4240    1.9410 hc        1 190      0.036700
     77 BR17       -2.6540    4.8860   -3.2040 br        1 190     -0.088100
@<TRIPOS>BOND
     1    1    2 ar  
     2    1    7 ar  
     3    1    9 1   
     4    2    3 1   
     5    2    4 ar  
     6    3   40 1   
     7    3   41 1   
     8    3   42 1   
     9    4    5 ar  
    10    4   43 1   
    11    5    6 ar  
    12    5   44 1   
    13    6    7 ar  
    14    6   45 1   
    15    7    8 1   
    16    8   46 1   
    17    8   47 1   
    18    8   48 1   
    19    9   10 1   
    20   10   11 1   
    21   10   49 1   
    22   10   50 1   
    23   11   12 2   
    24   11   13 1   
    25   13   14 1   
    26   13   51 1   
    27   14   15 1   
    28   14   22 1   
    29   14   52 1   
    30   15   16 1   
    31   15   53 1   
    32   15   54 1   
    33   16   17 ar  
    34   16   21 ar  
    35   17   18 ar  
    36   17   55 1   
    37   18   19 ar  
    38   18   56 1   
    39   19   20 ar  
    40   19   57 1   
    41   20   21 ar  
    42   20   77 1   
    43   21   58 1   
    44   22   23 1   
    45   22   24 1   
    46   22   59 1   
    47   23   60 1   
    48   24   25 1   
    49   24   61 1   
    50   24   62 1   
    51   25   26 1   
    52   25   36 1   
    53   25   63 1   
    54   26   27 2   
    55   26   28 2   
    56   26   29 1   
    57   29   30 ar  
    58   29   35 ar  
    59   30   31 ar  
    60   30   64 1   
    61   31   32 ar  
    62   31   65 1   
    63   32   33 1   
    64   32   34 ar  
    65   34   35 ar  
    66   34   66 1   
    67   35   67 1   
    68   36   37 1   
    69   36   68 1   
    70   36   69 1   
    71   37   38 1   
    72   37   39 1   
    73   37   70 1   
    74   38   71 1   
    75   38   72 1   
    76   38   73 1   
    77   39   74 1   
    78   39   75 1   
    79   39   76 1   
@<TRIPOS>SUBSTRUCTURE
     1 190         1 TEMP              0 ****  ****    0 ROOT
