@<TRIPOS>MOLECULE
192
   16    16     1     0     0
SMALL
bcc


@<TRIPOS>ATOM
      1 N          -0.2540    1.8380    0.3020 n3        1 192     -0.880800
      2 O           1.0540   -1.3810   -0.8310 o         1 192     -0.842300
      3 CA         -0.3540    0.4200   -0.0020 cy        1 192      0.024200
      4 C           1.0240   -0.2770   -0.2210 c         1 192      0.895600
      5 CB1        -1.2340   -0.3930    1.0100 cy        1 192     -0.071900
      6 CG         -2.2430   -0.7090   -0.1080 cy        1 192     -0.091400
      7 CB2        -1.3850    0.0640   -1.1250 cy        1 192     -0.071900
      8 OXT         2.0520    0.3080    0.2310 o         1 192     -0.842300
      9 H           0.4300    1.9340    1.0350 hn        1 192      0.334300
     10 HN2         0.1320    2.2910   -0.5080 hn        1 192      0.334300
     11 HB11       -0.7020   -1.2850    1.4010 hc        1 192      0.041700
     12 HB12       -1.6560    0.2000    1.8480 hc        1 192      0.041700
     13 HG1        -2.3410   -1.7920   -0.3340 hc        1 192      0.023200
     14 HG2        -3.2510   -0.2720    0.0580 hc        1 192      0.023200
     15 HB21       -1.9010    0.9320   -1.5850 hc        1 192      0.041700
     16 HB22       -0.9300   -0.5810   -1.9080 hc        1 192      0.041700
@<TRIPOS>BOND
     1    1    3 1   
     2    1    9 1   
     3    1   10 1   
     4    2    4 1   
     5    3    4 1   
     6    3    5 1   
     7    3    7 1   
     8    4    8 1   
     9    5    6 1   
    10    5   11 1   
    11    5   12 1   
    12    6    7 1   
    13    6   13 1   
    14    6   14 1   
    15    7   15 1   
    16    7   16 1   
@<TRIPOS>SUBSTRUCTURE
     1 192         1 TEMP              0 ****  ****    0 ROOT
