@<TRIPOS>MOLECULE
193
   27    26     1     0     0
SMALL
bcc


@<TRIPOS>ATOM
      1 N           0.1940    3.2990    0.6750 n3        1 193     -0.890800
      2 CA         -0.1940    2.2430   -0.2570 c3        1 193      0.021500
      3 CB         -0.1900    0.8710    0.4260 c3        1 193     -0.057400
      4 CG         -0.8970   -0.2250   -0.3690 c3        1 193      0.081000
      5 ND         -0.4910   -0.3040   -1.7520 n         1 193     -0.530900
      6 CE         -0.8810   -1.3760   -2.5300 c         1 193      0.642100
      7 OE         -1.1660   -2.4950   -2.0470 o         1 193     -0.650100
      8 CZ         -0.8600   -1.1730   -4.0380 c3        1 193     -0.152400
      9 CT         -2.0130   -0.2570   -4.4520 c3        1 193      0.123800
     10 NH         -1.9730    0.0950   -5.8580 n3        1 193     -0.910800
     11 C          -1.5670    2.5230   -0.9450 c         1 193      0.883600
     12 O          -2.4950    3.0220   -0.2530 o         1 193     -0.845800
     13 OXT        -1.6610    2.2690   -2.1840 o         1 193     -0.845800
     14 H           0.1580    4.1710    0.1780 hn        1 193      0.332800
     15 HN2        -0.5060    3.3520    1.3970 hn        1 193      0.332800
     16 HA          0.5900    2.2310   -1.0700 h1        1 193      0.043700
     17 HB2         0.8710    0.5670    0.6250 hc        1 193      0.032700
     18 HB1        -0.7160    0.9330    1.4160 hc        1 193      0.032700
     19 HG2        -0.6950   -1.2210    0.1170 h1        1 193      0.044200
     20 HG1        -2.0100   -0.0300   -0.3140 h1        1 193      0.044200
     21 HD         -0.4780    0.5930   -2.2150 hn        1 193      0.342500
     22 HZ2         0.1250   -0.7370   -4.3480 hc        1 193      0.057700
     23 HZ1        -0.9640   -2.1750   -4.5290 hc        1 193      0.057700
     24 HT2        -2.0180    0.6600   -3.7840 h1        1 193      0.067700
     25 HT1        -2.9820   -0.8050   -4.2720 h1        1 193      0.067700
     26 HH         -1.1020    0.5400   -6.0740 hn        1 193      0.337800
     27 HH2        -2.7100    0.7470   -6.0500 hn        1 193      0.337800
@<TRIPOS>BOND
     1    1    2 1   
     2    1   14 1   
     3    1   15 1   
     4    2    3 1   
     5    2   11 1   
     6    2   16 1   
     7    3    4 1   
     8    3   17 1   
     9    3   18 1   
    10    4    5 1   
    11    4   19 1   
    12    4   20 1   
    13    5    6 1   
    14    5   21 1   
    15    6    7 2   
    16    6    8 1   
    17    8    9 1   
    18    8   22 1   
    19    8   23 1   
    20    9   10 1   
    21    9   24 1   
    22    9   25 1   
    23   10   26 1   
    24   10   27 1   
    25   11   12 1   
    26   11   13 1   
@<TRIPOS>SUBSTRUCTURE
     1 193         1 TEMP              0 ****  ****    0 ROOT
