@<TRIPOS>MOLECULE
194
   43    38     1     0     0
SMALL
bcc


@<TRIPOS>ATOM
      1 C1         -2.6980   -1.0930   -3.7960 c1        1 194     -0.129500
      2 C2         -2.6390   -0.2210   -2.7190 c1        1 194     -0.187000
      3 C3         -1.9130   -0.5630   -1.5890 c1        1 194     -0.054000
      4 C4         -1.2460   -1.7770   -1.5350 c1        1 194     -0.129500
      5 C5         -1.3040   -2.6490   -2.6120 c1        1 194     -0.042500
      6 C6         -2.0310   -2.3070   -3.7430 c1        1 194     -0.042500
      7 C10        -2.0600   -3.2400   -4.9350 c2        1 194      0.375500
      8 O1         -3.0760   -3.9460   -5.1550 o         1 194     -0.572250
      9 O2         -1.0750   -3.2940   -5.7160 o         1 194     -0.572250
     10 C20        -0.6430   -4.0080   -2.5220 c2        1 194      0.375500
     11 O5          0.5900   -4.1210   -2.7330 o         1 194     -0.572250
     12 O4         -1.3310   -5.0260   -2.2530 o         1 194     -0.572250
     13 O3         -1.7960    0.3530   -0.5250 os        1 194     -0.189000
     14 C31        -1.0730    1.4820   -0.9540 c2        1 194      0.094000
     15 C34         0.0520    1.8900   -0.2560 c2        1 194     -0.023000
     16 C35         0.8150    2.9460   -0.7290 c1        1 194     -0.104000
     17 C36         0.4540    3.5920   -1.8980 c1        1 194     -0.123750
     18 C37        -0.6710    3.1840   -2.5970 c1        1 194     -0.123750
     19 C38        -1.4340    2.1300   -2.1250 c1        1 194     -0.172000
     20 N1          0.3420    1.3200    1.0070 n         1 194     -0.276000
     21 C44         1.6140    1.5210    1.5980 c2        1 194      0.336000
     22 O6          2.4520    2.1800    1.0210 o         1 194     -0.367000
     23 C51         1.8740    1.0390    3.0030 c2        1 194     -0.128000
     24 C53         1.5480   -0.2590    3.3610 c2        1 194     -0.024000
     25 C54         1.8000   -0.7070    4.6490 c1        1 194     -0.150000
     26 C55         2.3770    0.1440    5.5770 c1        1 194     -0.123750
     27 C56         2.7030    1.4430    5.2190 c1        1 194     -0.123750
     28 C57         2.4510    1.8900    3.9320 c1        1 194     -0.051000
     29 N2          1.5030   -2.0470    5.0040 no        1 194      0.570000
     30 O7          1.8720   -2.5260    6.2290 o         1 194     -0.372500
     31 O8          0.9610   -2.7880    4.1960 o         1 194     -0.372500
     32 H1         -3.2100   -0.8520   -4.5920 ha        1 194      0.125500
     33 H2         -3.1080    0.6320   -2.7570 ha        1 194      0.100000
     34 H4         -0.7350   -2.0180   -0.7410 ha        1 194      0.125500
     35 H35         1.6240    3.2130   -0.2540 ha        1 194      0.143000
     36 H36         0.9930    4.3350   -2.2320 ha        1 194      0.140500
     37 H37        -0.9490    3.6680   -3.3990 ha        1 194      0.140500
     38 H38        -2.2530    1.8750   -2.5900 ha        1 194      0.183000
     39 HN1        -0.2750    0.7900    1.4220 hn        1 194      0.245000
     40 H53         1.1420   -0.8580    2.7070 ha        1 194      0.185000
     41 H55         2.5620   -0.1730    6.4800 ha        1 194      0.140500
     42 H56         3.1090    2.0420    5.8730 ha        1 194      0.140500
     43 H57         2.6810    2.8050    3.6790 ha        1 194      0.179000
@<TRIPOS>BOND
     1    1    6 1   
     2    1   32 1   
     3    2    3 1   
     4    2   33 1   
     5    3   13 1   
     6    4    5 1   
     7    4   34 1   
     8    5   10 1   
     9    6    7 1   
    10    7    8 1   
    11    7    9 1   
    12   10   11 1   
    13   10   12 1   
    14   13   14 1   
    15   14   15 1   
    16   14   19 1   
    17   15   16 1   
    18   15   20 1   
    19   16   35 1   
    20   17   18 1   
    21   17   36 1   
    22   18   37 1   
    23   19   38 1   
    24   20   21 1   
    25   20   39 1   
    26   21   22 1   
    27   21   23 1   
    28   23   24 1   
    29   23   28 1   
    30   24   25 1   
    31   24   40 1   
    32   25   29 1   
    33   26   27 1   
    34   26   41 1   
    35   27   42 1   
    36   28   43 1   
    37   29   30 1   
    38   29   31 1   
@<TRIPOS>SUBSTRUCTURE
     1 194         1 TEMP              0 ****  ****    0 ROOT
