@<TRIPOS>MOLECULE
194
   43    45     1     0     0
SMALL
bcc


@<TRIPOS>ATOM
      1 C1         30.0630    1.3820   51.5140 ca        1 194     -0.120000
      2 C2         29.6710    0.5590   52.5660 ca        1 194     -0.186000
      3 C3         28.9010   -0.5700   52.2650 ca        1 194      0.020100
      4 C4         28.5730   -0.8870   50.9470 ca        1 194     -0.191000
      5 C5         28.9350   -0.0240   49.9010 ca        1 194     -0.078600
      6 C6         29.6720    1.1340   50.1880 ca        1 194     -0.094600
      7 C10        30.0610    2.2220   49.1930 c         1 194      0.932200
      8 O1         31.2740    2.3260   48.8630 o         1 194     -0.842800
      9 O2         29.1690    3.0460   48.8340 o         1 194     -0.842800
     10 C20        28.3870   -0.4340   48.5380 c         1 194      0.928200
     11 O5         29.1200   -1.0550   47.7270 o         1 194     -0.834300
     12 O4         27.1510   -0.2090   48.3460 o         1 194     -0.834300
     13 O3         28.5080   -1.3420   53.3700 os        1 194     -0.273200
     14 C31        27.3450   -2.0900   53.2480 ca        1 194      0.086100
     15 C34        26.0690   -1.5580   52.8840 ca        1 194      0.063600
     16 C35        24.9570   -2.4220   52.9840 ca        1 194     -0.154000
     17 C36        25.1010   -3.7360   53.4190 ca        1 194     -0.138000
     18 C37        26.3520   -4.2420   53.7580 ca        1 194     -0.162000
     19 C38        27.4710   -3.4220   53.6630 ca        1 194     -0.131000
     20 N1         25.9590   -0.2330   52.4450 n         1 194     -0.449100
     21 C44        24.8050    0.4230   52.0330 c         1 194      0.693700
     22 O6         23.6520    0.0200   52.2900 o         1 194     -0.624100
     23 C51        25.0360    1.7210   51.3270 ca        1 194     -0.182600
     24 C53        24.2730    2.8250   51.7170 ca        1 194     -0.043000
     25 C54        24.5060    4.0610   51.0950 ca        1 194     -0.216200
     26 C55        25.5060    4.1980   50.1080 ca        1 194     -0.068000
     27 C56        26.2380    3.0830   49.7240 ca        1 194     -0.115000
     28 C57        25.9900    1.8340   50.3090 ca        1 194     -0.032000
     29 N2         23.7010    5.2340   51.4900 no        1 194      0.316200
     30 O7         22.8850    5.1300   52.3740 o         1 194     -0.249000
     31 O8         23.8590    6.2880   50.9260 o         1 194     -0.249000
     32 H1         30.6820    2.2680   51.7210 ha        1 194      0.126000
     33 H2         29.9490    0.7800   53.6040 ha        1 194      0.112000
     34 H4         27.9960   -1.7960   50.7210 ha        1 194      0.138000
     35 H35        23.9530   -2.0590   52.7090 ha        1 194      0.167000
     36 H36        24.2110   -4.3780   53.4860 ha        1 194      0.113000
     37 H37        26.4610   -5.2830   54.0890 ha        1 194      0.112000
     38 H38        28.4720   -3.7990   53.9190 ha        1 194      0.137000
     39 HN1        26.8230    0.2040   52.1770 hn        1 194      0.354500
     40 H53        23.4990    2.7150   52.4940 ha        1 194      0.161000
     41 H55        25.7040    5.1810   49.6510 ha        1 194      0.157000
     42 H56        27.0700    3.1590   48.9830 ha        1 194      0.247000
     43 H57        26.5580    0.9510   49.9130 ha        1 194      0.247000
@<TRIPOS>BOND
     1    1    2 ar  
     2    1    6 ar  
     3    1   32 1   
     4    2    3 ar  
     5    2   33 1   
     6    3    4 ar  
     7    3   13 1   
     8    4    5 ar  
     9    4   34 1   
    10    5    6 ar  
    11    5   10 1   
    12    6    7 1   
    13    7    8 1   
    14    7    9 1   
    15   10   11 1   
    16   10   12 1   
    17   13   14 1   
    18   14   15 ar  
    19   14   19 ar  
    20   15   16 ar  
    21   15   20 1   
    22   16   17 ar  
    23   16   35 1   
    24   17   18 ar  
    25   17   36 1   
    26   18   19 ar  
    27   18   37 1   
    28   19   38 1   
    29   20   21 1   
    30   20   39 1   
    31   21   22 2   
    32   21   23 1   
    33   23   24 ar  
    34   23   28 ar  
    35   24   25 ar  
    36   24   40 1   
    37   25   26 ar  
    38   25   29 1   
    39   26   27 ar  
    40   26   41 1   
    41   27   28 ar  
    42   27   42 1   
    43   28   43 1   
    44   29   30 1   
    45   29   31 1   
@<TRIPOS>SUBSTRUCTURE
     1 194         1 TEMP              0 ****  ****    0 ROOT
