@<TRIPOS>MOLECULE
194
   43    45     1     0     0
SMALL
bcc


@<TRIPOS>ATOM
      1 C1          1.2820   -0.2630    2.0920 ca        1 194     -0.126000
      2 C2          1.5980   -0.7830    0.8400 ca        1 194     -0.198000
      3 C3          1.5320    0.0720   -0.2610 ca        1 194      0.007100
      4 C4          1.1010    1.3970   -0.1280 ca        1 194     -0.158000
      5 C5          0.7920    1.9100    1.1390 ca        1 194     -0.080600
      6 C6          0.9220    1.0820    2.2650 ca        1 194     -0.098600
      7 C10         0.8000    1.5420    3.7140 c         1 194      0.928200
      8 O1          1.7560    2.2260    4.1860 o         1 194     -0.839300
      9 O2         -0.1770    1.1340    4.4000 o         1 194     -0.839300
     10 C20         0.3960    3.3850    1.1600 c         1 194      0.929200
     11 O5          1.3250    4.2330    1.3000 o         1 194     -0.836300
     12 O4         -0.8080    3.6870    0.9390 o         1 194     -0.836300
     13 O3          1.8270   -0.3610   -1.5660 os        1 194     -0.269200
     14 C31         3.0200   -1.0510   -1.7250 ca        1 194      0.084100
     15 C34         4.2980   -0.5390   -1.3410 ca        1 194      0.056600
     16 C35         5.4330   -1.2950   -1.7100 ca        1 194     -0.154000
     17 C36         5.3050   -2.4880   -2.4160 ca        1 194     -0.144000
     18 C37         4.0530   -2.9730   -2.7790 ca        1 194     -0.162000
     19 C38         2.9130   -2.2570   -2.4290 ca        1 194     -0.136000
     20 N1          4.3930    0.6750   -0.6480 n         1 194     -0.453100
     21 C44         5.4800    1.1170    0.0990 c         1 194      0.689700
     22 O6          6.6090    0.5860    0.0340 o         1 194     -0.628100
     23 C51         5.2470    2.3150    0.9590 ca        1 194     -0.180600
     24 C53         6.2770    3.2570    1.0580 ca        1 194     -0.050000
     25 C54         6.0850    4.3860    1.8670 ca        1 194     -0.206200
     26 C55         4.8780    4.5820    2.5710 ca        1 194     -0.067000
     27 C56         3.8720    3.6270    2.4740 ca        1 194     -0.057000
     28 C57         4.0610    2.4920    1.6760 ca        1 194     -0.025000
     29 N2          7.1680    5.3860    1.9780 no        1 194      0.315200
     30 O7          8.1770    5.2490    1.3270 o         1 194     -0.248500
     31 O8          7.0430    6.3290    2.7180 o         1 194     -0.248500
     32 H1          1.3260   -0.9130    2.9790 ha        1 194      0.127000
     33 H2          1.9110   -1.8270    0.7160 ha        1 194      0.111000
     34 H4          1.0060    2.0370   -1.0160 ha        1 194      0.138000
     35 H35         6.4410   -0.9430   -1.4380 ha        1 194      0.166000
     36 H36         6.2120   -3.0490   -2.6850 ha        1 194      0.113000
     37 H37         3.9600   -3.9170   -3.3330 ha        1 194      0.112000
     38 H38         1.9110   -2.6170   -2.7030 ha        1 194      0.138000
     39 HN1         3.5280    1.1680   -0.5160 hn        1 194      0.355500
     40 H53         7.2220    3.1000    0.5110 ha        1 194      0.161000
     41 H55         4.7310    5.4840    3.1870 ha        1 194      0.160000
     42 H56         2.8840    3.7400    2.9870 ha        1 194      0.260000
     43 H57         3.2320    1.7560    1.6420 ha        1 194      0.190000
@<TRIPOS>BOND
     1    1    2 ar  
     2    1    6 ar  
     3    1   32 1   
     4    2    3 ar  
     5    2   33 1   
     6    3    4 ar  
     7    3   13 1   
     8    4    5 ar  
     9    4   34 1   
    10    5    6 ar  
    11    5   10 1   
    12    6    7 1   
    13    7    8 1   
    14    7    9 1   
    15   10   11 1   
    16   10   12 1   
    17   13   14 1   
    18   14   15 ar  
    19   14   19 ar  
    20   15   16 ar  
    21   15   20 1   
    22   16   17 ar  
    23   16   35 1   
    24   17   18 ar  
    25   17   36 1   
    26   18   19 ar  
    27   18   37 1   
    28   19   38 1   
    29   20   21 1   
    30   20   39 1   
    31   21   22 2   
    32   21   23 1   
    33   23   24 ar  
    34   23   28 ar  
    35   24   25 ar  
    36   24   40 1   
    37   25   26 ar  
    38   25   29 1   
    39   26   27 ar  
    40   26   41 1   
    41   27   28 ar  
    42   27   42 1   
    43   28   43 1   
    44   29   30 1   
    45   29   31 1   
@<TRIPOS>SUBSTRUCTURE
     1 194         1 TEMP              0 ****  ****    0 ROOT
