@<TRIPOS>MOLECULE
194
   43    45     1     0     0
SMALL
bcc


@<TRIPOS>ATOM
      1 C1          0.1900    1.4890    0.6520 ca        1 194     -0.120000
      2 C2          0.6720    0.7230   -0.4050 ca        1 194     -0.186000
      3 C3          1.6580   -0.2310   -0.1280 ca        1 194      0.020100
      4 C4          2.1130   -0.4390    1.1750 ca        1 194     -0.191000
      5 C5          1.6510    0.3720    2.2230 ca        1 194     -0.078600
      6 C6          0.6920    1.3600    1.9570 ca        1 194     -0.094600
      7 C10         0.1590    2.3850    2.9510 c         1 194      0.932200
      8 O1         -1.0320    2.2690    3.3510 o         1 194     -0.842800
      9 O2          0.8970    3.3740    3.2400 o         1 194     -0.842800
     10 C20         2.3410    0.1150    3.5580 c         1 194      0.928200
     11 O5          1.7850   -0.6080    4.4240 o         1 194     -0.834300
     12 O4          3.5210    0.5750    3.6710 o         1 194     -0.834300
     13 O3          2.1300   -0.9490   -1.2380 os        1 194     -0.273200
     14 C31         3.4180   -1.4600   -1.1720 ca        1 194      0.086100
     15 C34         4.5880   -0.6860   -0.8950 ca        1 194      0.063600
     16 C35         5.8370   -1.3280   -1.0440 ca        1 194     -0.154000
     17 C36         5.9220   -2.6570   -1.4440 ca        1 194     -0.138000
     18 C37         4.7730   -3.4010   -1.6970 ca        1 194     -0.162000
     19 C38         3.5250   -2.8040   -1.5520 ca        1 194     -0.131000
     20 N1          4.4680    0.6490   -0.4900 ns        1 194     -0.449100
     21 C44         5.4980    1.5240   -0.1610 c         1 194      0.693700
     22 O6          6.6900    1.3370   -0.4780 o         1 194     -0.624100
     23 C51         5.0620    2.7760    0.5310 ca        1 194     -0.182600
     24 C53         5.5800    3.9910    0.0750 ca        1 194     -0.043000
     25 C54         5.1500    5.1800    0.6840 ca        1 194     -0.216200
     26 C55         4.1990    5.1560    1.7260 ca        1 194     -0.068000
     27 C56         3.7140    3.9350    2.1760 ca        1 194     -0.115000
     28 C57         4.1620    2.7380    1.6020 ca        1 194     -0.032000
     29 N2          5.6960    6.4710    0.2190 no        1 194      0.316200
     30 O7          6.4660    6.4950   -0.7110 o         1 194     -0.249000
     31 O8          5.3710    7.4930    0.7700 o         1 194     -0.249000
     32 H1         -0.5970    2.2360    0.4650 ha        1 194      0.126000
     33 H2          0.3010    0.8550   -1.4280 ha        1 194      0.112000
     34 H4          2.8630   -1.2160    1.3840 ha        1 194      0.138000
     35 H35         6.7680   -0.7730   -0.8370 ha        1 194      0.167000
     36 H36         6.9120   -3.1220   -1.5500 ha        1 194      0.113000
     37 H37         4.8460   -4.4540   -1.9990 ha        1 194      0.112000
     38 H38         2.6010   -3.3710   -1.7390 ha        1 194      0.137000
     39 HN1         3.5520    0.9240   -0.1800 hn        1 194      0.354500
     40 H53         6.3170    4.0050   -0.7450 ha        1 194      0.161000
     41 H55         3.8420    6.0980    2.1740 ha        1 194      0.157000
     42 H56         2.9240    3.8760    2.9630 ha        1 194      0.247000
     43 H57         3.7950    1.7770    2.0490 ha        1 194      0.246000
@<TRIPOS>BOND
     1    1    2 ar  
     2    1    6 ar  
     3    1   32 1   
     4    2    3 ar  
     5    2   33 1   
     6    3    4 ar  
     7    3   13 1   
     8    4    5 ar  
     9    4   34 1   
    10    5    6 ar  
    11    5   10 1   
    12    6    7 1   
    13    7    8 1   
    14    7    9 1   
    15   10   11 1   
    16   10   12 1   
    17   13   14 1   
    18   14   15 ar  
    19   14   19 ar  
    20   15   16 ar  
    21   15   20 1   
    22   16   17 ar  
    23   16   35 1   
    24   17   18 ar  
    25   17   36 1   
    26   18   19 ar  
    27   18   37 1   
    28   19   38 1   
    29   20   21 1   
    30   20   39 1   
    31   21   22 2   
    32   21   23 1   
    33   23   24 ar  
    34   23   28 ar  
    35   24   25 ar  
    36   24   40 1   
    37   25   26 ar  
    38   25   29 1   
    39   26   27 ar  
    40   26   41 1   
    41   27   28 ar  
    42   27   42 1   
    43   28   43 1   
    44   29   30 1   
    45   29   31 1   
@<TRIPOS>SUBSTRUCTURE
     1 194         1 TEMP              0 ****  ****    0 ROOT
