@<TRIPOS>MOLECULE
195
   59    62     1     0     0
SMALL
bcc


@<TRIPOS>ATOM
      1 C1         -1.0690   -2.2030    1.0060 ca        1 195      0.081100
      2 C2          0.1820   -1.5980    0.6650 ca        1 195      0.078600
      3 C3          1.0650   -1.2960    1.7180 ca        1 195     -0.195000
      4 C4          0.7310   -1.5720    3.0630 ca        1 195      0.022600
      5 C5         -0.5020   -2.1660    3.3710 ca        1 195     -0.158000
      6 C6         -1.3860   -2.4680    2.3410 ca        1 195     -0.123000
      7 O1         -1.9800   -2.6830    0.0790 os        1 195     -0.264200
      8 C7         -2.4070   -1.7640   -0.8970 ca        1 195      0.002100
      9 C8         -2.3930   -2.2100   -2.2230 ca        1 195     -0.157000
     10 C9         -2.7910   -1.3490   -3.2550 ca        1 195     -0.081600
     11 C10        -3.1980   -0.0430   -2.9410 ca        1 195     -0.096600
     12 C11        -3.2810    0.3480   -1.5960 ca        1 195     -0.126000
     13 C12        -2.8810   -0.4940   -0.5610 ca        1 195     -0.197000
     14 C13        -3.4700    1.0610   -3.9580 c         1 195      0.928200
     15 O2         -2.4660    1.5720   -4.5350 o         1 195     -0.837800
     16 O3         -4.6510    1.4860   -4.0920 o         1 195     -0.837800
     17 C14        -2.6700   -1.9310   -4.6620 c         1 195      0.929200
     18 O4         -1.5620   -1.7810   -5.2550 o         1 195     -0.835300
     19 O5         -3.6300   -2.6070   -5.1190 o         1 195     -0.835300
     20 N1          0.5010   -1.3410   -0.6740 ns        1 195     -0.454100
     21 C15         1.4820   -0.4700   -1.1410 c         1 195      0.693700
     22 C16         1.4670   -0.1760   -2.6030 ca        1 195     -0.183600
     23 O6          2.3650    0.0130   -0.4000 o         1 195     -0.633100
     24 C17         2.7000   -0.0590   -3.2550 ca        1 195     -0.049000
     25 C18         2.7150    0.2290   -4.6280 ca        1 195     -0.205200
     26 C19         1.5140    0.3980   -5.3500 ca        1 195     -0.066000
     27 C20         0.2990    0.2940   -4.6820 ca        1 195     -0.054000
     28 C21         0.2770    0.0160   -3.3100 ca        1 195     -0.022000
     29 N4          4.0130    0.3550   -5.3240 no        1 195      0.315200
     30 O7          4.0420    0.6610   -6.4890 o         1 195     -0.247000
     31 O8          5.0370    0.1540   -4.7170 o         1 195     -0.247000
     32 N2          1.6920   -1.2560    4.0550 ns        1 195     -0.440100
     33 C22         1.4200   -0.9630    5.3730 c         1 195      0.665700
     34 O9          0.3200   -1.1390    5.9310 o         1 195     -0.589100
     35 C23         2.5720   -0.4170    6.1680 ca        1 195     -0.144600
     36 C24         3.7990   -1.0780    6.2150 ca        1 195     -0.044000
     37 C25         4.8250   -0.5430    7.0120 ca        1 195     -0.185200
     38 C26         4.6340    0.6450    7.7390 ca        1 195     -0.062000
     39 C27         3.4010    1.2870    7.6740 ca        1 195     -0.150000
     40 C28         2.3680    0.7590    6.9000 ca        1 195     -0.043000
     41 N3          6.1320   -1.2440    7.0960 no        1 195      0.314200
     42 O10         6.2900   -2.2670    6.4860 o         1 195     -0.213500
     43 O11         7.0020   -0.7720    7.7820 o         1 195     -0.213500
     44 H3          2.0410   -0.8340    1.4870 ha        1 195      0.169000
     45 H5         -0.7870   -2.3790    4.4120 ha        1 195      0.153000
     46 H6         -2.3590   -2.9320    2.5660 ha        1 195      0.147000
     47 H8         -2.0690   -3.2340   -2.4570 ha        1 195      0.139000
     48 H11        -3.6580    1.3560   -1.3650 ha        1 195      0.129000
     49 H12        -2.9160   -0.1710    0.4860 ha        1 195      0.111000
     50 HN1        -0.1660   -1.6690   -1.3510 hn        1 195      0.360500
     51 H17         3.6380   -0.1860   -2.6890 ha        1 195      0.161000
     52 H19         1.5380    0.6030   -6.4320 ha        1 195      0.161000
     53 H20        -0.6850    0.3930   -5.2050 ha        1 195      0.259000
     54 H21        -0.7180   -0.0430   -2.8250 ha        1 195      0.190000
     55 HN2         2.5830   -0.9780    3.7010 hn        1 195      0.318500
     56 H24         3.9620   -2.0110    5.6460 ha        1 195      0.182000
     57 H26         5.4520    1.0590    8.3520 ha        1 195      0.165000
     58 H27         3.2420    2.2170    8.2400 ha        1 195      0.147000
     59 H28         1.3830    1.2540    6.8630 ha        1 195      0.166000
@<TRIPOS>BOND
     1    1    2 ar  
     2    1    6 ar  
     3    1    7 1   
     4    2    3 ar  
     5    2   20 1   
     6    3    4 ar  
     7    3   44 1   
     8    4    5 ar  
     9    4   32 1   
    10    5    6 ar  
    11    5   45 1   
    12    6   46 1   
    13    7    8 1   
    14    8    9 ar  
    15    8   13 ar  
    16    9   10 ar  
    17    9   47 1   
    18   10   11 ar  
    19   10   17 1   
    20   11   12 ar  
    21   11   14 1   
    22   12   13 ar  
    23   12   48 1   
    24   13   49 1   
    25   14   15 1   
    26   14   16 1   
    27   17   18 1   
    28   17   19 1   
    29   20   21 1   
    30   20   50 1   
    31   21   22 1   
    32   21   23 2   
    33   22   24 ar  
    34   22   28 ar  
    35   24   25 ar  
    36   24   51 1   
    37   25   26 ar  
    38   25   29 1   
    39   26   27 ar  
    40   26   52 1   
    41   27   28 ar  
    42   27   53 1   
    43   28   54 1   
    44   29   30 1   
    45   29   31 1   
    46   32   33 1   
    47   32   55 1   
    48   33   34 2   
    49   33   35 1   
    50   35   36 ar  
    51   35   40 ar  
    52   36   37 ar  
    53   36   56 1   
    54   37   38 ar  
    55   37   41 1   
    56   38   39 ar  
    57   38   57 1   
    58   39   40 ar  
    59   39   58 1   
    60   40   59 1   
    61   41   42 1   
    62   41   43 1   
@<TRIPOS>SUBSTRUCTURE
     1 195         1 TEMP              0 ****  ****    0 ROOT
