@<TRIPOS>MOLECULE
195
   59    62     1     0     0
SMALL
bcc


@<TRIPOS>ATOM
      1 C1         28.0310   -1.8210   53.6360 ca        1 195      0.082100
      2 C2         26.6630   -1.5190   53.3420 ca        1 195      0.086600
      3 C3         25.7000   -2.4930   53.6590 ca        1 195     -0.196000
      4 C4         26.0600   -3.7200   54.2590 ca        1 195      0.029600
      5 C5         27.4070   -3.9910   54.5420 ca        1 195     -0.161000
      6 C6         28.3730   -3.0450   54.2160 ca        1 195     -0.117000
      7 O1         29.0800   -0.9220   53.5140 os        1 195     -0.269200
      8 C7         29.2490   -0.3020   52.2640 ca        1 195      0.016100
      9 C8         28.8240   -0.8690   51.0620 ca        1 195     -0.192000
     10 C9         28.9410   -0.1510   49.8620 ca        1 195     -0.078600
     11 C10        29.5410    1.1160   49.8750 ca        1 195     -0.093600
     12 C11        30.0420    1.6210   51.0850 ca        1 195     -0.119000
     13 C12        29.8870    0.9430   52.2910 ca        1 195     -0.183000
     14 C13        29.6610    2.0650   48.6870 c         1 195      0.932200
     15 O2         30.8020    2.2520   48.1830 o         1 195     -0.841800
     16 O3         28.6290    2.7110   48.3360 o         1 195     -0.841800
     17 C14        28.2940   -0.8400   48.6640 c         1 195      0.928200
     18 O4         29.0030   -1.4810   47.8480 o         1 195     -0.833800
     19 O5         27.0240   -0.8120   48.6300 o         1 195     -0.833800
     20 N1         26.3240   -0.2970   52.7500 n         1 195     -0.449100
     21 C15        25.0520    0.1440   52.3970 c         1 195      0.697700
     22 C16        25.0260    1.3420   51.5050 ca        1 195     -0.183600
     23 O6         24.0010   -0.3610   52.8420 o         1 195     -0.627100
     24 C17        24.1660    2.3920   51.8390 ca        1 195     -0.042000
     25 C18        24.1570    3.5400   51.0320 ca        1 195     -0.215200
     26 C19        25.0120    3.6460   49.9140 ca        1 195     -0.066000
     27 C20        25.8430    2.5820   49.5910 ca        1 195     -0.116000
     28 C21        25.8370    1.4150   50.3660 ca        1 195     -0.033000
     29 N4         23.2480    4.6540   51.3680 no        1 195      0.316200
     30 O7         23.1980    5.6240   50.6530 o         1 195     -0.247000
     31 O8         22.5570    4.5860   52.3550 o         1 195     -0.247000
     32 N2         25.0170   -4.6280   54.5650 n         1 195     -0.439100
     33 C22        25.1490   -5.9930   54.7000 c         1 195      0.665700
     34 O9         26.2280   -6.5990   54.8360 o         1 195     -0.585100
     35 C23        23.8590   -6.7660   54.7140 ca        1 195     -0.144600
     36 C24        22.8840   -6.5190   55.6800 ca        1 195     -0.044000
     37 C25        21.7180   -7.3020   55.6780 ca        1 195     -0.185200
     38 C26        21.5190   -8.3030   54.7120 ca        1 195     -0.063000
     39 C27        22.5060   -8.5270   53.7550 ca        1 195     -0.148000
     40 C28        23.6770   -7.7690   53.7550 ca        1 195     -0.043000
     41 N3         20.6790   -7.0750   56.7130 no        1 195      0.314200
     42 O10        20.8560   -6.2300   57.5490 o         1 195     -0.215000
     43 O11        19.6830   -7.7510   56.6970 o         1 195     -0.215000
     44 H3         24.6390   -2.2920   53.4270 ha        1 195      0.169000
     45 H5         27.7140   -4.9440   54.9970 ha        1 195      0.155000
     46 H6         29.4360   -3.2500   54.4180 ha        1 195      0.146000
     47 H8         28.3590   -1.8650   51.0510 ha        1 195      0.137000
     48 H11        30.5550    2.5950   51.0740 ha        1 195      0.128000
     49 H12        30.2450    1.3620   53.2380 ha        1 195      0.113000
     50 HN1        27.0880    0.2010   52.3260 hn        1 195      0.357500
     51 H17        23.5050    2.3080   52.7180 ha        1 195      0.161000
     52 H19        25.0210    4.5660   49.3070 ha        1 195      0.158000
     53 H20        26.5680    2.6450   48.7440 ha        1 195      0.247000
     54 H21        26.4740    0.5560   50.0240 ha        1 195      0.248000
     55 HN2        24.0980   -4.2780   54.3920 hn        1 195      0.318500
     56 H24        23.0290   -5.7290   56.4390 ha        1 195      0.181000
     57 H26        20.5940   -8.9030   54.7150 ha        1 195      0.165000
     58 H27        22.3580   -9.3080   52.9930 ha        1 195      0.148000
     59 H28        24.4670   -7.9550   53.0080 ha        1 195      0.167000
@<TRIPOS>BOND
     1    1    2 ar  
     2    1    6 ar  
     3    1    7 1   
     4    2    3 ar  
     5    2   20 1   
     6    3    4 ar  
     7    3   44 1   
     8    4    5 ar  
     9    4   32 1   
    10    5    6 ar  
    11    5   45 1   
    12    6   46 1   
    13    7    8 1   
    14    8    9 ar  
    15    8   13 ar  
    16    9   10 ar  
    17    9   47 1   
    18   10   11 ar  
    19   10   17 1   
    20   11   12 ar  
    21   11   14 1   
    22   12   13 ar  
    23   12   48 1   
    24   13   49 1   
    25   14   15 1   
    26   14   16 1   
    27   17   18 1   
    28   17   19 1   
    29   20   21 1   
    30   20   50 1   
    31   21   22 1   
    32   21   23 2   
    33   22   24 ar  
    34   22   28 ar  
    35   24   25 ar  
    36   24   51 1   
    37   25   26 ar  
    38   25   29 1   
    39   26   27 ar  
    40   26   52 1   
    41   27   28 ar  
    42   27   53 1   
    43   28   54 1   
    44   29   30 1   
    45   29   31 1   
    46   32   33 1   
    47   32   55 1   
    48   33   34 2   
    49   33   35 1   
    50   35   36 ar  
    51   35   40 ar  
    52   36   37 ar  
    53   36   56 1   
    54   37   38 ar  
    55   37   41 1   
    56   38   39 ar  
    57   38   57 1   
    58   39   40 ar  
    59   39   58 1   
    60   40   59 1   
    61   41   42 1   
    62   41   43 1   
@<TRIPOS>SUBSTRUCTURE
     1 195         1 TEMP              0 ****  ****    0 ROOT
