@<TRIPOS>MOLECULE
195
   59    53     1     0     0
SMALL
bcc


@<TRIPOS>ATOM
      1 C1         -1.0760   -0.5510   -0.5980 c1        1 195      0.036000
      2 C2          0.3080   -0.6250   -0.7230 c1        1 195      0.058000
      3 C3          1.1070   -0.5580    0.4060 c1        1 195     -0.176500
      4 C4          0.5310   -0.4180    1.6550 c1        1 195      0.058000
      5 C5         -0.8540   -0.3450    1.7780 c1        1 195     -0.176500
      6 C6         -1.6530   -0.4110    0.6540 c1        1 195     -0.123000
      7 O1         -1.8900   -0.4610   -1.7680 os        1 195     -0.174000
      8 C7         -3.1510   -1.0420   -1.5110 c2        1 195     -0.043000
      9 C8         -4.2980   -0.2770   -1.6300 c2        1 195     -0.157000
     10 C9         -5.5500   -0.8740   -1.5100 c1        1 195     -0.061000
     11 C10        -5.6460   -2.2330   -1.2710 c1        1 195     -0.076000
     12 C11        -4.4930   -3.0000   -1.1520 c1        1 195     -0.126000
     13 C12        -3.2470   -2.4030   -1.2720 c1        1 195     -0.197000
     14 C13        -7.0130   -2.9100   -1.2700 c2        1 195      0.377000
     15 O2         -7.5790   -3.1920   -2.3660 o         1 195     -0.572500
     16 O3         -7.6010   -3.1360   -0.1820 o         1 195     -0.572500
     17 C14        -6.7960   -0.0620   -1.7450 c2        1 195      0.378000
     18 O4         -7.3780    0.4870   -0.7790 o         1 195     -0.569500
     19 O5         -7.2720    0.0370   -2.9060 o         1 195     -0.569500
     20 N1          0.8950   -0.5500   -1.9940 n         1 195     -0.301000
     21 C15         1.6990    0.5710   -2.3380 c2        1 195      0.353000
     22 C16         2.3590    0.6410   -3.7040 c2        1 195     -0.143500
     23 O6          1.8770    1.4620   -1.5320 o         1 195     -0.372000
     24 C17         1.7420    1.4060   -4.6910 c2        1 195     -0.046500
     25 C18         2.3690    1.6000   -5.9090 c1        1 195     -0.150000
     26 C19         3.6120    1.0310   -6.1470 c1        1 195     -0.083000
     27 C20         4.2300    0.2650   -5.1590 c1        1 195     -0.083000
     28 C21         3.6040    0.0720   -3.9430 c1        1 195     -0.032500
     29 N4          1.7070    2.3300   -6.9430 no        1 195      0.569500
     30 O7          1.6890    1.8900   -8.0930 o         1 195     -0.380250
     31 O8          1.0840    3.5100   -6.6540 o         1 195     -0.380250
     32 N2          1.3550   -0.2060    2.7950 n         1 195     -0.301000
     33 C22         0.8560    0.5190    3.8990 c2        1 195      0.353000
     34 O9         -0.2820    0.9630    3.8730 o         1 195     -0.372000
     35 C23         1.7050    0.6750    5.1480 c2        1 195     -0.143500
     36 C24         3.0730    0.9220    5.0330 c2        1 195     -0.046500
     37 C25         3.8390    1.1410    6.1720 c1        1 195     -0.150000
     38 C26         3.2430    1.1140    7.4220 c1        1 195     -0.083000
     39 C27         1.8770    0.8680    7.5370 c1        1 195     -0.083000
     40 C28         1.1110    0.6490    6.3960 c1        1 195     -0.032500
     41 N3          5.2580    1.3860    6.0530 no        1 195      0.569500
     42 O10         5.8520    1.3740    4.8190 o         1 195     -0.380250
     43 O11         5.9430    1.5380    7.0620 o         1 195     -0.380250
     44 H3          2.0780   -0.5860    0.3180 ha        1 195      0.161000
     45 H5         -1.2620   -0.2930    2.6640 ha        1 195      0.161000
     46 H6         -2.6270   -0.3960    0.7450 ha        1 195      0.147000
     47 H8         -4.2280    0.6870   -1.8000 ha        1 195      0.139000
     48 H11        -4.5600   -3.9590   -0.9840 ha        1 195      0.129000
     49 H12        -2.4380   -2.9370   -1.1590 ha        1 195      0.111000
     50 HN1         0.7100   -1.1910   -2.6230 hn        1 195      0.253000
     51 H17         0.8670    1.8060   -4.5240 ha        1 195      0.171500
     52 H19         4.0560    1.1680   -7.0100 ha        1 195      0.183000
     53 H20         5.1040   -0.1380   -5.3280 ha        1 195      0.183000
     54 H21         4.0370   -0.4640   -3.2520 ha        1 195      0.178000
     55 HN2         2.2350   -0.4560    2.7750 hn        1 195      0.253000
     56 H24         3.4950    0.9410    4.1480 ha        1 195      0.171500
     57 H26         3.7800    1.2680    8.2220 ha        1 195      0.183000
     58 H27         1.4580    0.8490    8.4180 ha        1 195      0.183000
     59 H28         0.1470    0.5070    6.4750 ha        1 195      0.178000
@<TRIPOS>BOND
     1    1    6 1   
     2    1    7 1   
     3    2    3 1   
     4    2   20 1   
     5    3   44 1   
     6    4    5 1   
     7    4   32 1   
     8    5   45 1   
     9    6   46 1   
    10    7    8 1   
    11    8    9 1   
    12    8   13 1   
    13    9   10 1   
    14    9   47 1   
    15   10   17 1   
    16   11   12 1   
    17   11   14 1   
    18   12   48 1   
    19   13   49 1   
    20   14   15 1   
    21   14   16 1   
    22   17   18 1   
    23   17   19 1   
    24   20   21 1   
    25   20   50 1   
    26   21   22 1   
    27   21   23 1   
    28   22   24 1   
    29   22   28 1   
    30   24   25 1   
    31   24   51 1   
    32   25   29 1   
    33   26   27 1   
    34   26   52 1   
    35   27   53 1   
    36   28   54 1   
    37   29   30 1   
    38   29   31 1   
    39   32   33 1   
    40   32   55 1   
    41   33   34 1   
    42   33   35 1   
    43   35   36 1   
    44   35   40 1   
    45   36   37 1   
    46   36   56 1   
    47   37   41 1   
    48   38   39 1   
    49   38   57 1   
    50   39   58 1   
    51   40   59 1   
    52   41   42 1   
    53   41   43 1   
@<TRIPOS>SUBSTRUCTURE
     1 195         1 TEMP              0 ****  ****    0 ROOT
