@<TRIPOS>MOLECULE
195
   59    62     1     0     0
SMALL
bcc


@<TRIPOS>ATOM
      1 C1         -1.1890   -2.0620    1.1420 ca        1 195      0.082100
      2 C2          0.1020   -1.6240    0.7080 ca        1 195      0.086600
      3 C3          1.0410   -1.2850    1.6990 ca        1 195     -0.196000
      4 C4          0.7320   -1.3840    3.0740 ca        1 195      0.029600
      5 C5         -0.5400   -1.8200    3.4740 ca        1 195     -0.161000
      6 C6         -1.4860   -2.1390    2.5050 ca        1 195     -0.117000
      7 O1         -2.1750   -2.5590    0.3040 os        1 195     -0.269200
      8 C7         -2.5620   -1.7520   -0.7800 ca        1 195      0.016100
      9 C8         -2.4420   -0.3620   -0.7830 ca        1 195     -0.192000
     10 C9         -2.7600    0.3720   -1.9360 ca        1 195     -0.078600
     11 C10        -3.2540   -0.2990   -3.0630 ca        1 195     -0.093600
     12 C11        -3.4500   -1.6880   -2.9990 ca        1 195     -0.119000
     13 C12        -3.0910   -2.4350   -1.8810 ca        1 195     -0.183000
     14 C13        -3.5570    0.3280   -4.4200 c         1 195      0.932200
     15 O2         -4.7630    0.4420   -4.7720 o         1 195     -0.841800
     16 O3         -2.5800    0.5980   -5.1810 o         1 195     -0.841800
     17 C14        -2.4320    1.8580   -1.8320 c         1 195      0.928200
     18 O4         -3.3400    2.6880   -1.5750 o         1 195     -0.833800
     19 O5         -1.1990    2.1590   -1.9060 o         1 195     -0.833800
     20 N1          0.3930   -1.5340   -0.6580 n         1 195     -0.449100
     21 C15         1.5890   -1.1240   -1.2410 c         1 195      0.697700
     22 C16         1.5080   -0.8300   -2.7030 ca        1 195     -0.183600
     23 O6          2.6720   -1.0740   -0.6240 o         1 195     -0.627100
     24 C17         2.4910   -1.3700   -3.5380 ca        1 195     -0.042000
     25 C18         2.4080   -1.1340   -4.9180 ca        1 195     -0.215200
     26 C19         1.3450   -0.3820   -5.4620 ca        1 195     -0.066000
     27 C20         0.3920    0.1620   -4.6100 ca        1 195     -0.116000
     28 C21         0.4810   -0.0350   -3.2260 ca        1 195     -0.033000
     29 N4          3.4440   -1.6920   -5.8120 no        1 195      0.316200
     30 O7          3.4070   -1.4530   -6.9930 o         1 195     -0.247000
     31 O8          4.3220   -2.3810   -5.3530 o         1 195     -0.247000
     32 N2          1.7500   -1.0450    3.9980 n         1 195     -0.439100
     33 C22         1.5550   -0.6260    5.2960 c         1 195      0.665700
     34 O9          0.4890   -0.7330    5.9320 o         1 195     -0.585100
     35 C23         2.7610   -0.0310    5.9680 ca        1 195     -0.144600
     36 C24         3.9330   -0.7700    6.1250 ca        1 195     -0.044000
     37 C25         5.0150   -0.1840    6.8030 ca        1 195     -0.185200
     38 C26         4.9340    1.1290    7.2990 ca        1 195     -0.063000
     39 C27         3.7540    1.8470    7.1250 ca        1 195     -0.148000
     40 C28         2.6660    1.2710    6.4690 ca        1 195     -0.043000
     41 N3          6.2640   -0.9620    7.0060 no        1 195      0.314200
     42 O10         6.3270   -2.0890    6.5950 o         1 195     -0.215000
     43 O11         7.1840   -0.4460    7.5850 o         1 195     -0.215000
     44 H3          2.0400   -0.9290    1.3910 ha        1 195      0.169000
     45 H5         -0.8090   -1.8930    4.5390 ha        1 195      0.155000
     46 H6         -2.4930   -2.4680    2.8050 ha        1 195      0.146000
     47 H8         -2.0600    0.1650    0.1040 ha        1 195      0.137000
     48 H11        -3.8850   -2.1970   -3.8730 ha        1 195      0.128000
     49 H12        -3.2100   -3.5240   -1.8530 ha        1 195      0.113000
     50 HN1        -0.4070   -1.5370   -1.2680 hn        1 195      0.357500
     51 H17         3.3150   -1.9640   -3.1100 ha        1 195      0.161000
     52 H19         1.2720   -0.2300   -6.5510 ha        1 195      0.158000
     53 H20        -0.4900    0.7220   -5.0040 ha        1 195      0.247000
     54 H21        -0.2720    0.4820   -2.5750 ha        1 195      0.248000
     55 HN2         2.6340   -0.8340    3.5830 hn        1 195      0.318500
     56 H24         4.0090   -1.8000    5.7320 ha        1 195      0.181000
     57 H26         5.7950    1.5800    7.8200 ha        1 195      0.165000
     58 H27         3.6820    2.8760    7.5090 ha        1 195      0.148000
     59 H28         1.7240    1.8330    6.3450 ha        1 195      0.167000
@<TRIPOS>BOND
     1    1    2 ar  
     2    1    6 ar  
     3    1    7 1   
     4    2    3 ar  
     5    2   20 1   
     6    3    4 ar  
     7    3   44 1   
     8    4    5 ar  
     9    4   32 1   
    10    5    6 ar  
    11    5   45 1   
    12    6   46 1   
    13    7    8 1   
    14    8    9 ar  
    15    8   13 ar  
    16    9   10 ar  
    17    9   47 1   
    18   10   11 ar  
    19   10   17 1   
    20   11   12 ar  
    21   11   14 1   
    22   12   13 ar  
    23   12   48 1   
    24   13   49 1   
    25   14   15 1   
    26   14   16 1   
    27   17   18 1   
    28   17   19 1   
    29   20   21 1   
    30   20   50 1   
    31   21   22 1   
    32   21   23 2   
    33   22   24 ar  
    34   22   28 ar  
    35   24   25 ar  
    36   24   51 1   
    37   25   26 ar  
    38   25   29 1   
    39   26   27 ar  
    40   26   52 1   
    41   27   28 ar  
    42   27   53 1   
    43   28   54 1   
    44   29   30 1   
    45   29   31 1   
    46   32   33 1   
    47   32   55 1   
    48   33   34 2   
    49   33   35 1   
    50   35   36 ar  
    51   35   40 ar  
    52   36   37 ar  
    53   36   56 1   
    54   37   38 ar  
    55   37   41 1   
    56   38   39 ar  
    57   38   57 1   
    58   39   40 ar  
    59   39   58 1   
    60   40   59 1   
    61   41   42 1   
    62   41   43 1   
@<TRIPOS>SUBSTRUCTURE
     1 195         1 TEMP              0 ****  ****    0 ROOT
