@<TRIPOS>MOLECULE
196
   31    33     1     0     0
SMALL
bcc


@<TRIPOS>ATOM
      1 C1         -4.6340   -0.3530   -0.2420 ca        1 196      0.104100
      2 C2         -3.9920    0.7010    0.4490 ca        1 196      0.036900
      3 C3         -2.5920    0.7460    0.5110 ca        1 196     -0.113000
      4 C4         -1.8340   -0.2520   -0.1110 cp        1 196     -0.053000
      5 C5         -2.4820   -1.2940   -0.7930 ca        1 196     -0.096000
      6 C6         -3.8680   -1.3500   -0.8630 ca        1 196     -0.137000
      7 O10        -5.9990   -0.4540   -0.3400 oh        1 196     -0.486100
      8 F11        -4.7410    1.6610    1.0490 f         1 196     -0.143900
      9 C12        -0.3740   -0.2050   -0.0500 cp        1 196     -0.055000
     10 C13         0.3080    0.9870   -0.2060 ca        1 196     -0.069000
     11 C14         1.7240    1.0310   -0.1490 ca        1 196     -0.073000
     12 C15         2.4580   -0.1630    0.0730 ca        1 196      0.035000
     13 C16         1.7340   -1.3850    0.2350 ca        1 196     -0.021000
     14 C17         0.3540   -1.4020    0.1730 ca        1 196     -0.059000
     15 C20         2.4260    2.2590   -0.3140 ca        1 196     -0.084000
     16 C21         3.7930    2.3050   -0.2600 ca        1 196     -0.139000
     17 C22         4.5210    1.0990   -0.0340 ca        1 196      0.148100
     18 C23         3.8740   -0.1110    0.1290 ca        1 196     -0.226000
     19 C27         2.4440   -2.5960    0.4620 cg        1 196      0.237800
     20 N28         3.0160   -3.5930    0.6480 n1        1 196     -0.367800
     21 O29         5.8860    1.2360    0.0060 oh        1 196     -0.492100
     22 H3         -2.1020    1.5660    1.0580 ha        1 196      0.154000
     23 H5         -1.8830   -2.0750   -1.2880 ha        1 196      0.145000
     24 H6         -4.3800   -2.1630   -1.4000 ha        1 196      0.160000
     25 H10        -6.3910    0.2950    0.1380 ho        1 196      0.433000
     26 H13        -0.2430    1.9250   -0.3840 ha        1 196      0.142000
     27 H17        -0.1980   -2.3460    0.3050 ha        1 196      0.149000
     28 H20         1.8440    3.1780   -0.4870 ha        1 196      0.141000
     29 H21         4.3540    3.2430   -0.3850 ha        1 196      0.157000
     30 H23         4.4430   -1.0360    0.3020 ha        1 196      0.148000
     31 H29         6.2740    0.3610    0.1630 ho        1 196      0.426000
@<TRIPOS>BOND
     1    1    2 ar  
     2    1    6 ar  
     3    1    7 1   
     4    2    3 ar  
     5    2    8 1   
     6    3    4 ar  
     7    3   22 1   
     8    4    5 ar  
     9    4    9 1   
    10    5    6 ar  
    11    5   23 1   
    12    6   24 1   
    13    7   25 1   
    14    9   10 ar  
    15    9   14 ar  
    16   10   11 ar  
    17   10   26 1   
    18   11   12 ar  
    19   11   15 ar  
    20   12   13 ar  
    21   12   18 ar  
    22   13   14 ar  
    23   13   19 1   
    24   14   27 1   
    25   15   16 ar  
    26   15   28 1   
    27   16   17 ar  
    28   16   29 1   
    29   17   18 ar  
    30   17   21 1   
    31   18   30 1   
    32   19   20 3   
    33   21   31 1   
@<TRIPOS>SUBSTRUCTURE
     1 196         1 TEMP              0 ****  ****    0 ROOT
