@<TRIPOS>MOLECULE
196
   31    33     1     0     0
SMALL
bcc


@<TRIPOS>ATOM
      1 C1          0.0010   -0.0210    0.0100 ca        1 196      0.104100
      2 C2          1.4150    0.0160   -0.0080 ca        1 196      0.036900
      3 C3          2.1300    0.0270    1.1980 ca        1 196     -0.113000
      4 C4          1.4430    0.0010    2.4160 cp        1 196     -0.053000
      5 C5          0.0400   -0.0350    2.4230 ca        1 196     -0.096000
      6 C6         -0.6810   -0.0480    1.2350 ca        1 196     -0.137000
      7 O10        -0.7570   -0.0350   -1.1340 oh        1 196     -0.486100
      8 F11         2.0670    0.0430   -1.1990 f         1 196     -0.143900
      9 C12         2.1880    0.0090    3.6740 cp        1 196     -0.054000
     10 C13         3.3310   -0.7490    3.8320 ca        1 196     -0.071000
     11 C14         4.0500   -0.7420    5.0540 ca        1 196     -0.075000
     12 C15         3.5940    0.0560    6.1370 ca        1 196      0.028000
     13 C16         2.4090    0.8350    5.9530 ca        1 196     -0.016000
     14 C17         1.7260    0.8090    4.7530 ca        1 196     -0.060000
     15 C20         5.2260   -1.5260    5.2170 ca        1 196     -0.075000
     16 C21         5.9190   -1.5190    6.3990 ca        1 196     -0.193000
     17 C22         5.4550   -0.7150    7.4780 ca        1 196      0.136100
     18 C23         4.3140    0.0600    7.3570 ca        1 196     -0.164000
     19 C27         1.9280    1.6470    7.0170 cg        1 196      0.234800
     20 N28         1.5250    2.3150    7.8800 n1        1 196     -0.361800
     21 O29         6.1150   -0.6740    8.6840 oh        1 196     -0.489100
     22 H3          3.2290    0.0640    1.1720 ha        1 196      0.153000
     23 H5         -0.4990   -0.0630    3.3830 ha        1 196      0.145000
     24 H6         -1.7810   -0.0790    1.2360 ha        1 196      0.160000
     25 H10        -0.1540   -0.0070   -1.8940 ho        1 196      0.432000
     26 H13         3.7000   -1.3790    3.0060 ha        1 196      0.141000
     27 H17         0.8180    1.4170    4.6150 ha        1 196      0.149000
     28 H20         5.5690   -2.1420    4.3710 ha        1 196      0.139000
     29 H21         6.8290   -2.1230    6.5290 ha        1 196      0.139000
     30 H23         3.9710    0.6740    8.2030 ha        1 196      0.165000
     31 H29         6.8850   -1.2580    8.6250 ho        1 196      0.422000
@<TRIPOS>BOND
     1    1    2 ar  
     2    1    6 ar  
     3    1    7 1   
     4    2    3 ar  
     5    2    8 1   
     6    3    4 ar  
     7    3   22 1   
     8    4    5 ar  
     9    4    9 1   
    10    5    6 ar  
    11    5   23 1   
    12    6   24 1   
    13    7   25 1   
    14    9   10 ar  
    15    9   14 ar  
    16   10   11 ar  
    17   10   26 1   
    18   11   12 ar  
    19   11   15 ar  
    20   12   13 ar  
    21   12   18 ar  
    22   13   14 ar  
    23   13   19 1   
    24   14   27 1   
    25   15   16 ar  
    26   15   28 1   
    27   16   17 ar  
    28   16   29 1   
    29   17   18 ar  
    30   17   21 1   
    31   18   30 1   
    32   19   20 3   
    33   21   31 1   
@<TRIPOS>SUBSTRUCTURE
     1 196         1 TEMP              0 ****  ****    0 ROOT
