@<TRIPOS>MOLECULE
196
   31    24     1     0     0
SMALL
bcc


@<TRIPOS>ATOM
      1 C1         -3.2890    0.6990   -2.6630 c1        1 196      0.103600
      2 C2         -1.9130    0.5650   -2.7710 c1        1 196      0.004100
      3 C3         -1.1270    0.5480   -1.6300 c1        1 196     -0.055500
      4 C4         -1.7150    0.6640   -0.3810 c1        1 196     -0.053500
      5 C5         -3.0910    0.7980   -0.2730 c1        1 196     -0.026000
      6 C6         -3.8770    0.8160   -1.4140 c1        1 196     -0.107500
      7 O10        -4.0830    0.7620   -3.8230 oh        1 196     -0.471100
      8 F11        -1.3420    0.4790   -3.9800 f         1 196     -0.111100
      9 C12        -0.9320    0.6090    0.7620 c1        1 196     -0.053500
     10 C13        -0.4920   -0.7080    0.7760 c1        1 196     -0.026000
     11 C14         0.8550   -0.9980    1.0620 cg        1 196     -0.023500
     12 C15         1.7360    0.0240    1.3280 cg        1 196     -0.023500
     13 C16         1.2890    1.3590    1.3130 cg        1 196     -0.012000
     14 C17        -0.0410    1.6440    1.0310 c1        1 196     -0.002500
     15 C20         1.3040   -2.3320    1.0680 c1        1 196     -0.062000
     16 C21         2.6360   -2.6160    1.3420 c1        1 196     -0.107500
     17 C22         3.5270   -1.5820    1.6110 c1        1 196      0.103600
     18 C23         3.0860   -0.2650    1.6060 c1        1 196     -0.062000
     19 C27         1.8710    2.7480    1.4620 cg        1 196      0.230800
     20 N28         2.3090    3.7960    1.5740 n1        1 196     -0.361800
     21 O29         4.8420   -2.0120    1.8710 oh        1 196     -0.471100
     22 H3         -0.1580    0.4540   -1.7070 ha        1 196      0.095500
     23 H5         -3.5050    0.8800    0.6070 ha        1 196      0.085500
     24 H6         -4.8460    0.9100   -1.3370 ha        1 196      0.092000
     25 H10        -4.1680   -0.0530   -4.1680 ho        1 196      0.427000
     26 H13        -1.1220   -1.4350    0.6080 ha        1 196      0.085500
     27 H17        -0.3460    2.5710    1.0040 ha        1 196      0.091500
     28 H20         0.6790   -3.0580    0.8790 ha        1 196      0.094500
     29 H21         2.9470   -3.5420    1.3460 ha        1 196      0.092000
     30 H23         3.7110    0.4610    1.7940 ha        1 196      0.094500
     31 H29         5.2540   -2.1860    1.1020 ho        1 196      0.427000
@<TRIPOS>BOND
     1    1    6 3   
     2    1    7 1   
     3    2    3 3   
     4    2    8 1   
     5    3   22 1   
     6    4    5 3   
     7    5   23 1   
     8    6   24 1   
     9    7   25 1   
    10    9   10 3   
    11   10   26 1   
    12   11   12 1   
    13   11   15 3   
    14   12   18 3   
    15   13   14 3   
    16   13   19 1   
    17   14   27 1   
    18   15   28 1   
    19   16   17 3   
    20   16   29 1   
    21   17   21 1   
    22   18   30 1   
    23   19   20 3   
    24   21   31 1   
@<TRIPOS>SUBSTRUCTURE
     1 196         1 TEMP              0 ****  ****    0 ROOT
