@<TRIPOS>MOLECULE
196
   31    33     1     0     0
SMALL
bcc


@<TRIPOS>ATOM
      1 C1          0.0210   -0.0330   -0.0160 ca        1 196      0.097100
      2 C2          1.4380    0.0050   -0.0420 ca        1 196      0.104900
      3 C3          2.1470    0.0140    1.1680 ca        1 196     -0.127000
      4 C4          1.4640   -0.0130    2.3900 cp        1 196     -0.049000
      5 C5          0.0630   -0.0500    2.4000 ca        1 196     -0.094000
      6 C6         -0.6560   -0.0600    1.2090 ca        1 196     -0.190000
      7 O10        -0.6190   -0.0410   -1.2310 oh        1 196     -0.479100
      8 F11         2.1000    0.0340   -1.2200 f         1 196     -0.122900
      9 C12         2.2130   -0.0090    3.6450 cp        1 196     -0.055000
     10 C13         3.3590   -0.7670    3.7950 ca        1 196     -0.069000
     11 C14         4.0830   -0.7630    5.0130 ca        1 196     -0.073000
     12 C15         3.6310    0.0290    6.1000 ca        1 196      0.035000
     13 C16         2.4450    0.8080    5.9250 ca        1 196     -0.022000
     14 C17         1.7560    0.7860    4.7280 ca        1 196     -0.059000
     15 C20         5.2620   -1.5480    5.1680 ca        1 196     -0.084000
     16 C21         5.9640   -1.5470    6.3440 ca        1 196     -0.139000
     17 C22         5.5000   -0.7450    7.4290 ca        1 196      0.148100
     18 C23         4.3600    0.0280    7.3160 ca        1 196     -0.226000
     19 C27         1.9700    1.6140    6.9960 cg        1 196      0.237800
     20 N28         1.5730    2.2770    7.8670 n1        1 196     -0.367800
     21 O29         6.2620   -0.8030    8.5690 oh        1 196     -0.492100
     22 H3          3.2470    0.0520    1.1430 ha        1 196      0.155000
     23 H5         -0.4760   -0.0790    3.3600 ha        1 196      0.143000
     24 H6         -1.7550   -0.0920    1.2260 ha        1 196      0.142000
     25 H10        -1.5730   -0.0630   -1.0650 ho        1 196      0.424000
     26 H13         3.7250   -1.3930    2.9650 ha        1 196      0.143000
     27 H17         0.8470    1.3950    4.5970 ha        1 196      0.148000
     28 H20         5.6010   -2.1590    4.3170 ha        1 196      0.141000
     29 H21         6.8760   -2.1450    6.4820 ha        1 196      0.157000
     30 H23         4.0100    0.6430    8.1580 ha        1 196      0.148000
     31 H29         5.8590   -0.2240    9.2330 ho        1 196      0.426000
@<TRIPOS>BOND
     1    1    2 ar  
     2    1    6 ar  
     3    1    7 1   
     4    2    3 ar  
     5    2    8 1   
     6    3    4 ar  
     7    3   22 1   
     8    4    5 ar  
     9    4    9 1   
    10    5    6 ar  
    11    5   23 1   
    12    6   24 1   
    13    7   25 1   
    14    9   10 ar  
    15    9   14 ar  
    16   10   11 ar  
    17   10   26 1   
    18   11   12 ar  
    19   11   15 ar  
    20   12   13 ar  
    21   12   18 ar  
    22   13   14 ar  
    23   13   19 1   
    24   14   27 1   
    25   15   16 ar  
    26   15   28 1   
    27   16   17 ar  
    28   16   29 1   
    29   17   18 ar  
    30   17   21 1   
    31   18   30 1   
    32   19   20 3   
    33   21   31 1   
@<TRIPOS>SUBSTRUCTURE
     1 196         1 TEMP              0 ****  ****    0 ROOT
