@<TRIPOS>MOLECULE
196
   31    33     1     0     0
SMALL
bcc


@<TRIPOS>ATOM
      1 C1          0.0210   -0.0380   -0.0160 ca        1 196      0.097100
      2 C2          1.4380   -0.0020   -0.0420 ca        1 196      0.104900
      3 C3          2.1480    0.0080    1.1680 ca        1 196     -0.127000
      4 C4          1.4640   -0.0150    2.3890 cp        1 196     -0.049000
      5 C5          0.0630   -0.0490    2.4000 ca        1 196     -0.094000
      6 C6         -0.6550   -0.0620    1.2090 ca        1 196     -0.190000
      7 O10        -0.6180   -0.0490   -1.2310 oh        1 196     -0.479100
      8 F11         2.1000    0.0220   -1.2210 f         1 196     -0.122900
      9 C12         2.2130   -0.0090    3.6450 cp        1 196     -0.055000
     10 C13         3.3580   -0.7680    3.7960 ca        1 196     -0.069000
     11 C14         4.0820   -0.7630    5.0150 ca        1 196     -0.073000
     12 C15         3.6310    0.0330    6.1000 ca        1 196      0.035000
     13 C16         2.4460    0.8120    5.9230 ca        1 196     -0.022000
     14 C17         1.7580    0.7890    4.7260 ca        1 196     -0.059000
     15 C20         5.2600   -1.5490    5.1710 ca        1 196     -0.084000
     16 C21         5.9620   -1.5470    6.3470 ca        1 196     -0.139000
     17 C22         5.4990   -0.7420    7.4300 ca        1 196      0.148100
     18 C23         4.3600    0.0330    7.3160 ca        1 196     -0.226000
     19 C27         1.9720    1.6220    6.9920 cg        1 196      0.237800
     20 N28         1.5760    2.2870    7.8610 n1        1 196     -0.367800
     21 O29         6.2610   -0.7980    8.5710 oh        1 196     -0.492100
     22 H3          3.2480    0.0440    1.1430 ha        1 196      0.155000
     23 H5         -0.4760   -0.0750    3.3590 ha        1 196      0.143000
     24 H6         -1.7550   -0.0910    1.2260 ha        1 196      0.142000
     25 H10        -1.5730   -0.0680   -1.0650 ho        1 196      0.424000
     26 H13         3.7230   -1.3970    2.9670 ha        1 196      0.143000
     27 H17         0.8490    1.3990    4.5930 ha        1 196      0.148000
     28 H20         5.5980   -2.1630    4.3220 ha        1 196      0.141000
     29 H21         6.8730   -2.1460    6.4870 ha        1 196      0.157000
     30 H23         4.0110    0.6500    8.1560 ha        1 196      0.148000
     31 H29         5.8590   -0.2170    9.2340 ho        1 196      0.426000
@<TRIPOS>BOND
     1    1    2 ar  
     2    1    6 ar  
     3    1    7 1   
     4    2    3 ar  
     5    2    8 1   
     6    3    4 ar  
     7    3   22 1   
     8    4    5 ar  
     9    4    9 1   
    10    5    6 ar  
    11    5   23 1   
    12    6   24 1   
    13    7   25 1   
    14    9   10 ar  
    15    9   14 ar  
    16   10   11 ar  
    17   10   26 1   
    18   11   12 ar  
    19   11   15 ar  
    20   12   13 ar  
    21   12   18 ar  
    22   13   14 ar  
    23   13   19 1   
    24   14   27 1   
    25   15   16 ar  
    26   15   28 1   
    27   16   17 ar  
    28   16   29 1   
    29   17   18 ar  
    30   17   21 1   
    31   18   30 1   
    32   19   20 3   
    33   21   31 1   
@<TRIPOS>SUBSTRUCTURE
     1 196         1 TEMP              0 ****  ****    0 ROOT
