@<TRIPOS>MOLECULE
197
   75    78     1     0     0
SMALL
bcc


@<TRIPOS>ATOM
      1 C1          1.0010   -0.9250    2.7580 ca        1 197     -0.099000
      2 C2          2.3670   -1.2020    2.7490 ca        1 197     -0.083000
      3 C3          2.8240   -2.4910    2.4550 ca        1 197     -0.115600
      4 C4          1.9030   -3.5150    2.1860 ca        1 197     -0.157600
      5 C5          0.5340   -3.2300    2.2040 ca        1 197     -0.086000
      6 C6          0.0760   -1.9380    2.4830 ca        1 197     -0.106300
      7 C7         -1.3840   -1.6610    2.5480 c3        1 197     -0.063100
      8 C8         -2.0580   -1.8610    1.1740 c3        1 197      0.054700
      9 C9         -3.5700   -2.0320    1.4520 c         1 197      0.516100
     10 N10        -4.3590   -0.7750    1.6620 n4        1 197     -0.667800
     11 N11        -1.7680   -0.8870    0.1640 n         1 197     -0.581900
     12 C12        -1.7190    0.4910    0.3710 c         1 197      0.677100
     13 C13        -1.0490    1.3350   -0.6760 c3        1 197     -0.178100
     14 O14        -2.2710    0.9890    1.3780 o         1 197     -0.649100
     15 O15        -4.1380   -3.1070    1.5430 o         1 197     -0.402100
     16 C16        -5.6820   -0.9580    2.3390 c3        1 197      0.044500
     17 C17        -5.5950   -1.1260    3.8510 c3        1 197     -0.103400
     18 C18        -4.8050   -0.0850    4.6080 c3        1 197     -0.094400
     19 C19        -5.4060    1.2990    4.5530 c3        1 197     -0.111400
     20 C20        -5.3940    1.9110    3.1550 c3        1 197      0.080000
     21 N21        -6.4450    1.4720    2.2680 n         1 197     -0.452800
     22 C22        -6.6590    0.1660    1.9100 c         1 197      0.667500
     23 C23        -7.3860    2.4840    1.7920 c3        1 197      0.132300
     24 C24        -6.9210    3.1960    0.5570 ca        1 197     -0.136300
     25 O25        -7.6160   -0.1940    1.1990 o         1 197     -0.592500
     26 C46        -6.1880    4.3820    0.6520 ca        1 197     -0.114500
     27 C47        -5.7920    5.0560   -0.5000 ca        1 197     -0.125500
     28 C48        -6.1240    4.5550   -1.7670 cp        1 197     -0.008000
     29 C49        -6.8600    3.3640   -1.8560 ca        1 197     -0.125500
     30 C50        -7.2540    2.6890   -0.7040 ca        1 197     -0.114500
     31 C55        -5.7150    5.2660   -2.9760 cp        1 197     -0.059000
     32 C56        -5.2900    4.5570   -4.1090 ca        1 197     -0.115500
     33 C57        -4.9030    5.2390   -5.2610 ca        1 197     -0.127000
     34 C58        -4.9390    6.6330   -5.2970 ca        1 197     -0.114000
     35 C59        -5.3640    7.3450   -4.1760 ca        1 197     -0.127000
     36 C60        -5.7500    6.6680   -3.0200 ca        1 197     -0.115500
     37 C68         4.2850   -2.7370    2.4840 c         1 197      0.623700
     38 O69         4.8950   -3.3060    1.4020 oh        1 197     -0.562100
     39 O70         5.0490   -2.4650    3.4060 o         1 197     -0.442000
     40 C71         2.3400   -4.9070    1.9210 c         1 197      0.556500
     41 O72         1.5740   -5.7520    1.4580 o         1 197     -0.495100
     42 H1          0.6560    0.0930    3.0030 ha        1 197      0.151000
     43 H2          3.0960   -0.4100    2.9900 ha        1 197      0.173000
     44 H5         -0.1770   -4.0520    2.0110 ha        1 197      0.159000
     45 H71A       -1.5690   -0.6180    2.9240 hc        1 197      0.083700
     46 H72        -1.8560   -2.3800    3.2740 hc        1 197      0.083700
     47 H8         -1.7350   -2.8770    0.7720 h1        1 197      0.131700
     48 H10        -4.5140   -0.3420    0.7410 hn        1 197      0.480800
     49 H11        -1.2850   -1.2400   -0.6360 hn        1 197      0.342500
     50 H131        0.0440    1.1040   -0.7160 hc        1 197      0.093033
     51 H132       -1.1820    2.4140   -0.4090 hc        1 197      0.093033
     52 H133       -1.4980    1.1530   -1.6840 hc        1 197      0.093033
     53 H16        -6.1350   -1.9170    1.9170 hx        1 197      0.147700
     54 H171       -6.6570   -1.1340    4.2270 hc        1 197      0.090200
     55 H172       -5.1620   -2.1420    4.0680 hc        1 197      0.090200
     56 H181       -4.7700   -0.4090    5.6870 hc        1 197      0.055700
     57 H182       -3.7380   -0.0540    4.2600 hc        1 197      0.055700
     58 H191       -4.8030    1.9750    5.2190 hc        1 197      0.077200
     59 H192       -6.4500    1.2770    4.9630 hc        1 197      0.077200
     60 H201       -5.4940    3.0330    3.2690 h1        1 197      0.062700
     61 H202       -4.3870    1.7400    2.6730 h1        1 197      0.062700
     62 H231       -8.3760    1.9800    1.5790 h1        1 197      0.082700
     63 H232       -7.5510    3.2300    2.6220 h1        1 197      0.082700
     64 H46        -5.9310    4.7930    1.6400 ha        1 197      0.139000
     65 H47        -5.2180    5.9920   -0.4160 ha        1 197      0.146000
     66 H49        -7.1460    2.9710   -2.8450 ha        1 197      0.146000
     67 H50        -7.8430    1.7600   -0.7800 ha        1 197      0.139000
     68 H56        -5.2620    3.4580   -4.0880 ha        1 197      0.131500
     69 H57        -4.5720    4.6740   -6.1460 ha        1 197      0.139500
     70 H58        -4.6370    7.1690   -6.2090 ha        1 197      0.142000
     71 H59        -5.4010    8.4440   -4.2030 ha        1 197      0.139500
     72 H60        -6.0960    7.2350   -2.1430 ha        1 197      0.131500
     73 H71         3.4000   -5.1360    2.1730 h4        1 197      0.039200
     74 H102       -3.7720   -0.1170    2.2140 hn        1 197      0.480800
     75 H112        4.2580   -3.4330    0.6850 ho        1 197      0.429000
@<TRIPOS>BOND
     1    1    2 ar  
     2    1    6 ar  
     3    1   42 1   
     4    2    3 ar  
     5    2   43 1   
     6    3    4 ar  
     7    3   37 1   
     8    4    5 ar  
     9    4   40 1   
    10    5    6 ar  
    11    5   44 1   
    12    6    7 1   
    13    7    8 1   
    14    7   45 1   
    15    7   46 1   
    16    8    9 1   
    17    8   11 1   
    18    8   47 1   
    19    9   10 1   
    20    9   15 2   
    21   10   16 1   
    22   10   48 1   
    23   10   74 1   
    24   11   12 1   
    25   11   49 1   
    26   12   13 1   
    27   12   14 2   
    28   13   50 1   
    29   13   51 1   
    30   13   52 1   
    31   16   17 1   
    32   16   22 1   
    33   16   53 1   
    34   17   18 1   
    35   17   54 1   
    36   17   55 1   
    37   18   19 1   
    38   18   56 1   
    39   18   57 1   
    40   19   20 1   
    41   19   58 1   
    42   19   59 1   
    43   20   21 1   
    44   20   60 1   
    45   20   61 1   
    46   21   22 1   
    47   21   23 1   
    48   22   25 2   
    49   23   24 1   
    50   23   62 1   
    51   23   63 1   
    52   24   26 ar  
    53   24   30 ar  
    54   26   27 ar  
    55   26   64 1   
    56   27   28 ar  
    57   27   65 1   
    58   28   29 ar  
    59   28   31 1   
    60   29   30 ar  
    61   29   66 1   
    62   30   67 1   
    63   31   32 ar  
    64   31   36 ar  
    65   32   33 ar  
    66   32   68 1   
    67   33   34 ar  
    68   33   69 1   
    69   34   35 ar  
    70   34   70 1   
    71   35   36 ar  
    72   35   71 1   
    73   36   72 1   
    74   37   38 1   
    75   37   39 2   
    76   38   75 1   
    77   40   41 2   
    78   40   73 1   
@<TRIPOS>SUBSTRUCTURE
     1 197         1 TEMP              0 ****  ****    0 ROOT
