@<TRIPOS>MOLECULE
197
   73    67     1     0     0
SMALL
bcc


@<TRIPOS>ATOM
      1 C1          3.0980   -4.0970   -1.4070 c1        1 197     -0.135000
      2 C2          4.2060   -3.9200   -2.2520 c1        1 197     -0.130000
      3 C3          4.1670   -2.9630   -3.2560 c1        1 197     -0.044000
      4 C4          3.0290   -2.1790   -3.4270 c1        1 197     -0.160000
      5 C5          1.9250   -2.3540   -2.5850 c1        1 197     -0.087000
      6 C6          1.9640   -3.3150   -1.5760 c1        1 197     -0.148000
      7 C7          0.7370   -3.4870   -0.6020 c3        1 197     -0.118000
      8 C8          0.6670   -2.2910    0.3480 c3        1 197      0.011000
      9 C9         -0.7110   -2.2330    0.9930 c2        1 197      0.297000
     10 N10        -1.0090   -1.1920    1.9880 n         1 197     -0.371000
     11 N11         1.6660   -2.4280    1.3630 n         1 197     -0.355000
     12 C12         2.4300   -1.2630    1.7910 c2        1 197      0.307000
     13 C13         3.3580   -1.3550    3.0370 c3        1 197     -0.245000
     14 O14         2.3810   -0.2260    1.1400 o         1 197     -0.413000
     15 O15        -1.5230   -3.1450    0.7930 o         1 197     -0.370000
     16 C16        -2.3380   -1.2380    2.7870 c3        1 197      0.021000
     17 C17        -2.0250   -1.5750    4.3330 c3        1 197     -0.176000
     18 C18        -1.6080   -0.0890    5.2470 c3        1 197     -0.166000
     19 C19        -2.5760    1.2640    4.7350 c3        1 197     -0.179000
     20 C20        -2.2540    1.6390    3.3490 c3        1 197     -0.025000
     21 N21        -1.9180    0.7360    2.7730 n         1 197     -0.317000
     22 C22        -2.8390   -0.1670    2.7900 c2        1 197      0.298000
     23 C23        -0.8020    0.7380    1.8490 c3        1 197      0.005000
     24 C24        -0.8670    1.9900    0.9730 c2        1 197     -0.100000
     25 O25        -3.9120    0.0220    3.3430 o         1 197     -0.381000
     26 C46        -0.9950    3.3680    0.8430 c2        1 197     -0.125000
     27 C47        -1.2800    3.9300   -0.4100 c1        1 197     -0.125000
     28 C48        -1.4360    3.1100   -1.5190 c1        1 197     -0.036500
     29 C49        -1.3080    1.7260   -1.3870 c1        1 197     -0.121500
     30 C50        -1.0230    1.1670   -0.1410 c1        1 197     -0.112000
     31 C55        -1.7750    3.6820   -2.7950 c1        1 197     -0.036500
     32 C56        -3.0410    3.4660   -3.3410 c1        1 197     -0.128750
     33 C57        -3.3450    3.9510   -4.6210 c1        1 197     -0.128750
     34 C58        -2.3770    4.6540   -5.3520 c1        1 197     -0.128750
     35 C59        -1.1140    4.8700   -4.8090 c1        1 197     -0.128750
     36 C60        -0.8090    4.3840   -3.5260 c1        1 197     -0.121500
     37 C68         5.3830   -2.7520   -4.1580 c2        1 197      0.353000
     38 O69         5.5170   -3.4370   -5.1990 o         1 197     -0.550500
     39 O70         6.2300   -1.8480   -3.8790 o         1 197     -0.550500
     40 C71         3.0100   -1.1070   -4.4740 c2        1 197      0.223000
     41 O72         3.9950   -0.9240   -5.1790 o         1 197     -0.358000
     42 H1          3.1270   -4.7690   -0.7010 ha        1 197      0.113000
     43 H2          5.0020   -4.4690   -2.1330 ha        1 197      0.156000
     44 H5          1.1290   -1.8050   -2.7050 ha        1 197      0.137000
     45 H71A       -0.0940   -3.5390   -1.1270 hc        1 197      0.108500
     46 H72         0.8480   -4.3170   -0.0770 hc        1 197      0.108500
     47 H8          0.8230   -1.4840   -0.1450 h1        1 197      0.119000
     48 H10        -0.4150   -0.5430    2.1450 hn        1 197      0.253000
     49 H11         1.8920   -3.2610    1.6730 hn        1 197      0.241000
     50 H131        3.1740   -0.5810    3.6480 hc        1 197      0.110333
     51 H132        4.3020   -1.3280    2.7470 hc        1 197      0.110333
     52 H133        3.1880   -2.1800    3.5050 hc        1 197      0.110333
     53 H16        -2.8310   -1.9360    2.2910 h1        1 197      0.155000
     54 H171       -1.2680   -2.2070    4.3790 hc        1 197      0.093000
     55 H172       -2.8160   -1.9910    4.7370 hc        1 197      0.093000
     56 H181       -0.6620    0.1200    5.1040 hc        1 197      0.091000
     57 H182       -1.7620   -0.2500    6.2160 hc        1 197      0.091000
     58 H191       -2.4010    2.0280    5.3250 hc        1 197      0.088000
     59 H192       -3.5190    1.0230    4.7920 hc        1 197      0.088000
     60 H201       -3.0580    2.0220    2.9180 h1        1 197      0.097000
     61 H202       -1.5330    2.3120    3.3520 h1        1 197      0.097000
     62 H231        0.0370    0.7350    2.3510 h1        1 197      0.108500
     63 H232       -0.8450   -0.0440    1.2930 h1        1 197      0.108500
     64 H46        -0.8300    3.9500    1.6140 ha        1 197      0.131000
     65 H47        -1.3690    4.8900   -0.5010 ha        1 197      0.131000
     66 H49        -1.4190    1.1540   -2.1600 ha        1 197      0.134500
     67 H50        -0.9340    0.2010   -0.0490 ha        1 197      0.164000
     68 H56        -3.7210    2.9720   -2.8270 ha        1 197      0.130750
     69 H57        -4.2380    3.7980   -5.0050 ha        1 197      0.130750
     70 H58        -2.5900    4.9940   -6.2510 ha        1 197      0.130750
     71 H59        -0.4330    5.3640   -5.3230 ha        1 197      0.130750
     72 H60         0.0770    4.5350   -3.1450 ha        1 197      0.134500
     73 H71         2.2620   -0.4980   -4.5250 h4        1 197      0.165000
@<TRIPOS>BOND
     1    1    6 1   
     2    1   42 1   
     3    2    3 1   
     4    2   43 1   
     5    3   37 1   
     6    4    5 1   
     7    4   40 1   
     8    5   44 1   
     9    6    7 1   
    10    7    8 1   
    11    7   45 1   
    12    7   46 1   
    13    8    9 1   
    14    8   11 1   
    15    8   47 1   
    16    9   10 1   
    17    9   15 1   
    18   10   16 1   
    19   10   48 1   
    20   11   12 1   
    21   11   49 1   
    22   12   13 1   
    23   12   14 1   
    24   13   50 1   
    25   13   51 1   
    26   13   52 1   
    27   16   17 1   
    28   16   22 1   
    29   16   53 1   
    30   17   18 1   
    31   17   54 1   
    32   17   55 1   
    33   18   19 1   
    34   18   56 1   
    35   18   57 1   
    36   19   20 1   
    37   19   58 1   
    38   19   59 1   
    39   20   21 1   
    40   20   60 1   
    41   20   61 1   
    42   21   22 1   
    43   21   23 1   
    44   22   25 1   
    45   23   24 1   
    46   23   62 1   
    47   23   63 1   
    48   24   26 1   
    49   24   30 1   
    50   26   27 1   
    51   26   64 1   
    52   27   65 1   
    53   28   29 1   
    54   29   66 1   
    55   30   67 1   
    56   31   36 1   
    57   32   33 1   
    58   32   68 1   
    59   33   69 1   
    60   34   35 1   
    61   34   70 1   
    62   35   71 1   
    63   36   72 1   
    64   37   38 1   
    65   37   39 1   
    66   40   41 1   
    67   40   73 1   
@<TRIPOS>SUBSTRUCTURE
     1 197         1 TEMP              0 ****  ****    0 ROOT
