@<TRIPOS>MOLECULE
197
   75    78     1     0     0
SMALL
bcc


@<TRIPOS>ATOM
      1 C1          1.0150   -1.0860    2.6760 ca        1 197     -0.099000
      2 C2          2.3660   -1.4130    2.5910 ca        1 197     -0.113000
      3 C3          2.7650   -2.7070    2.2350 ca        1 197     -0.114600
      4 C4          1.7940   -3.6820    1.9620 ca        1 197     -0.128600
      5 C5          0.4380   -3.3450    2.0510 ca        1 197     -0.091000
      6 C6          0.0400   -2.0530    2.4030 ca        1 197     -0.103300
      7 C7         -1.4040   -1.7260    2.5460 c3        1 197     -0.063100
      8 C8         -2.1660   -1.9270    1.2180 c3        1 197      0.054700
      9 C9         -3.6630   -2.0280    1.5890 c         1 197      0.516100
     10 N10        -4.3940   -0.7340    1.7890 ny        1 197     -0.667800
     11 N11        -1.8950   -0.9900    0.1680 ns        1 197     -0.580900
     12 C12        -1.7770    0.3880    0.3380 c         1 197      0.677100
     13 C13        -1.1370    1.1800   -0.7680 c3        1 197     -0.178100
     14 O14        -2.2480    0.9330    1.3610 o         1 197     -0.649100
     15 O15        -4.2640   -3.0760    1.7610 o         1 197     -0.401100
     16 C16        -5.6920   -0.8420    2.5270 c3        1 197      0.044500
     17 C17        -5.5450   -0.9600    4.0390 c3        1 197     -0.103400
     18 C18        -4.6860    0.0750    4.7240 c3        1 197     -0.094400
     19 C19        -5.2360    1.4780    4.6440 c3        1 197     -0.111400
     20 C20        -5.2610    2.0410    3.2250 c3        1 197      0.080000
     21 N21        -6.3640    1.6140    2.3980 n         1 197     -0.453800
     22 C22        -6.6440    0.3040    2.0990 c         1 197      0.667500
     23 C23        -7.2860    2.6440    1.9250 c3        1 197      0.132300
     24 C24        -6.8480    3.2920    0.6460 ca        1 197     -0.136300
     25 O25        -7.6450   -0.0420    1.4450 o         1 197     -0.592500
     26 C46        -6.0660    4.4500    0.6650 ca        1 197     -0.114500
     27 C47        -5.6960    5.0670   -0.5270 ca        1 197     -0.125500
     28 C48        -6.1020    4.5330   -1.7600 cp        1 197     -0.008000
     29 C49        -6.8870    3.3700   -1.7720 ca        1 197     -0.125500
     30 C50        -7.2550    2.7540   -0.5800 ca        1 197     -0.114500
     31 C55        -5.7200    5.1840   -3.0110 cp        1 197     -0.059000
     32 C56        -5.3720    4.4190   -4.1330 ca        1 197     -0.115500
     33 C57        -5.0100    5.0420   -5.3250 ca        1 197     -0.127000
     34 C58        -4.9940    6.4340   -5.4120 ca        1 197     -0.114000
     35 C59        -5.3420    7.2020   -4.3010 ca        1 197     -0.127000
     36 C60        -5.7020    6.5840   -3.1060 ca        1 197     -0.115500
     37 C68         4.2130   -3.0220    2.1920 c         1 197      0.630700
     38 O69         5.0670   -2.1450    1.5900 oh        1 197     -0.556100
     39 O70         4.7670   -4.0120    2.6640 o         1 197     -0.457000
     40 C71         2.1520   -5.0770    1.5890 c         1 197      0.562500
     41 O72         1.3290   -5.8250    1.0600 o         1 197     -0.507100
     42 H1          0.7200   -0.0670    2.9740 ha        1 197      0.150000
     43 H2          3.1270   -0.6500    2.8280 ha        1 197      0.158000
     44 H5         -0.3090   -4.1330    1.8500 ha        1 197      0.160000
     45 H71A       -1.5330   -0.6700    2.9100 hc        1 197      0.084200
     46 H72        -1.8550   -2.4160    3.3120 hc        1 197      0.084200
     47 H8         -1.9100   -2.9660    0.8220 h1        1 197      0.132700
     48 H10        -3.7590   -0.0820    2.2910 hn        1 197      0.480800
     49 H11        -1.4730   -1.3820   -0.6470 hn        1 197      0.343500
     50 H131       -1.6670    1.0080   -1.7380 hc        1 197      0.093033
     51 H132       -0.0640    0.8870   -0.8820 hc        1 197      0.093033
     52 H133       -1.1920    2.2680   -0.5120 hc        1 197      0.093033
     53 H16        -6.1990   -1.7960    2.1610 hx        1 197      0.147700
     54 H171       -5.1400   -1.9830    4.2740 hc        1 197      0.090200
     55 H172       -6.5900   -0.9140    4.4600 hc        1 197      0.090200
     56 H181       -4.6160   -0.2120    5.8110 hc        1 197      0.055700
     57 H182       -3.6340    0.0530    4.3300 hc        1 197      0.055700
     58 H191       -4.5810    2.1540    5.2600 hc        1 197      0.077200
     59 H192       -6.2620    1.5110    5.0970 hc        1 197      0.077200
     60 H201       -5.3130    3.1690    3.3030 h1        1 197      0.062200
     61 H202       -4.2820    1.8140    2.7090 h1        1 197      0.062200
     62 H231       -7.3860    3.4260    2.7330 h1        1 197      0.082700
     63 H232       -8.3020    2.1730    1.7730 h1        1 197      0.082700
     64 H46        -5.7520    4.8870    1.6250 ha        1 197      0.139000
     65 H47        -5.0830    5.9810   -0.5030 ha        1 197      0.146000
     66 H49        -7.2300    2.9540   -2.7330 ha        1 197      0.146000
     67 H50        -7.8820    1.8470   -0.5960 ha        1 197      0.139000
     68 H56        -5.3850    3.3210   -4.0720 ha        1 197      0.131500
     69 H57        -4.7400    4.4340   -6.2020 ha        1 197      0.139500
     70 H58        -4.7120    6.9250   -6.3560 ha        1 197      0.142000
     71 H59        -5.3380    8.3010   -4.3690 ha        1 197      0.139500
     72 H60        -5.9870    7.1960   -2.2360 ha        1 197      0.131500
     73 H71         3.1920   -5.3950    1.8260 h4        1 197      0.064200
     74 H102       -4.5730   -0.3270    0.8600 hn        1 197      0.480800
     75 H112        4.5780   -1.4030    1.2070 ho        1 197      0.429000
@<TRIPOS>BOND
     1    1    2 ar  
     2    1    6 ar  
     3    1   42 1   
     4    2    3 ar  
     5    2   43 1   
     6    3    4 ar  
     7    3   37 1   
     8    4    5 ar  
     9    4   40 1   
    10    5    6 ar  
    11    5   44 1   
    12    6    7 1   
    13    7    8 1   
    14    7   45 1   
    15    7   46 1   
    16    8    9 1   
    17    8   11 1   
    18    8   47 1   
    19    9   10 1   
    20    9   15 2   
    21   10   16 1   
    22   10   48 1   
    23   10   74 1   
    24   11   12 1   
    25   11   49 1   
    26   12   13 1   
    27   12   14 2   
    28   13   50 1   
    29   13   51 1   
    30   13   52 1   
    31   16   17 1   
    32   16   22 1   
    33   16   53 1   
    34   17   18 1   
    35   17   54 1   
    36   17   55 1   
    37   18   19 1   
    38   18   56 1   
    39   18   57 1   
    40   19   20 1   
    41   19   58 1   
    42   19   59 1   
    43   20   21 1   
    44   20   60 1   
    45   20   61 1   
    46   21   22 1   
    47   21   23 1   
    48   22   25 2   
    49   23   24 1   
    50   23   62 1   
    51   23   63 1   
    52   24   26 ar  
    53   24   30 ar  
    54   26   27 ar  
    55   26   64 1   
    56   27   28 ar  
    57   27   65 1   
    58   28   29 ar  
    59   28   31 1   
    60   29   30 ar  
    61   29   66 1   
    62   30   67 1   
    63   31   32 ar  
    64   31   36 ar  
    65   32   33 ar  
    66   32   68 1   
    67   33   34 ar  
    68   33   69 1   
    69   34   35 ar  
    70   34   70 1   
    71   35   36 ar  
    72   35   71 1   
    73   36   72 1   
    74   37   38 1   
    75   37   39 2   
    76   38   75 1   
    77   40   41 2   
    78   40   73 1   
@<TRIPOS>SUBSTRUCTURE
     1 197         1 TEMP              0 ****  ****    0 ROOT
