@<TRIPOS>MOLECULE
197
   75    78     1     0     0
SMALL
bcc


@<TRIPOS>ATOM
      1 C1          1.0310   -0.9440    2.7790 ca        1 197     -0.099000
      2 C2          2.3920   -1.2390    2.7280 ca        1 197     -0.113000
      3 C3          2.8300   -2.5300    2.4090 ca        1 197     -0.114600
      4 C4          1.8900   -3.5350    2.1400 ca        1 197     -0.128600
      5 C5          0.5240   -3.2310    2.1940 ca        1 197     -0.091000
      6 C6          0.0870   -1.9420    2.5090 ca        1 197     -0.103300
      7 C7         -1.3680   -1.6480    2.6150 c3        1 197     -0.063100
      8 C8         -2.0960   -1.8960    1.2770 c3        1 197      0.054700
      9 C9         -3.5980   -2.0320    1.6200 c         1 197      0.516100
     10 N10        -4.3670   -0.7550    1.7840 n4        1 197     -0.667800
     11 N11        -1.8300   -0.9720    0.2150 n         1 197     -0.580900
     12 C12        -1.7540    0.4120    0.3600 c         1 197      0.677100
     13 C13        -1.1150    1.2000   -0.7490 c3        1 197     -0.178100
     14 O14        -2.2600    0.9620    1.3630 o         1 197     -0.649100
     15 O15        -4.1730   -3.0920    1.7980 o         1 197     -0.401100
     16 C16        -5.6750   -0.8850    2.5010 c3        1 197      0.044500
     17 C17        -5.5520   -0.9770    4.0170 c3        1 197     -0.103400
     18 C18        -4.7320    0.0910    4.7000 c3        1 197     -0.094400
     19 C19        -5.3170    1.4780    4.5890 c3        1 197     -0.111400
     20 C20        -5.3330    2.0180    3.1620 c3        1 197      0.080000
     21 N21        -6.4110    1.5490    2.3230 n         1 197     -0.452800
     22 C22        -6.6490    0.2280    2.0380 c         1 197      0.667500
     23 C23        -7.3520    2.5470    1.8210 c3        1 197      0.132300
     24 C24        -6.9090    3.1920    0.5410 ca        1 197     -0.136300
     25 O25        -7.6270   -0.1550    1.3690 o         1 197     -0.592500
     26 C46        -6.1650    4.3740    0.5610 ca        1 197     -0.114500
     27 C47        -5.7900    4.9870   -0.6310 ca        1 197     -0.125500
     28 C48        -6.1540    4.4260   -1.8650 cp        1 197     -0.008000
     29 C49        -6.9020    3.2390   -1.8780 ca        1 197     -0.125500
     30 C50        -7.2740    2.6260   -0.6850 ca        1 197     -0.114500
     31 C55        -5.7670    5.0730   -3.1160 cp        1 197     -0.059000
     32 C56        -5.3730    4.3050   -4.2210 ca        1 197     -0.115500
     33 C57        -5.0060    4.9250   -5.4140 ca        1 197     -0.127000
     34 C58        -5.0330    6.3160   -5.5190 ca        1 197     -0.114000
     35 C59        -5.4270    7.0860   -4.4250 ca        1 197     -0.127000
     36 C60        -5.7920    6.4710   -3.2290 ca        1 197     -0.115500
     37 C68         4.2860   -2.8090    2.4020 c         1 197      0.630700
     38 O69         5.1300   -1.9240    1.7960 oh        1 197     -0.556100
     39 O70         4.8550   -3.7730    2.9090 o         1 197     -0.457000
     40 C71         2.2900   -4.9280    1.8060 c         1 197      0.562500
     41 O72         1.4970   -5.7090    1.2790 o         1 197     -0.507100
     42 H1          0.7050    0.0730    3.0480 ha        1 197      0.150000
     43 H2          3.1290   -0.4520    2.9620 ha        1 197      0.158000
     44 H5         -0.1990   -4.0420    1.9960 ha        1 197      0.160000
     45 H71A       -1.8170   -2.3340    3.3870 hc        1 197      0.084200
     46 H72        -1.5300   -0.5890    2.9550 hc        1 197      0.084200
     47 H8         -1.8040   -2.9340    0.9070 h1        1 197      0.132700
     48 H10        -4.5400   -0.3690    0.8450 hn        1 197      0.480800
     49 H11        -1.3810   -1.3670   -0.5850 hn        1 197      0.343500
     50 H131       -1.6180    0.9950   -1.7260 hc        1 197      0.092700
     51 H132       -1.2060    2.2910   -0.5160 hc        1 197      0.092700
     52 H133       -0.0320    0.9360   -0.8360 hc        1 197      0.092700
     53 H16        -6.1490   -1.8590    2.1410 hx        1 197      0.147700
     54 H171       -6.6050   -0.9510    4.4190 hc        1 197      0.090200
     55 H172       -5.1250   -1.9850    4.2750 hc        1 197      0.090200
     56 H181       -3.6730    0.0910    4.3250 hc        1 197      0.055700
     57 H182       -4.6730   -0.1780    5.7930 hc        1 197      0.055700
     58 H191       -4.6910    2.1800    5.2040 hc        1 197      0.077200
     59 H192       -6.3510    1.4910    5.0250 hc        1 197      0.077200
     60 H201       -5.4160    3.1450    3.2200 h1        1 197      0.062200
     61 H202       -4.3400    1.8090    2.6640 h1        1 197      0.062200
     62 H231       -8.3520    2.0440    1.6550 h1        1 197      0.082700
     63 H232       -7.4890    3.3340    2.6160 h1        1 197      0.082700
     64 H46        -5.8830    4.8320    1.5220 ha        1 197      0.139000
     65 H47        -5.2060    5.9200   -0.6070 ha        1 197      0.146000
     66 H49        -7.2120    2.8000   -2.8390 ha        1 197      0.146000
     67 H50        -7.8720    1.7000   -0.7010 ha        1 197      0.139000
     68 H56        -5.3530    3.2080   -4.1460 ha        1 197      0.131500
     69 H57        -4.7000    4.3140   -6.2770 ha        1 197      0.139500
     70 H58        -4.7470    6.8030   -6.4630 ha        1 197      0.142000
     71 H59        -5.4560    8.1830   -4.5070 ha        1 197      0.139500
     72 H60        -6.1140    7.0840   -2.3740 ha        1 197      0.131500
     73 H71         3.3330   -5.2140    2.0700 h4        1 197      0.064200
     74 H102       -3.7590   -0.0770    2.2850 hn        1 197      0.480800
     75 H112        4.6300   -1.2040    1.3870 ho        1 197      0.429000
@<TRIPOS>BOND
     1    1    2 ar  
     2    1    6 ar  
     3    1   42 1   
     4    2    3 ar  
     5    2   43 1   
     6    3    4 ar  
     7    3   37 1   
     8    4    5 ar  
     9    4   40 1   
    10    5    6 ar  
    11    5   44 1   
    12    6    7 1   
    13    7    8 1   
    14    7   45 1   
    15    7   46 1   
    16    8    9 1   
    17    8   11 1   
    18    8   47 1   
    19    9   10 1   
    20    9   15 2   
    21   10   16 1   
    22   10   48 1   
    23   10   74 1   
    24   11   12 1   
    25   11   49 1   
    26   12   13 1   
    27   12   14 2   
    28   13   50 1   
    29   13   51 1   
    30   13   52 1   
    31   16   17 1   
    32   16   22 1   
    33   16   53 1   
    34   17   18 1   
    35   17   54 1   
    36   17   55 1   
    37   18   19 1   
    38   18   56 1   
    39   18   57 1   
    40   19   20 1   
    41   19   58 1   
    42   19   59 1   
    43   20   21 1   
    44   20   60 1   
    45   20   61 1   
    46   21   22 1   
    47   21   23 1   
    48   22   25 2   
    49   23   24 1   
    50   23   62 1   
    51   23   63 1   
    52   24   26 ar  
    53   24   30 ar  
    54   26   27 ar  
    55   26   64 1   
    56   27   28 ar  
    57   27   65 1   
    58   28   29 ar  
    59   28   31 1   
    60   29   30 ar  
    61   29   66 1   
    62   30   67 1   
    63   31   32 ar  
    64   31   36 ar  
    65   32   33 ar  
    66   32   68 1   
    67   33   34 ar  
    68   33   69 1   
    69   34   35 ar  
    70   34   70 1   
    71   35   36 ar  
    72   35   71 1   
    73   36   72 1   
    74   37   38 1   
    75   37   39 2   
    76   38   75 1   
    77   40   41 2   
    78   40   73 1   
@<TRIPOS>SUBSTRUCTURE
     1 197         1 TEMP              0 ****  ****    0 ROOT
