@<TRIPOS>MOLECULE
197
   73    76     1     0     0
SMALL
bcc


@<TRIPOS>ATOM
      1 C1         -0.2000    0.1350   -1.7410 ca        1 197     -0.118000
      2 C2         -0.3520   -1.1990   -2.0950 ca        1 197     -0.139000
      3 C3         -1.5580   -1.6640   -2.6380 ca        1 197     -0.064600
      4 C4         -2.5760   -0.7410   -2.9140 ca        1 197     -0.190600
      5 C5         -2.4030    0.6130   -2.5920 ca        1 197     -0.096000
      6 C6         -1.2430    1.0530   -1.9550 ca        1 197     -0.156300
      7 C7         -1.0590    2.4600   -1.5080 c3        1 197     -0.030100
      8 C8         -2.2900    3.0550   -0.8100 c3        1 197      0.036700
      9 C9         -2.5430    2.4980    0.6220 c         1 197      0.631100
     10 N10        -2.2580    1.1790    0.8830 n         1 197     -0.539900
     11 N11        -2.3240    4.5040   -0.8180 n         1 197     -0.524900
     12 C12        -1.1990    5.3130   -0.6600 c         1 197      0.649100
     13 C13        -1.4650    6.7640   -0.3240 c3        1 197     -0.180100
     14 O14        -0.0350    4.9140   -0.8550 o         1 197     -0.598100
     15 O15        -3.0520    3.2400    1.4930 o         1 197     -0.646100
     16 C16        -2.7440    0.5210    2.0690 c3        1 197      0.040700
     17 C17        -3.9780   -0.3680    1.8640 c3        1 197     -0.096400
     18 C18        -3.9280   -1.3240    0.6960 c3        1 197     -0.080400
     19 C19        -2.9650   -2.4730    0.8720 c3        1 197     -0.117400
     20 C20        -1.5160   -2.0320    1.0390 c3        1 197      0.090000
     21 N21        -1.1660   -1.4740    2.3270 n         1 197     -0.459800
     22 C22        -1.6370   -0.2680    2.8040 c         1 197      0.691500
     23 C23        -0.1950   -2.2070    3.1140 c3        1 197      0.135300
     24 C24         1.2390   -1.9380    2.7520 ca        1 197     -0.102300
     25 O25        -1.2180    0.1900    3.8910 o         1 197     -0.673500
     26 C46         1.9720   -2.8630    2.0030 ca        1 197     -0.115000
     27 C47         3.3110   -2.6200    1.7050 ca        1 197     -0.122500
     28 C48         3.9330   -1.4430    2.1430 cp        1 197     -0.046000
     29 C49         3.1890   -0.5120    2.8830 ca        1 197     -0.122500
     30 C50         1.8530   -0.7580    3.1850 ca        1 197     -0.115000
     31 C55         5.3370   -1.1860    1.8290 cp        1 197     -0.025000
     32 C56         5.7590    0.1010    1.4620 ca        1 197     -0.119500
     33 C57         7.0980    0.3430    1.1620 ca        1 197     -0.133000
     34 C58         8.0310   -0.6920    1.2260 ca        1 197     -0.136000
     35 C59         7.6190   -1.9740    1.5890 ca        1 197     -0.133000
     36 C60         6.2810   -2.2220    1.8880 ca        1 197     -0.119500
     37 C68        -1.7370   -3.1670   -2.8340 c         1 197      0.902200
     38 O69        -0.8980   -3.7800   -3.5420 o         1 197     -0.814800
     39 O70        -2.7130   -3.7060   -2.2360 o         1 197     -0.814800
     40 C71        -3.8410   -1.1970   -3.5180 c         1 197      0.582500
     41 O72        -4.7450   -0.4220   -3.8560 o         1 197     -0.591100
     42 H1          0.7400    0.4800   -1.2840 ha        1 197      0.128000
     43 H2          0.4690   -1.9180   -1.9460 ha        1 197      0.150000
     44 H5         -3.2120    1.3160   -2.8500 ha        1 197      0.137000
     45 H71A       -0.8170    3.0890   -2.4100 hc        1 197      0.076700
     46 H72        -0.1760    2.5380   -0.8170 hc        1 197      0.076700
     47 H8         -3.2160    2.7370   -1.3890 h1        1 197      0.082700
     48 H10        -1.9300    0.5980    0.1430 hn        1 197      0.336500
     49 H11        -3.1480    4.8570   -0.3730 hn        1 197      0.304500
     50 H131       -0.4970    7.3210   -0.3440 hc        1 197      0.063033
     51 H132       -2.1640    7.2220   -1.0640 hc        1 197      0.063033
     52 H133       -1.9100    6.8430    0.6980 hc        1 197      0.063033
     53 H16        -3.0420    1.3360    2.8080 h1        1 197      0.111700
     54 H171       -4.8640    0.3100    1.7300 hc        1 197      0.047700
     55 H172       -4.1380   -0.9440    2.8140 hc        1 197      0.047700
     56 H181       -3.6850   -0.7790   -0.2560 hc        1 197      0.050200
     57 H182       -4.9590   -1.7530    0.5560 hc        1 197      0.050200
     58 H191       -3.0020   -3.1110   -0.0640 hc        1 197      0.080200
     59 H192       -3.2820   -3.1090    1.7380 hc        1 197      0.080200
     60 H201       -1.2530   -1.3010    0.2200 h1        1 197      0.059200
     61 H202       -0.8620   -2.9390    0.8680 h1        1 197      0.059200
     62 H231       -0.3390   -1.9360    4.2030 h1        1 197      0.063200
     63 H232       -0.4080   -3.3090    2.9980 h1        1 197      0.063200
     64 H46         1.4880   -3.7830    1.6390 ha        1 197      0.149000
     65 H47         3.8780   -3.3480    1.1060 ha        1 197      0.132500
     66 H49         3.6660    0.4170    3.2290 ha        1 197      0.132500
     67 H50         1.2610   -0.0240    3.7590 ha        1 197      0.149000
     68 H56         5.0240    0.9180    1.4010 ha        1 197      0.137000
     69 H57         7.4180    1.3540    0.8700 ha        1 197      0.126500
     70 H58         9.0860   -0.4990    0.9880 ha        1 197      0.124000
     71 H59         8.3510   -2.7930    1.6390 ha        1 197      0.126500
     72 H60         5.9590   -3.2340    2.1750 ha        1 197      0.137000
     73 H71        -3.9350   -2.3030   -3.6360 h4        1 197      0.056200
@<TRIPOS>BOND
     1    1    2 ar  
     2    1    6 ar  
     3    1   42 1   
     4    2    3 ar  
     5    2   43 1   
     6    3    4 ar  
     7    3   37 1   
     8    4    5 ar  
     9    4   40 1   
    10    5    6 ar  
    11    5   44 1   
    12    6    7 1   
    13    7    8 1   
    14    7   45 1   
    15    7   46 1   
    16    8    9 1   
    17    8   11 1   
    18    8   47 1   
    19    9   10 1   
    20    9   15 2   
    21   10   16 1   
    22   10   48 1   
    23   11   12 1   
    24   11   49 1   
    25   12   13 1   
    26   12   14 2   
    27   13   50 1   
    28   13   51 1   
    29   13   52 1   
    30   16   17 1   
    31   16   22 1   
    32   16   53 1   
    33   17   18 1   
    34   17   54 1   
    35   17   55 1   
    36   18   19 1   
    37   18   56 1   
    38   18   57 1   
    39   19   20 1   
    40   19   58 1   
    41   19   59 1   
    42   20   21 1   
    43   20   60 1   
    44   20   61 1   
    45   21   22 1   
    46   21   23 1   
    47   22   25 2   
    48   23   24 1   
    49   23   62 1   
    50   23   63 1   
    51   24   26 ar  
    52   24   30 ar  
    53   26   27 ar  
    54   26   64 1   
    55   27   28 ar  
    56   27   65 1   
    57   28   29 ar  
    58   28   31 1   
    59   29   30 ar  
    60   29   66 1   
    61   30   67 1   
    62   31   32 ar  
    63   31   36 ar  
    64   32   33 ar  
    65   32   68 1   
    66   33   34 ar  
    67   33   69 1   
    68   34   35 ar  
    69   34   70 1   
    70   35   36 ar  
    71   35   71 1   
    72   36   72 1   
    73   37   38 1   
    74   37   39 1   
    75   40   41 2   
    76   40   73 1   
@<TRIPOS>SUBSTRUCTURE
     1 197         1 TEMP              0 ****  ****    0 ROOT
