@<TRIPOS>MOLECULE
198
   43    38     1     0     0
SMALL
bcc


@<TRIPOS>ATOM
      1 C16         4.6440    2.9910   -0.1820 c1        1 198      0.012000
      2 C17         6.0060    2.8190    0.0040 c1        1 198     -0.193000
      3 C18         6.4750    2.1900    1.1470 c1        1 198      0.167000
      4 F18         7.7920    2.0200    1.3260 f         1 198     -0.088000
      5 C19         5.5820    1.7330    2.1030 c2        1 198     -0.193000
      6 C20         4.2190    1.9060    1.9170 c1        1 198      0.011000
      7 C15         3.7500    2.5340    0.7740 c1        1 198     -0.866000
      8 S14         2.0080    2.7670    0.5420 s4        1 198      2.082800
      9 O14         1.3480    3.0390    1.7890 o         1 198     -0.538400
     10 O15         1.7360    3.9750   -0.1880 o         1 198     -0.538400
     11 C13         1.3020    1.3540   -0.2650 c2        1 198     -0.883000
     12 C11        -0.2020    1.3810   -0.1050 c3        1 198      0.118000
     13 O11        -0.5320    1.9640    1.1320 oh        1 198     -0.325000
     14 C12        -0.8140    2.1930   -1.2240 c3        1 198     -0.227000
     15 C10        -0.7400   -0.0320   -0.1550 c2        1 198      0.283000
     16 O10         0.0160   -0.9640   -0.3470 o         1 198     -0.345000
     17 N9         -2.1300   -0.2690    0.0100 n         1 198     -0.313000
     18 C1         -2.6360   -1.5930   -0.0500 c2        1 198      0.101000
     19 C2         -3.5000   -1.9570   -1.0710 c2        1 198     -0.150000
     20 C6         -2.3480   -2.4900    0.9660 c1        1 198     -0.144000
     21 C5         -2.9230   -3.7520    0.9610 c1        1 198     -0.070000
     22 C4         -3.7860   -4.1160   -0.0600 c1        1 198      0.007000
     23 C8         -4.4290   -5.4850   -0.0550 c1        1 198     -0.110000
     24 N8         -4.9130   -6.5180   -0.0510 n1        1 198     -0.004000
     25 C3         -4.0750   -3.2190   -1.0760 c2        1 198     -0.092000
     26 C7         -5.0470   -3.6030   -2.1700 c3        1 198      0.465000
     27 F7B        -5.2820   -2.5410   -2.9520 f         1 198     -0.158000
     28 F7C        -4.5240   -4.5920   -2.9050 f         1 198     -0.158000
     29 F7A        -6.1970   -4.0150   -1.6210 f         1 198     -0.158000
     30 H16         4.3140    3.4340   -0.9870 ha        1 198      0.163000
     31 H17         6.6360    3.1400   -0.6690 ha        1 198      0.163000
     32 H19         5.9120    1.2900    2.9080 ha        1 198      0.163000
     33 H20         3.5900    1.5840    2.5910 ha        1 198      0.161000
     34 H131        1.6580    0.5370    0.1370 ha        1 198      0.170500
     35 H132        1.5290    1.3750   -1.2170 ha        1 198      0.170500
     36 H11        -0.7380    1.3260    1.7160 ho        1 198      0.234000
     37 H121       -0.5230    3.1260   -1.1480 hc        1 198      0.108333
     38 H122       -0.5250    1.8300   -2.0870 hc        1 198      0.108333
     39 H123       -1.7920    2.1500   -1.1620 hc        1 198      0.108333
     40 HN9        -2.6980    0.4310    0.1460 hn        1 198      0.255000
     41 H2         -3.7040   -1.3260   -1.7870 ha        1 198      0.161000
     42 H6         -1.7390   -2.2340    1.6850 ha        1 198      0.185000
     43 H5         -2.7190   -4.3840    1.6770 ha        1 198      0.157000
@<TRIPOS>BOND
     1    1    7 1   
     2    1   30 1   
     3    2    3 1   
     4    2   31 1   
     5    3    5 1   
     6    5    6 1   
     7    5   32 1   
     8    6   33 1   
     9    7    8 1   
    10    8    9 1   
    11    8   10 1   
    12   11   12 1   
    13   11   34 1   
    14   11   35 1   
    15   12   13 1   
    16   12   14 1   
    17   12   15 1   
    18   13   36 1   
    19   14   37 1   
    20   14   38 1   
    21   14   39 1   
    22   15   16 1   
    23   15   17 1   
    24   17   18 1   
    25   17   40 1   
    26   18   19 1   
    27   18   20 1   
    28   19   25 1   
    29   19   41 1   
    30   20   42 1   
    31   21   22 1   
    32   21   43 1   
    33   22   25 1   
    34   23   24 1   
    35   25   26 1   
    36   26   27 1   
    37   26   28 1   
    38   26   29 1   
@<TRIPOS>SUBSTRUCTURE
     1 198         1 TEMP              0 ****  ****    0 ROOT
