@<TRIPOS>MOLECULE
198
   43    44     1     0     0
SMALL
bcc


@<TRIPOS>ATOM
      1 C16         5.2740   -0.6080   -0.9630 ca        1 198      0.012000
      2 C17         6.0530   -1.7450   -0.8030 ca        1 198     -0.193000
      3 C18         6.2170   -2.2900    0.4860 ca        1 198      0.202900
      4 F18         6.9700   -3.3970    0.6570 f         1 198     -0.122900
      5 C19         5.6020   -1.6800    1.5980 ca        1 198     -0.193000
      6 C20         4.8290   -0.5440    1.4050 ca        1 198      0.012000
      7 C15         4.6440    0.0080    0.1290 ca        1 198     -0.421500
      8 S14         3.7360    1.3910   -0.0810 sy        1 198      1.402300
      9 O14         3.6830    2.1250    1.1140 o         1 198     -0.651800
     10 O15         4.1120    2.0420   -1.2600 o         1 198     -0.651800
     11 C13         2.1860    0.6620   -0.2810 c3        1 198     -0.343600
     12 C11         1.0170    1.6110   -0.5260 c3        1 198      0.139800
     13 O11         1.0740    2.7660    0.2980 oh        1 198     -0.598800
     14 C12         0.9920    2.1110   -1.9680 c3        1 198     -0.109100
     15 C10        -0.3030    0.8290   -0.2700 c         1 198      0.637100
     16 O10        -0.3290   -0.4110   -0.3440 o         1 198     -0.578100
     17 N9         -1.4200    1.6060   -0.0040 n         1 198     -0.459100
     18 C1         -2.7260    1.1710    0.2460 ca        1 198      0.094600
     19 C2         -3.1230   -0.1820    0.1400 ca        1 198     -0.129000
     20 C6         -3.7000    2.1330    0.6130 ca        1 198     -0.167000
     21 C5         -5.0100    1.7520    0.8620 ca        1 198     -0.069000
     22 C4         -5.4000    0.4090    0.7560 ca        1 198      0.003000
     23 C8         -6.7510    0.0610    1.0210 cg        1 198      0.219800
     24 N8         -7.8610   -0.2120    1.2400 n1        1 198     -0.329800
     25 C3         -4.4420   -0.5490    0.3920 ca        1 198     -0.101300
     26 C7         -4.8270   -2.0260    0.2690 c3        1 198      0.686200
     27 F7B        -3.8160   -2.8490   -0.1650 f         1 198     -0.228967
     28 F7C        -5.2380   -2.6000    1.4470 f         1 198     -0.228967
     29 F7A        -5.8510   -2.2720   -0.6130 f         1 198     -0.228967
     30 H16         5.1570   -0.1660   -1.9710 ha        1 198      0.162000
     31 H17         6.5430   -2.2210   -1.6650 ha        1 198      0.163000
     32 H19         5.7420   -2.1060    2.6020 ha        1 198      0.163000
     33 H20         4.3590   -0.0520    2.2770 ha        1 198      0.162000
     34 H131        1.9420    0.0410    0.6260 h1        1 198      0.132200
     35 H132        2.1840   -0.0750   -1.1300 h1        1 198      0.132200
     36 H11         1.4050    2.5090    1.1720 ho        1 198      0.435000
     37 H121        1.9900    2.5370   -2.2380 hc        1 198      0.069033
     38 H122        0.7500    1.2660   -2.6540 hc        1 198      0.069033
     39 H123        0.2230    2.9130   -2.0780 hc        1 198      0.069033
     40 HN9        -1.2620    2.5910    0.0750 hn        1 198      0.340500
     41 H2         -2.3920   -0.9620   -0.1450 ha        1 198      0.198000
     42 H6         -3.4280    3.1970    0.7060 ha        1 198      0.147000
     43 H5         -5.7550    2.5130    1.1460 ha        1 198      0.155000
@<TRIPOS>BOND
     1    1    2 ar  
     2    1    7 ar  
     3    1   30 1   
     4    2    3 ar  
     5    2   31 1   
     6    3    4 1   
     7    3    5 ar  
     8    5    6 ar  
     9    5   32 1   
    10    6    7 ar  
    11    6   33 1   
    12    7    8 1   
    13    8    9 2   
    14    8   10 2   
    15    8   11 1   
    16   11   12 1   
    17   11   34 1   
    18   11   35 1   
    19   12   13 1   
    20   12   14 1   
    21   12   15 1   
    22   13   36 1   
    23   14   37 1   
    24   14   38 1   
    25   14   39 1   
    26   15   16 2   
    27   15   17 1   
    28   17   18 1   
    29   17   40 1   
    30   18   19 ar  
    31   18   20 ar  
    32   19   25 ar  
    33   19   41 1   
    34   20   21 ar  
    35   20   42 1   
    36   21   22 ar  
    37   21   43 1   
    38   22   23 1   
    39   22   25 ar  
    40   23   24 3   
    41   25   26 1   
    42   26   27 1   
    43   26   28 1   
    44   26   29 1   
@<TRIPOS>SUBSTRUCTURE
     1 198         1 TEMP              0 ****  ****    0 ROOT
