@<TRIPOS>MOLECULE
198
   43    44     1     0     0
SMALL
bcc


@<TRIPOS>ATOM
      1 C16         0.1500    0.0420    0.0880 ca        1 198      0.013500
      2 C17         1.4930   -0.1320    0.3920 ca        1 198     -0.194000
      3 C18         1.8720   -0.3580    1.7310 ca        1 198      0.202900
      4 F18         3.1730   -0.5310    2.0420 f         1 198     -0.122900
      5 C19         0.8950   -0.4020    2.7460 ca        1 198     -0.194000
      6 C20        -0.4400   -0.2250    2.4100 ca        1 198      0.013500
      7 C15        -0.8380   -0.0090    1.0830 ca        1 198     -0.420500
      8 S14        -2.4400    0.2330    0.7010 sy        1 198      1.396300
      9 O14        -3.1390    0.7670    1.8000 o         1 198     -0.659800
     10 O15        -2.5560    0.9060   -0.5210 o         1 198     -0.659800
     11 C13        -2.9550   -1.3940    0.4910 c3        1 198     -0.352600
     12 C11        -4.3720   -1.7250    0.9630 c3        1 198      0.147800
     13 O11        -4.4560   -1.6250    2.3780 oh        1 198     -0.621800
     14 C12        -5.4150   -0.8480    0.2790 c3        1 198     -0.146100
     15 C10        -4.6710   -3.1990    0.5720 c         1 198      0.673100
     16 O10        -4.1610   -3.6790   -0.4540 o         1 198     -0.579100
     17 N9         -5.5660   -3.8880    1.3770 ns        1 198     -0.453100
     18 C1         -5.9710   -5.2210    1.2410 ca        1 198      0.092600
     19 C2         -5.7330   -5.9830    0.0740 ca        1 198     -0.126000
     20 C6         -6.6780   -5.8260    2.3090 ca        1 198     -0.166000
     21 C5         -7.1250   -7.1350    2.2080 ca        1 198     -0.070000
     22 C4         -6.8860   -7.8890    1.0500 ca        1 198      0.003000
     23 C8         -7.3590   -9.2270    0.9890 cg        1 198      0.219800
     24 N8         -7.7520  -10.3210    0.9500 n1        1 198     -0.330800
     25 C3         -6.1870   -7.2970   -0.0130 ca        1 198     -0.101300
     26 C7         -5.9020   -8.0860   -1.2940 c3        1 198      0.686200
     27 F7B        -5.3160   -7.3570   -2.2990 f         1 198     -0.228967
     28 F7C        -5.0530   -9.1510   -1.1180 f         1 198     -0.228967
     29 F7A        -7.0170   -8.6260   -1.8860 f         1 198     -0.228967
     30 H16        -0.1500    0.2370   -0.9590 ha        1 198      0.163500
     31 H17         2.2610   -0.0920   -0.3940 ha        1 198      0.163500
     32 H19         1.2000   -0.5700    3.7900 ha        1 198      0.163500
     33 H20        -1.2070   -0.2430    3.2060 ha        1 198      0.163500
     34 H131       -2.9010   -1.6790   -0.6000 h1        1 198      0.141200
     35 H132       -2.2690   -2.1160    1.0110 h1        1 198      0.141200
     36 H11        -4.4820   -0.6810    2.6070 ho        1 198      0.453000
     37 H121       -5.3960   -1.0190   -0.8250 hc        1 198      0.068700
     38 H122       -6.4310   -1.0930    0.6700 hc        1 198      0.068700
     39 H123       -5.2060    0.2310    0.4850 hc        1 198      0.068700
     40 HN9        -5.8200   -3.4400    2.2350 hn        1 198      0.341500
     41 H2         -5.1820   -5.5460   -0.7800 ha        1 198      0.197000
     42 H6         -6.8810   -5.2640    3.2350 ha        1 198      0.147000
     43 H5         -7.6740   -7.5910    3.0480 ha        1 198      0.155000
@<TRIPOS>BOND
     1    1    2 ar  
     2    1    7 ar  
     3    1   30 1   
     4    2    3 ar  
     5    2   31 1   
     6    3    4 1   
     7    3    5 ar  
     8    5    6 ar  
     9    5   32 1   
    10    6    7 ar  
    11    6   33 1   
    12    7    8 1   
    13    8    9 2   
    14    8   10 2   
    15    8   11 1   
    16   11   12 1   
    17   11   34 1   
    18   11   35 1   
    19   12   13 1   
    20   12   14 1   
    21   12   15 1   
    22   13   36 1   
    23   14   37 1   
    24   14   38 1   
    25   14   39 1   
    26   15   16 2   
    27   15   17 1   
    28   17   18 1   
    29   17   40 1   
    30   18   19 ar  
    31   18   20 ar  
    32   19   25 ar  
    33   19   41 1   
    34   20   21 ar  
    35   20   42 1   
    36   21   22 ar  
    37   21   43 1   
    38   22   23 1   
    39   22   25 ar  
    40   23   24 3   
    41   25   26 1   
    42   26   27 1   
    43   26   28 1   
    44   26   29 1   
@<TRIPOS>SUBSTRUCTURE
     1 198         1 TEMP              0 ****  ****    0 ROOT
