@<TRIPOS>MOLECULE
198
   43    44     1     0     0
SMALL
bcc


@<TRIPOS>ATOM
      1 C16         0.1480    0.0590    0.0110 ca        1 198      0.013500
      2 C17         1.4960   -0.1120    0.2940 ca        1 198     -0.194000
      3 C18         1.8970   -0.3380    1.6260 ca        1 198      0.202900
      4 F18         3.2040   -0.5080    1.9160 f         1 198     -0.122900
      5 C19         0.9360   -0.3850    2.6570 ca        1 198     -0.194000
      6 C20        -0.4040   -0.2110    2.3430 ca        1 198      0.013500
      7 C15        -0.8230    0.0060    1.0220 ca        1 198     -0.420500
      8 S14        -2.4320    0.2440    0.6650 sy        1 198      1.396300
      9 O14        -3.1160    0.7730    1.7770 o         1 198     -0.659800
     10 O15        -2.5680    0.9200   -0.5530 o         1 198     -0.659800
     11 C13        -2.9460   -1.3830    0.4590 c3        1 198     -0.352600
     12 C11        -4.3570   -1.7180    0.9480 c3        1 198      0.147800
     13 O11        -4.4220   -1.6220    2.3650 oh        1 198     -0.621800
     14 C12        -5.4090   -0.8410    0.2810 c3        1 198     -0.146100
     15 C10        -4.6580   -3.1920    0.5570 c         1 198      0.673100
     16 O10        -4.1600   -3.6680   -0.4760 o         1 198     -0.579100
     17 N9         -5.5430   -3.8840    1.3710 n         1 198     -0.453100
     18 C1         -5.9490   -5.2160    1.2350 ca        1 198      0.092600
     19 C2         -5.7250   -5.9740    0.0630 ca        1 198     -0.126000
     20 C6         -6.6430   -5.8250    2.3100 ca        1 198     -0.166000
     21 C5         -7.0900   -7.1340    2.2100 ca        1 198     -0.070000
     22 C4         -6.8650   -7.8840    1.0460 ca        1 198      0.003000
     23 C8         -7.3380   -9.2220    0.9870 cg        1 198      0.219800
     24 N8         -7.7300  -10.3160    0.9500 n1        1 198     -0.330800
     25 C3         -6.1790   -7.2880   -0.0230 ca        1 198     -0.101300
     26 C7         -5.9090   -8.0730   -1.3100 c3        1 198      0.686200
     27 F7B        -5.3350   -7.3400   -2.3200 f         1 198     -0.228967
     28 F7C        -5.0580   -9.1390   -1.1480 f         1 198     -0.228967
     29 F7A        -7.0320   -8.6110   -1.8900 f         1 198     -0.228967
     30 H16        -0.1680    0.2550   -1.0310 ha        1 198      0.163500
     31 H17         2.2520   -0.0690   -0.5040 ha        1 198      0.163500
     32 H19         1.2580   -0.5530    3.6960 ha        1 198      0.163500
     33 H20        -1.1590   -0.2310    3.1500 ha        1 198      0.163500
     34 H131       -2.2520   -2.1040    0.9690 h1        1 198      0.141200
     35 H132       -2.9060   -1.6660   -0.6330 h1        1 198      0.141200
     36 H11        -4.4450   -0.6800    2.5970 ho        1 198      0.453000
     37 H121       -5.1990    0.2380    0.4880 hc        1 198      0.068700
     38 H122       -5.4040   -1.0080   -0.8230 hc        1 198      0.068700
     39 H123       -6.4200   -1.0880    0.6850 hc        1 198      0.068700
     40 HN9        -5.7870   -3.4380    2.2330 hn        1 198      0.341500
     41 H2         -5.1850   -5.5340   -0.7960 ha        1 198      0.197000
     42 H6         -6.8350   -5.2660    3.2400 ha        1 198      0.147000
     43 H5         -7.6280   -7.5930    3.0560 ha        1 198      0.155000
@<TRIPOS>BOND
     1    1    2 ar  
     2    1    7 ar  
     3    1   30 1   
     4    2    3 ar  
     5    2   31 1   
     6    3    4 1   
     7    3    5 ar  
     8    5    6 ar  
     9    5   32 1   
    10    6    7 ar  
    11    6   33 1   
    12    7    8 1   
    13    8    9 2   
    14    8   10 2   
    15    8   11 1   
    16   11   12 1   
    17   11   34 1   
    18   11   35 1   
    19   12   13 1   
    20   12   14 1   
    21   12   15 1   
    22   13   36 1   
    23   14   37 1   
    24   14   38 1   
    25   14   39 1   
    26   15   16 2   
    27   15   17 1   
    28   17   18 1   
    29   17   40 1   
    30   18   19 ar  
    31   18   20 ar  
    32   19   25 ar  
    33   19   41 1   
    34   20   21 ar  
    35   20   42 1   
    36   21   22 ar  
    37   21   43 1   
    38   22   23 1   
    39   22   25 ar  
    40   23   24 3   
    41   25   26 1   
    42   26   27 1   
    43   26   28 1   
    44   26   29 1   
@<TRIPOS>SUBSTRUCTURE
     1 198         1 TEMP              0 ****  ****    0 ROOT
