@<TRIPOS>MOLECULE
198
   44    45     1     0     0
SMALL
bcc


@<TRIPOS>ATOM
      1 C16        -0.0870   -0.5160    0.4710 ca        1 198      0.020500
      2 C17         1.2010   -1.0020    0.6230 ca        1 198     -0.192500
      3 C18         1.5390   -1.7060    1.7980 ca        1 198      0.232900
      4 F18         2.7850   -2.1870    1.9600 f         1 198     -0.101900
      5 C19         0.5710   -1.9040    2.8080 ca        1 198     -0.192500
      6 C20        -0.7080   -1.4070    2.6260 ca        1 198      0.020500
      7 C15        -1.0710   -0.7140    1.4570 ca        1 198     -0.473500
      8 S14        -2.5690   -0.0800    1.2800 sy        1 198      1.413300
      9 O14        -3.2560    0.0480    2.5010 o         1 198     -0.649800
     10 O15        -2.6000    0.9960    0.3960 o         1 198     -0.649800
     11 C13        -3.3910   -1.4150    0.4760 c3        1 198     -0.333600
     12 C11        -4.9040   -1.4210    0.6400 c3        1 198      0.181800
     13 O11        -5.2900   -1.7790    1.9600 oh        1 198     -0.652800
     14 C12        -5.5450   -0.1010    0.2180 c3        1 198     -0.157100
     15 C10        -5.4690   -2.5070   -0.2960 c         1 198      0.548100
     16 O10        -5.1390   -2.7200   -1.4490 o         1 198     -0.398100
     17 N9         -6.6130   -3.3580    0.2390 n4        1 198     -0.541200
     18 C1         -6.1590   -4.6880    0.6520 ca        1 198     -0.043400
     19 C2         -6.2070   -5.7540   -0.2610 ca        1 198     -0.060000
     20 C6         -5.6910   -4.8850    1.9650 ca        1 198     -0.073000
     21 C5         -5.2840   -6.1550    2.3560 ca        1 198     -0.089000
     22 C4         -5.3300   -7.2320    1.4550 ca        1 198      0.114000
     23 C8         -4.9040   -8.5150    1.8960 cg        1 198      0.171800
     24 N8         -4.5540   -9.5610    2.2650 n1        1 198     -0.233800
     25 C3         -5.7920   -7.0230    0.1450 ca        1 198     -0.126300
     26 C7         -5.8490   -8.1750   -0.8710 c3        1 198      0.693200
     27 F7B        -6.4180   -7.8240   -2.0700 f         1 198     -0.210967
     28 F7C        -4.6150   -8.6710   -1.2040 f         1 198     -0.210967
     29 F7A        -6.5770   -9.2540   -0.4450 f         1 198     -0.210967
     30 H16        -0.3440    0.0580   -0.4400 ha        1 198      0.163500
     31 H17         1.9650   -0.8390   -0.1540 ha        1 198      0.176500
     32 H19         0.8480   -2.4390    3.7300 ha        1 198      0.176500
     33 H20        -1.4590   -1.5390    3.4270 ha        1 198      0.163500
     34 H131       -3.1530   -1.3800   -0.6220 h1        1 198      0.130200
     35 H132       -2.9910   -2.3910    0.8560 h1        1 198      0.130200
     36 H11        -5.0020   -1.0700    2.5660 ho        1 198      0.496000
     37 H121       -6.6520   -0.1430    0.3500 hc        1 198      0.087700
     38 H122       -5.1480    0.7280    0.8610 hc        1 198      0.087700
     39 H123       -5.2990    0.1330   -0.8470 hc        1 198      0.087700
     40 HN9        -7.0150   -2.8770    1.0590 hn        1 198      0.473800
     41 H2         -6.5630   -5.6110   -1.2990 ha        1 198      0.185000
     42 H6         -5.6360   -4.0440    2.6820 ha        1 198      0.185000
     43 H5         -4.9210   -6.3200    3.3870 ha        1 198      0.188000
     44 H92        -7.3320   -3.4620   -0.4890 hn        1 198      0.473800
@<TRIPOS>BOND
     1    1    2 ar  
     2    1    7 ar  
     3    1   30 1   
     4    2    3 ar  
     5    2   31 1   
     6    3    4 1   
     7    3    5 ar  
     8    5    6 ar  
     9    5   32 1   
    10    6    7 ar  
    11    6   33 1   
    12    7    8 1   
    13    8    9 2   
    14    8   10 2   
    15    8   11 1   
    16   11   12 1   
    17   11   34 1   
    18   11   35 1   
    19   12   13 1   
    20   12   14 1   
    21   12   15 1   
    22   13   36 1   
    23   14   37 1   
    24   14   38 1   
    25   14   39 1   
    26   15   16 2   
    27   15   17 1   
    28   17   18 1   
    29   17   40 1   
    30   17   44 1   
    31   18   19 ar  
    32   18   20 ar  
    33   19   25 ar  
    34   19   41 1   
    35   20   21 ar  
    36   20   42 1   
    37   21   22 ar  
    38   21   43 1   
    39   22   23 1   
    40   22   25 ar  
    41   23   24 3   
    42   25   26 1   
    43   26   27 1   
    44   26   28 1   
    45   26   29 1   
@<TRIPOS>SUBSTRUCTURE
     1 198         1 TEMP              0 ****  ****    0 ROOT
