@<TRIPOS>MOLECULE
199
   55    46     1     0     0
SMALL
bcc


@<TRIPOS>ATOM
      1 C01        -1.1060    0.4280    1.6410 c1        1 199     -0.015000
      2 C02         0.0660    1.0980    1.4130 c1        1 199     -0.086500
      3 C03         0.5680    1.9570    2.3720 c1        1 199     -0.063500
      4 N04        -0.1180    2.1400    3.5710 n1        1 199     -0.152000
      5 C05        -1.2900    1.4730    3.8040 c1        1 199      0.037000
      6 N06        -2.1250    1.4380    4.9150 n1        1 199     -0.189000
      7 C07        -3.1510    0.5590    4.6550 c1        1 199     -0.130000
      8 C08        -2.9590    0.0420    3.3800 c1        1 199      0.002000
      9 C09        -1.7980    0.6160    2.8570 c1        1 199     -0.114000
     10 N10        -3.9680   -0.9100    3.7060 n2        1 199     -0.300000
     11 C11         3.2100    0.2230   -0.3640 c1        1 199     -0.130000
     12 C12         2.9790    0.8000   -1.5980 c1        1 199      0.057000
     13 C13         1.7850    1.4820   -1.8360 c1        1 199     -0.181000
     14 C14         0.8380    1.5800   -0.8460 c1        1 199     -0.063500
     15 C15         1.0640    1.0060    0.3860 c1        1 199     -0.086500
     16 C16         2.2610    0.3210    0.6290 c1        1 199     -0.130000
     17 C17        -4.5980   -1.7080    2.6390 c2        1 199      0.358000
     18 O18        -4.2370   -1.5390    1.4060 o         1 199     -0.343000
     19 C19        -7.8350   -3.0240    4.0030 c1        1 199     -0.189000
     20 C20        -7.8200   -4.3260    3.5150 c1        1 199     -0.049000
     21 N21        -6.7640   -4.7640    2.7630 n1        1 199     -0.138000
     22 C22        -5.7150   -3.9190    2.4890 c1        1 199     -0.016000
     23 C23        -5.7250   -2.6360    2.9670 c2        1 199     -0.179000
     24 C24        -6.7990   -2.1870    3.7320 c2        1 199     -0.069000
     25 C25         4.5480    1.8450   -3.0050 c3        1 199     -0.051500
     26 C26         5.4580    1.7290   -4.2610 c3        1 199     -0.071500
     27 N27         4.7840    1.1470   -5.3650 n3        1 199     -0.258000
     28 C28         4.1460   -0.1080   -5.0280 c3        1 199     -0.071500
     29 C29         3.2350    0.0100   -3.7690 c3        1 199     -0.051500
     30 N30         3.9070    0.5920   -2.6700 n3        1 199     -0.238000
     31 C31         5.7200    0.9400   -6.4570 c3        1 199     -0.119000
     32 H01        -1.4580   -0.1700    0.9730 ha        1 199      0.165000
     33 H03         1.4470    2.4640    2.2000 ha        1 199      0.152500
     34 H06        -2.0120    1.9150    5.6850 DU        1 199      0.215000
     35 H07        -3.9740    0.3960    5.2580 DU        1 199      0.215000
     36 H10        -4.2640   -1.0070    4.6180 hn        1 199      0.229000
     37 H11         4.0310   -0.2470   -0.2000 ha        1 199      0.133500
     38 H13         1.6300    1.8690   -2.6640 ha        1 199      0.134000
     39 H14         0.0370    2.0370   -1.0100 ha        1 199      0.152500
     40 H16         2.4190   -0.0820    1.4910 ha        1 199      0.133500
     41 H19        -8.6190   -2.6990    4.5610 ha        1 199      0.149000
     42 H20        -8.5610   -4.9250    3.7080 ha        1 199      0.165000
     43 H22        -4.9410   -4.2440    1.9350 ha        1 199      0.183000
     44 H24        -6.8070   -1.2910    4.0660 ha        1 199      0.139000
     45 H251        5.0780    2.1240   -2.2690 h1        1 199      0.084000
     46 H252        3.8590    2.5200   -3.1710 h1        1 199      0.084000
     47 H261        6.2970    1.1320   -4.0220 h1        1 199      0.077750
     48 H262        5.7770    2.6570   -4.5200 h1        1 199      0.077750
     49 H281        4.8090   -0.7480   -4.8650 h1        1 199      0.077750
     50 H282        3.5930   -0.4070   -5.8000 h1        1 199      0.077750
     51 H291        2.9320   -0.8710   -3.5170 h1        1 199      0.084000
     52 H292        2.4180    0.5870   -4.0060 h1        1 199      0.084000
     53 H311        6.2960    0.2440   -6.2430 h1        1 199      0.072000
     54 H312        5.2350    0.7190   -7.2530 h1        1 199      0.072000
     55 H313        6.2150    1.7210   -6.5990 h1        1 199      0.072000
@<TRIPOS>BOND
     1    1    9 1   
     2    1   32 1   
     3    2    3 1   
     4    3   33 1   
     5    4    5 1   
     6    6    7 1   
     7    7    8 1   
     8    8    9 1   
     9   10   17 1   
    10   10   36 1   
    11   11   16 1   
    12   11   37 1   
    13   12   13 1   
    14   12   30 1   
    15   13   38 1   
    16   14   15 1   
    17   14   39 1   
    18   16   40 1   
    19   17   18 1   
    20   17   23 1   
    21   19   24 1   
    22   19   41 1   
    23   20   21 1   
    24   20   42 1   
    25   22   23 1   
    26   22   43 1   
    27   23   24 1   
    28   24   44 1   
    29   25   26 1   
    30   25   30 1   
    31   25   45 1   
    32   25   46 1   
    33   26   27 1   
    34   26   47 1   
    35   26   48 1   
    36   27   28 1   
    37   27   31 1   
    38   28   29 1   
    39   28   49 1   
    40   28   50 1   
    41   29   30 1   
    42   29   51 1   
    43   29   52 1   
    44   31   53 1   
    45   31   54 1   
    46   31   55 1   
@<TRIPOS>SUBSTRUCTURE
     1 199         1 TEMP              0 ****  ****    0 ROOT
