@<TRIPOS>MOLECULE
199
   56    52     1     0     0
SMALL
bcc


@<TRIPOS>ATOM
      1 C01         0.9310    1.6660    0.7380 c2        1 199     -0.224000
      2 C02         1.8160    0.8450    0.1440 c2        1 199     -0.041000
      3 C03         1.3370    2.5580    4.2930 c1        1 199      0.321000
      4 N04         0.5200    2.0330    3.5930 n2        1 199     -0.367000
      5 C05        -0.3990    1.4280    2.8100 c2        1 199      0.231000
      6 N06        -2.5960   -0.9830    2.0890 n2        1 199     -0.165000
      7 C07        -2.5510    0.1240    1.4580 c2        1 199     -0.098000
      8 C08        -1.3010    0.5290    0.7280 c2        1 199      0.292000
      9 C09        -0.2520    1.2060    1.4560 c2        1 199     -0.191000
     10 N10        -1.2020    0.2870   -0.5800 n         1 199     -0.228000
     11 C11         4.5960   -2.2270   -2.9450 c2        1 199     -0.587000
     12 C12         3.7240   -1.0960   -2.9290 c1        1 199      0.092000
     13 C13         4.0770    3.6530   -0.4010 c2        1 199     -0.166000
     14 C14         3.5170    2.4870   -0.4750 c1        1 199     -0.109000
     15 C15         2.9960    1.2890   -0.5650 c2        1 199     -0.157000
     16 C16         5.3580   -2.5540   -1.9050 c1        1 199      0.418000
     17 C17        -2.2260   -0.3590   -1.3930 c2        1 199      0.469000
     18 O18        -3.3370   -0.5520   -0.8970 o         1 199     -0.246000
     19 C19        -6.1300   -0.5350    2.6620 c1        1 199     -0.229000
     20 C20        -3.6070   -3.7420   -6.5660 c1        1 199     -0.151000
     21 N21        -2.9060   -3.0350   -5.9700 n1        1 199     -0.100000
     22 C22        -1.4920   -0.9840   -3.8190 c1        1 199      0.104000
     23 C23        -1.7990   -0.6800   -2.6990 c1        1 199     -0.348000
     24 C24        -5.6830   -0.6130    1.5550 c1        1 199     -0.229000
     25 C25         2.5820   -1.6550   -5.0040 c2        1 199     -0.357500
     26 C26         1.6590   -1.2970   -6.1180 c3        1 199     -0.012500
     27 N27         0.8990   -0.0630   -5.9350 n3        1 199     -0.275000
     28 C28         1.6340    0.9780   -5.2210 c3        1 199     -0.012500
     29 C29         2.4320    0.4900   -4.0610 c2        1 199     -0.357500
     30 N30         2.9130   -0.7800   -4.0270 n3        1 199      0.106000
     31 H01         1.0820    2.7600    0.7350 ha        1 199      0.160000
     32 H03         1.6790   -0.2520    0.1700 ha        1 199      0.132000
     33 H06        -1.3210    1.1130    3.3530 h4        1 199      0.171000
     34 H07        -3.4690   -1.2140    2.5270 hn        1 199      0.207000
     35 H10        -3.3780    0.8580    1.3140 h4        1 199      0.170000
     36 H11         4.7070   -2.8760   -3.8480 ha        1 199      0.213000
     37 H13         3.8140    4.4800   -1.0800 ha        1 199      0.154000
     38 H14         4.8590    3.8840    0.3410 ha        1 199      0.154000
     39 H16         3.4730    0.5250   -1.2210 ha        1 199      0.191000
     40 H19        -6.5390   -0.4680    3.6410 ha        1 199      0.231000
     41 H20        -4.2540   -4.3950   -7.1160 ha        1 199      0.251000
     42 H22        -1.2030   -1.2480   -4.8180 ha        1 199      0.283000
     43 H24        -5.3210   -0.6960    0.5580 ha        1 199      0.231000
     44 H251        2.4920   -3.7100   -6.9920 ha        1 199      0.000000
     45 H252        2.9780   -2.6760   -4.9850 h4        1 199      0.165000
     46 H261        2.6670   -4.3270   -7.2100 ha        1 199      0.000000
     47 H262        0.8980   -2.1250   -6.2300 h1        1 199      0.085250
     48 H281        2.2730   -1.2780   -7.0710 h1        1 199      0.085250
     49 H282        2.3360    1.5410   -5.9110 h1        1 199      0.085250
     50 H291        0.8730    1.7200   -4.8420 h1        1 199      0.085250
     51 H292        2.6890    1.1780   -3.2480 h4        1 199      0.165000
     52 H311        1.1360    0.7300   -7.9280 h1        1 199      0.079333
     53 H312       -0.3010    1.3100   -6.9690 h1        1 199      0.079333
     54 H313       -0.2760   -0.3870   -7.6390 h1        1 199      0.079333
     55 H102       -0.3610    0.5720   -1.0650 hn        1 199      0.290000
     56 C31         0.3510    0.4240   -7.1830 c3        1 199     -0.129000
@<TRIPOS>BOND
     1    1    2 1   
     2    1    9 1   
     3    1   31 1   
     4    2   15 1   
     5    2   32 1   
     6    3    4 1   
     7    4    5 1   
     8    5    9 1   
     9    5   33 1   
    10    6    7 1   
    11    6   34 1   
    12    7    8 1   
    13    7   35 1   
    14    8    9 1   
    15    8   10 1   
    16   10   17 1   
    17   10   55 1   
    18   11   12 1   
    19   11   16 1   
    20   11   36 1   
    21   12   30 1   
    22   13   14 1   
    23   13   37 1   
    24   13   38 1   
    25   14   15 1   
    26   15   39 1   
    27   17   18 1   
    28   17   23 1   
    29   19   24 1   
    30   19   40 1   
    31   20   21 1   
    32   20   41 1   
    33   22   23 1   
    34   22   42 1   
    35   24   43 1   
    36   25   26 1   
    37   25   30 1   
    38   25   45 1   
    39   26   27 1   
    40   26   47 1   
    41   26   48 1   
    42   27   28 1   
    43   27   56 1   
    44   28   29 1   
    45   28   49 1   
    46   28   50 1   
    47   29   30 1   
    48   29   51 1   
    49   44   46 1   
    50   52   56 1   
    51   53   56 1   
    52   54   56 1   
@<TRIPOS>SUBSTRUCTURE
     1 199         1 TEMP              0 ****  ****    0 ROOT
