@<TRIPOS>MOLECULE
199
   55    53     1     0     0
SMALL
bcc


@<TRIPOS>ATOM
      1 C01         1.0470   -0.2530    0.4000 c2        1 199     -0.093000
      2 C02         2.2800    0.0880   -0.0190 c2        1 199     -0.132000
      3 C03         3.4860    0.6940    3.4140 c1        1 199      0.162000
      4 N04         2.3290    0.6710    3.1590 n2        1 199     -0.282000
      5 C05         1.0040    0.6220    2.8220 c2        1 199      0.072000
      6 N06        -0.0210    0.9840    3.7220 na        1 199     -0.170000
      7 C07        -1.2420    0.8030    3.0980 c2        1 199     -0.161000
      8 C08        -1.0260    0.3260    1.7820 c2        1 199     -0.061000
      9 C09         0.4130    0.2130    1.5970 c2        1 199     -0.049000
     10 N10        -1.9580   -0.0710    0.8320 n2        1 199     -0.199000
     11 C11         4.3240   -2.1590   -5.2040 c2        1 199     -0.488000
     12 C12         3.7070   -1.3530   -4.1360 c2        1 199      0.090000
     13 C13         3.1300   -2.0180   -3.0980 c2        1 199     -0.186000
     14 C14         2.5030   -1.4850   -1.9150 c2        1 199     -0.119000
     15 C15         2.8980   -0.3950   -1.2320 c2        1 199     -0.127000
     16 C16         5.1060   -3.2050   -5.0600 c1        1 199      0.213000
     17 C17        -3.0810    0.5600    0.6330 c2        1 199      0.210000
     18 O18        -3.5570    1.6970    1.2700 oh        1 199     -0.287000
     19 C19        -8.0690    0.9380   -2.1150 c2        1 199     -0.527000
     20 C20        -6.9510   -1.8220   -3.5330 c1        1 199      0.064000
     21 N21        -5.8870   -2.0890   -3.1070 n2        1 199     -0.369000
     22 C22        -4.0190   -0.9520   -1.1380 c1        1 199      0.211000
     23 C23        -4.0600    0.0900   -0.3440 c2        1 199     -0.436000
     24 C24        -6.9830    1.0140   -1.4080 c1        1 199      0.113000
     25 C25         4.8310    0.5580   -5.1150 c3        1 199     -0.105000
     26 C26         1.8240   -1.0530   -7.1490 c2        1 199     -0.024000
     27 N27         1.2410   -0.3400   -6.1090 n7        1 199     -0.298000
     28 C28         1.8020    0.8860   -5.6130 c3        1 199     -0.083000
     29 C29         2.5600    0.7980   -4.2680 c3        1 199     -0.086000
     30 N30         3.8030    0.0580   -4.2340 n3        1 199     -0.243000
     31 H01         0.4190   -0.9310   -0.2090 ha        1 199      0.146000
     32 H03         2.8990    0.8000    0.5550 ha        1 199      0.124000
     33 H06         0.1080    1.2570    4.6620 hn        1 199      0.258000
     34 H07        -2.1800    0.9820    3.6270 h4        1 199      0.176000
     35 H10        -2.8370    2.1250    1.7600 ho        1 199      0.227000
     36 H11         4.0720   -1.8310   -6.2430 ha        1 199      0.213000
     37 H13         3.1160   -3.1230   -3.1530 ha        1 199      0.134000
     38 H14         1.6580   -2.0950   -1.5420 ha        1 199      0.123000
     39 H16         3.7710    0.1920   -1.5720 ha        1 199      0.141000
     40 H19        -8.9100    1.6480   -2.0850 ha        1 199      0.211500
     41 H20        -8.2340    0.1090   -2.8370 ha        1 199      0.211500
     42 H22        -5.0060   -2.2800   -2.7320 hn        1 199      0.301000
     43 H24        -4.9940    0.7240   -0.4250 ha        1 199      0.267000
     44 H251        4.5890    0.4160   -6.2050 h1        1 199      0.078333
     45 H252        5.7950    0.0290   -4.8920 h1        1 199      0.078333
     46 H261        4.9620    1.6540   -4.9170 h1        1 199      0.078333
     47 H262        1.3600   -2.0550   -7.2750 h4        1 199      0.129000
     48 H281        2.4700    1.3510   -6.3890 h1        1 199      0.097500
     49 H282        0.9370    1.5920   -5.4410 h1        1 199      0.097500
     50 H291        2.8040    1.8570   -3.9660 h1        1 199      0.105000
     51 H292        1.8750    0.3640   -3.4840 h1        1 199      0.105000
     52 H311        0.8640   -0.9200   -5.3890 hn        1 199      0.200000
     53 H312        3.0560   -1.3030   -8.8550 ha        1 199      0.118000
     54 H313        3.2750    0.3160   -7.9900 ha        1 199      0.118000
     55 C31         2.7690   -0.6540   -8.0200 c2        1 199     -0.353000
@<TRIPOS>BOND
     1    1    2 1   
     2    1    9 1   
     3    1   31 1   
     4    2   15 1   
     5    2   32 1   
     6    3    4 1   
     7    4    5 1   
     8    5    6 1   
     9    5    9 1   
    10    6    7 1   
    11    6   33 1   
    12    7    8 1   
    13    7   34 1   
    14    8    9 1   
    15    8   10 1   
    16   10   17 1   
    17   11   12 1   
    18   11   16 1   
    19   11   36 1   
    20   12   13 1   
    21   12   30 1   
    22   13   14 1   
    23   13   37 1   
    24   14   15 1   
    25   14   38 1   
    26   15   39 1   
    27   17   18 1   
    28   17   23 1   
    29   18   35 1   
    30   19   24 1   
    31   19   40 1   
    32   19   41 1   
    33   20   21 1   
    34   21   42 1   
    35   22   23 1   
    36   23   43 1   
    37   25   30 1   
    38   25   44 1   
    39   25   45 1   
    40   25   46 1   
    41   26   27 1   
    42   26   47 1   
    43   26   55 1   
    44   27   28 1   
    45   27   52 1   
    46   28   29 1   
    47   28   48 1   
    48   28   49 1   
    49   29   30 1   
    50   29   50 1   
    51   29   51 1   
    52   53   55 1   
    53   54   55 1   
@<TRIPOS>SUBSTRUCTURE
     1 199         1 TEMP              0 ****  ****    0 ROOT
