@<TRIPOS>MOLECULE
199
   55    59     1     0     0
SMALL
bcc


@<TRIPOS>ATOM
      1 C01        -0.9770    1.2230    0.0220 ca        1 199     -0.043000
      2 C02         0.1960    1.9760   -0.0080 cp        1 199     -0.172300
      3 C03         0.0990    3.4020   -0.0310 ca        1 199      0.427200
      4 N04        -1.0340    4.1040   -0.0250 nb        1 199     -0.669000
      5 C05        -2.1800    3.3560    0.0070 ca        1 199      0.433800
      6 N06        -3.5050    3.8040    0.0220 na        1 199     -0.279100
      7 C07        -4.3540    2.6960    0.0550 cc        1 199     -0.113100
      8 C08        -3.5970    1.5130    0.0640 cd        1 199     -0.003600
      9 C09        -2.1950    1.8990    0.0310 ca        1 199     -0.219100
     10 N10        -4.0520    0.2010    0.1020 n         1 199     -0.444100
     11 C11         3.8180    1.2710    0.7240 ca        1 199     -0.169500
     12 C12         4.0590    0.1000   -0.0350 ca        1 199      0.143600
     13 C13         2.9820   -0.4320   -0.7790 ca        1 199     -0.169500
     14 C14         1.7360    0.1830   -0.7710 ca        1 199     -0.097000
     15 C15         1.5060    1.3410   -0.0170 cp        1 199     -0.060000
     16 C16         2.5680    1.8720    0.7290 ca        1 199     -0.097000
     17 C17        -5.3880   -0.1660    0.0830 c         1 199      0.679700
     18 O18        -6.3040    0.6780    0.0240 o         1 199     -0.598100
     19 C19        -7.0570   -3.4770   -0.5630 ca        1 199     -0.252300
     20 C20        -6.2340   -4.3070    0.2210 ca        1 199      0.414200
     21 N21        -5.1890   -3.8530    0.9400 nb        1 199     -0.666000
     22 C22        -4.9240   -2.5340    0.8870 ca        1 199      0.419200
     23 C23        -5.6800   -1.6240    0.1200 ca        1 199     -0.261900
     24 C24        -6.7740   -2.1120   -0.6090 ca        1 199     -0.041000
     25 C25         5.9830   -0.7240    1.1980 c3        1 199      0.186300
     26 C26         7.4710   -1.1080    1.0680 c3        1 199      0.164800
     27 N27         7.7000   -2.1670    0.0960 n3        1 199     -0.732600
     28 C28         7.0800   -1.8760   -1.1880 c3        1 199      0.164800
     29 C29         5.5900   -1.4970   -1.0630 c3        1 199      0.186300
     30 N30         5.3670   -0.4410   -0.0900 nh        1 199     -0.636000
     31 H01        -0.9410    0.1240    0.0450 ha        1 199      0.135000
     32 H03         1.0250    4.0080   -0.0650 h4        1 199      0.027100
     33 H06        -3.7900    4.7480    0.0080 hn        1 199      0.313700
     34 H07        -5.4420    2.8100    0.0700 h4        1 199      0.205000
     35 H10        -3.3530   -0.5060    0.1010 hn        1 199      0.324500
     36 H11         4.6280    1.7300    1.3110 ha        1 199      0.135500
     37 H13         3.1100   -1.3440   -1.3820 ha        1 199      0.135500
     38 H14         0.9180   -0.2470   -1.3700 ha        1 199      0.132500
     39 H16         2.4080    2.7790    1.3330 ha        1 199      0.132500
     40 H19        -7.9040   -3.8980   -1.1210 ha        1 199      0.152000
     41 H20        -6.4210   -5.3950    0.2840 h4        1 199      0.028100
     42 H22        -4.0740   -2.1990    1.5090 h4        1 199      0.027100
     43 H24        -7.3960   -1.4160   -1.1940 ha        1 199      0.163000
     44 H251        5.9260    0.1980    1.8400 h1        1 199      0.044450
     45 H252        5.4400   -1.5560    1.7320 h1        1 199      0.044450
     46 H261        7.8140   -1.4830    2.0730 h1        1 199      0.039450
     47 H262        8.0650   -0.1790    0.8220 h1        1 199      0.039450
     48 H281        7.6190   -1.0490   -1.7360 h1        1 199      0.039450
     49 H282        7.1410   -2.8070   -1.8180 h1        1 199      0.039450
     50 H291        5.2480   -1.1260   -2.0700 h1        1 199      0.044450
     51 H292        5.0020   -2.4270   -0.8080 h1        1 199      0.044450
     52 H311        9.7310   -1.6660   -0.4270 h1        1 199      0.033367
     53 H312        9.4910   -2.8020    0.9790 h1        1 199      0.033367
     54 H313        9.1950   -3.3830   -0.7250 h1        1 199      0.033367
     55 C31         9.0990   -2.5080   -0.0300 c3        1 199      0.157100
@<TRIPOS>BOND
     1    1    2 ar  
     2    1    9 ar  
     3    1   31 1   
     4    2    3 ar  
     5    2   15 1   
     6    3    4 ar  
     7    3   32 1   
     8    4    5 ar  
     9    5    6 1   
    10    5    9 ar  
    11    6    7 1   
    12    6   33 1   
    13    7    8 2   
    14    7   34 1   
    15    8    9 1   
    16    8   10 1   
    17   10   17 1   
    18   10   35 1   
    19   11   12 ar  
    20   11   16 ar  
    21   11   36 1   
    22   12   13 ar  
    23   12   30 1   
    24   13   14 ar  
    25   13   37 1   
    26   14   15 ar  
    27   14   38 1   
    28   15   16 ar  
    29   16   39 1   
    30   17   18 2   
    31   17   23 1   
    32   19   20 ar  
    33   19   24 ar  
    34   19   40 1   
    35   20   21 ar  
    36   20   41 1   
    37   21   22 ar  
    38   22   23 ar  
    39   22   42 1   
    40   23   24 ar  
    41   24   43 1   
    42   25   26 1   
    43   25   30 1   
    44   25   44 1   
    45   25   45 1   
    46   26   27 1   
    47   26   46 1   
    48   26   47 1   
    49   27   28 1   
    50   27   55 1   
    51   28   29 1   
    52   28   48 1   
    53   28   49 1   
    54   29   30 1   
    55   29   50 1   
    56   29   51 1   
    57   52   55 1   
    58   53   55 1   
    59   54   55 1   
@<TRIPOS>SUBSTRUCTURE
     1 199         1 TEMP              0 ****  ****    0 ROOT
