@<TRIPOS>MOLECULE
19A
   38    40     1     0     0
SMALL
bcc


@<TRIPOS>ATOM
      1 C1          0.4960   -0.4540   -1.4010 c3        1 19A      0.085100
      2 N2          1.3350   -0.5900   -0.1830 nx        1 19A     -0.579200
      3 C3          0.4960   -0.7880    1.0260 c3        1 19A      0.085100
      4 C4          2.2020    0.6580   -0.0110 c         1 19A      0.592700
      5 O5          1.5910    1.7160    0.1340 o         1 19A     -0.478100
      6 C6          3.6130    0.4380   -0.0410 cc        1 19A     -0.303900
      7 C7          4.3790   -0.7550   -0.2030 cd        1 19A     -0.072000
      8 C8          5.7460   -0.3880   -0.1520 cd        1 19A     -0.156500
      9 C9          5.7930    1.0300    0.0400 cc        1 19A     -0.023300
     10 N10         4.5190    1.5140    0.1060 na        1 19A     -0.108100
     11 C12         6.8750   -1.2600   -0.2690 cd        1 19A      0.360800
     12 N13         6.7580   -2.6070   -0.5250 nc        1 19A     -0.514800
     13 N14         7.9880   -3.0990   -0.5570 na        1 19A      0.006400
     14 C16         8.9650   -2.1290   -0.3290 cc        1 19A     -0.115300
     15 C17         8.2820   -0.9140   -0.1360 cd        1 19A     -0.184300
     16 C18         8.8760    0.3760    0.1370 ca        1 19A     -0.038000
     17 C19         9.0580    1.3070   -0.8970 ca        1 19A     -0.122500
     18 C20         9.6550    2.5380   -0.6330 ca        1 19A     -0.132500
     19 C21        10.0760    2.8520    0.6600 ca        1 19A     -0.118000
     20 C22         9.8990    1.9290    1.6910 ca        1 19A     -0.132500
     21 C23         9.3030    0.6950    1.4340 ca        1 19A     -0.122500
     22 H11        -0.1650   -1.3550   -1.5040 hx        1 19A      0.107033
     23 H12        -0.1360    0.4720   -1.3120 hx        1 19A      0.107033
     24 H13         1.1640   -0.3660   -2.3000 hx        1 19A      0.107033
     25 H31        -0.1650   -1.6840    0.8810 hx        1 19A      0.107033
     26 H32         1.1630   -0.9470    1.9150 hx        1 19A      0.107033
     27 H33        -0.1360    0.1270    1.1900 hx        1 19A      0.107033
     28 H7          4.0090   -1.7690   -0.3420 ha        1 19A      0.168000
     29 H9          6.6840    1.6690    0.1230 h4        1 19A      0.221000
     30 HN10        4.2410    2.4580    0.2360 hn        1 19A      0.333700
     31 HN14        8.1350   -4.0670   -0.7360 hn        1 19A      0.336700
     32 H16        10.0310   -2.3580   -0.3220 h4        1 19A      0.198000
     33 H19         8.7450    1.0540   -1.9210 ha        1 19A      0.141000
     34 H20         9.8070    3.2590   -1.4510 ha        1 19A      0.143500
     35 H21        10.5550    3.8210    0.8640 ha        1 19A      0.145000
     36 H22        10.2390    2.1700    2.7100 ha        1 19A      0.143500
     37 H23         9.1750   -0.0350    2.2470 ha        1 19A      0.141000
     38 H211        1.9480   -1.4060   -0.2960 hn        1 19A      0.453800
@<TRIPOS>BOND
     1    1    2 1   
     2    1   22 1   
     3    1   23 1   
     4    1   24 1   
     5    2    3 1   
     6    2    4 1   
     7    2   38 1   
     8    3   25 1   
     9    3   26 1   
    10    3   27 1   
    11    4    5 2   
    12    4    6 1   
    13    6    7 2   
    14    6   10 1   
    15    7    8 1   
    16    7   28 1   
    17    8    9 2   
    18    8   11 1   
    19    9   10 1   
    20    9   29 1   
    21   10   30 1   
    22   11   12 2   
    23   11   15 1   
    24   12   13 1   
    25   13   14 1   
    26   13   31 1   
    27   14   15 2   
    28   14   32 1   
    29   15   16 1   
    30   16   17 ar  
    31   16   21 ar  
    32   17   18 ar  
    33   17   33 1   
    34   18   19 ar  
    35   18   34 1   
    36   19   20 ar  
    37   19   35 1   
    38   20   21 ar  
    39   20   36 1   
    40   21   37 1   
@<TRIPOS>SUBSTRUCTURE
     1 19A         1 TEMP              0 ****  ****    0 ROOT
