@<TRIPOS>MOLECULE
19A
   37    31     1     0     0
SMALL
bcc


@<TRIPOS>ATOM
      1 C1         -2.1850   -4.2650    1.9900 c3        1 19A      0.074800
      2 N2         -2.2240   -2.9300    1.3680 n         1 19A     -0.482800
      3 C3         -2.8520   -2.7690    0.1160 c3        1 19A      0.074800
      4 C4         -1.9320   -1.7690    2.1660 c         1 19A      0.694300
      5 O5         -2.5940   -1.5440    3.2130 o         1 19A     -0.582100
      6 C6         -0.7060   -0.8770    1.8170 ce        1 19A      0.248400
      7 C7         -0.7570    0.3710    1.3440 c1        1 19A      0.043200
      8 C8          0.4930    0.8430    1.2880 ce        1 19A     -0.219400
      9 C9          1.3570   -0.1640    1.7480 cg        1 19A      0.205500
     10 N10         0.6370   -1.1930    2.0640 n1        1 19A     -0.973500
     11 C12         0.8620    2.1610    0.9500 ce        1 19A      0.442900
     12 N13         0.8910    3.1930    1.7720 nf        1 19A     -0.370700
     13 N14         1.3740    4.3320    1.0400 nf        1 19A     -0.377400
     14 C16         1.6180    3.9570   -0.1800 c1        1 19A      0.171500
     15 C17         1.3110    2.5930   -0.2880 ce        1 19A     -0.258400
     16 C18         1.3270    1.8280   -1.4960 cg        1 19A     -0.030300
     17 C19         0.2220    1.8640   -2.3670 c1        1 19A     -0.074250
     18 C20         0.2670    1.1740   -3.5770 c1        1 19A     -0.074250
     19 C21         1.3870    0.4610   -3.9170 c1        1 19A     -0.074250
     20 C22         2.5090    0.4260   -3.0320 c1        1 19A     -0.074250
     21 C23         2.4650    1.1040   -1.8430 c1        1 19A     -0.067500
     22 H11        -2.1180   -4.9880    1.2520 h1        1 19A      0.042533
     23 H12        -1.4650   -4.3240    2.5400 h1        1 19A      0.042533
     24 H13        -2.9790   -4.4000    2.4940 h1        1 19A      0.042533
     25 H31        -2.1040   -2.5920   -0.6430 h1        1 19A      0.042533
     26 H32        -3.4780   -1.9890    0.1570 h1        1 19A      0.042533
     27 H33        -3.3400   -3.5560   -0.0980 h1        1 19A      0.042533
     28 H7         -1.6010    0.8740    1.0720 DU        1 19A      0.213000
     29 H9          2.3930   -0.1000    1.8220 DU        1 19A      0.213000
     30 HN10        0.9330   -1.9420    2.3720 DU        1 19A      0.213000
     31 HN14        1.4880    5.1510    1.3630 DU        1 19A      0.213000
     32 H16         1.9530    4.5200   -0.8880 DU        1 19A      0.213000
     33 H19        -0.6290    2.4100   -2.1070 ha        1 19A      0.074000
     34 H20        -0.5810    1.2000   -4.2490 ha        1 19A      0.074000
     35 H21         1.4190   -0.0390   -4.7910 ha        1 19A      0.074000
     36 H22         3.3360   -0.1000   -3.2870 ha        1 19A      0.074000
     37 H23         3.3020    1.0790   -1.1860 ha        1 19A      0.089500
@<TRIPOS>BOND
     1    1    2 1   
     2    1   22 1   
     3    1   23 1   
     4    1   24 1   
     5    2    3 1   
     6    2    4 1   
     7    3   25 1   
     8    3   26 1   
     9    3   27 1   
    10    4    5 2   
    11    4    6 1   
    12    6    7 2   
    13    6   10 1   
    14    7    8 2   
    15    8    9 1   
    16    8   11 1   
    17    9   10 3   
    18   11   12 2   
    19   11   15 1   
    20   12   13 1   
    21   13   14 2   
    22   14   15 2   
    23   15   16 1   
    24   16   21 3   
    25   17   18 3   
    26   17   33 1   
    27   18   34 1   
    28   19   20 3   
    29   19   35 1   
    30   20   36 1   
    31   21   37 1   
@<TRIPOS>SUBSTRUCTURE
     1 19A         1 TEMP              0 ****  ****    0 ROOT
