@<TRIPOS>MOLECULE
19A
   38    40     1     0     0
SMALL
bcc


@<TRIPOS>ATOM
      1 C1          0.5070   -0.3040   -1.3400 c3        1 19A      0.085100
      2 N2          1.3330   -0.5890   -0.1390 n4        1 19A     -0.579200
      3 C3          0.4810   -0.9260    1.0300 c3        1 19A      0.085100
      4 C4          2.2020    0.6260    0.1890 c         1 19A      0.592700
      5 O5          1.5930    1.6620    0.4530 o         1 19A     -0.478100
      6 C6          3.6130    0.4060    0.1470 cc        1 19A     -0.303900
      7 C7          4.3770   -0.7620   -0.1510 cd        1 19A     -0.072000
      8 C8          5.7440   -0.4100   -0.0430 cd        1 19A     -0.156500
      9 C9          5.7930    0.9730    0.3220 cc        1 19A     -0.023300
     10 N10         4.5210    1.4510    0.4330 na        1 19A     -0.108100
     11 C12         6.8720   -1.2660   -0.2580 cd        1 19A      0.360800
     12 N13         6.7510   -2.6080   -0.5380 nc        1 19A     -0.514800
     13 N14         7.9810   -3.0790   -0.6830 na        1 19A      0.006400
     14 C16         8.9600   -2.1010   -0.5130 cc        1 19A     -0.115300
     15 C17         8.2800   -0.9010   -0.2330 cd        1 19A     -0.184300
     16 C18         8.8780    0.3920    0.0150 ca        1 19A     -0.038000
     17 C19         9.3220    1.1800   -1.0560 ca        1 19A     -0.122500
     18 C20         9.9210    2.4160   -0.8160 ca        1 19A     -0.132500
     19 C21        10.0840    2.8740    0.4920 ca        1 19A     -0.118000
     20 C22         9.6470    2.0920    1.5610 ca        1 19A     -0.132500
     21 C23         9.0460    0.8570    1.3270 ca        1 19A     -0.122500
     22 H11        -0.1560   -1.1840   -1.5560 hx        1 19A      0.107033
     23 H12        -0.1230    0.6070   -1.1470 hx        1 19A      0.107033
     24 H13         1.1830   -0.1130   -2.2160 hx        1 19A      0.107033
     25 H31        -0.1810   -1.7950    0.7720 hx        1 19A      0.107033
     26 H32         1.1390   -1.1930    1.9000 hx        1 19A      0.107033
     27 H33        -0.1490   -0.0340    1.2960 hx        1 19A      0.107033
     28 H7          4.0050   -1.7500   -0.4150 ha        1 19A      0.168000
     29 H9          6.6850    1.5910    0.4990 h4        1 19A      0.221000
     30 HN10        4.2440    2.3740    0.6710 hn        1 19A      0.333700
     31 HN14        8.1260   -4.0430   -0.8870 hn        1 19A      0.336700
     32 H16        10.0270   -2.3150   -0.5960 h4        1 19A      0.198000
     33 H19         9.2040    0.8180   -2.0890 ha        1 19A      0.141000
     34 H20        10.2740    3.0260   -1.6610 ha        1 19A      0.143500
     35 H21        10.5660    3.8450    0.6790 ha        1 19A      0.145000
     36 H22         9.7870    2.4450    2.5940 ha        1 19A      0.143500
     37 H23         8.7200    0.2340    2.1740 ha        1 19A      0.141000
     38 H211        1.9450   -1.3880   -0.3430 hn        1 19A      0.453800
@<TRIPOS>BOND
     1    1    2 1   
     2    1   22 1   
     3    1   23 1   
     4    1   24 1   
     5    2    3 1   
     6    2    4 1   
     7    2   38 1   
     8    3   25 1   
     9    3   26 1   
    10    3   27 1   
    11    4    5 2   
    12    4    6 1   
    13    6    7 2   
    14    6   10 1   
    15    7    8 1   
    16    7   28 1   
    17    8    9 2   
    18    8   11 1   
    19    9   10 1   
    20    9   29 1   
    21   10   30 1   
    22   11   12 2   
    23   11   15 1   
    24   12   13 1   
    25   13   14 1   
    26   13   31 1   
    27   14   15 2   
    28   14   32 1   
    29   15   16 1   
    30   16   17 ar  
    31   16   21 ar  
    32   17   18 ar  
    33   17   33 1   
    34   18   19 ar  
    35   18   34 1   
    36   19   20 ar  
    37   19   35 1   
    38   20   21 ar  
    39   20   36 1   
    40   21   37 1   
@<TRIPOS>SUBSTRUCTURE
     1 19A         1 TEMP              0 ****  ****    0 ROOT
