@<TRIPOS>MOLECULE
19A
   38    40     1     0     0
SMALL
bcc


@<TRIPOS>ATOM
      1 C1          0.5020   -0.4460   -1.4250 c3        1 19A      0.085100
      2 N2          1.3320   -0.5750   -0.2000 n4        1 19A     -0.579200
      3 C3          0.4850   -0.7580    1.0050 c3        1 19A      0.085100
      4 C4          2.2030    0.6720   -0.0350 c         1 19A      0.592700
      5 O5          1.5960    1.7330    0.0970 o         1 19A     -0.478100
      6 C6          3.6140    0.4460   -0.0550 cc        1 19A     -0.303900
      7 C7          4.3760   -0.7510   -0.2030 cd        1 19A     -0.072000
      8 C8          5.7440   -0.3890   -0.1470 cd        1 19A     -0.156500
      9 C9          5.7950    1.0300    0.0330 cc        1 19A     -0.023300
     10 N10         4.5230    1.5190    0.0870 na        1 19A     -0.108100
     11 C12         6.8700   -1.2670   -0.2500 cd        1 19A      0.360800
     12 N13         6.7480   -2.6160   -0.4950 nc        1 19A     -0.514800
     13 N14         7.9770   -3.1120   -0.5150 na        1 19A      0.006400
     14 C16         8.9570   -2.1450   -0.2910 cc        1 19A     -0.115300
     15 C17         8.2780   -0.9250   -0.1120 cd        1 19A     -0.184300
     16 C18         8.8760    0.3640    0.1530 ca        1 19A     -0.038000
     17 C19         9.0630    1.2870   -0.8870 ca        1 19A     -0.122500
     18 C20         9.6640    2.5180   -0.6310 ca        1 19A     -0.132000
     19 C21        10.0840    2.8390    0.6610 ca        1 19A     -0.118000
     20 C22         9.9030    1.9240    1.6980 ca        1 19A     -0.132000
     21 C23         9.3030    0.6910    1.4480 ca        1 19A     -0.122500
     22 H11        -0.1620   -1.3460   -1.5230 hx        1 19A      0.107033
     23 H12         1.1750   -0.3700   -2.3200 hx        1 19A      0.107033
     24 H13        -0.1270    0.4830   -1.3490 hx        1 19A      0.107033
     25 H31         1.1460   -0.9100    1.9000 hx        1 19A      0.107033
     26 H32        -0.1780   -1.6520    0.8650 hx        1 19A      0.107033
     27 H33        -0.1440    0.1620    1.1570 hx        1 19A      0.107033
     28 H7          4.0020   -1.7650   -0.3350 ha        1 19A      0.168000
     29 H9          6.6880    1.6660    0.1150 h4        1 19A      0.221000
     30 HN10        4.2480    2.4650    0.2080 hn        1 19A      0.333700
     31 HN14        8.1210   -4.0830   -0.6850 hn        1 19A      0.336700
     32 H16        10.0220   -2.3790   -0.2760 h4        1 19A      0.198000
     33 H19         8.7510    1.0290   -1.9100 ha        1 19A      0.141000
     34 H20         9.8190    3.2330   -1.4530 ha        1 19A      0.143500
     35 H21        10.5670    3.8080    0.8580 ha        1 19A      0.145000
     36 H22        10.2420    2.1710    2.7150 ha        1 19A      0.143500
     37 H23         9.1710   -0.0330    2.2660 ha        1 19A      0.141000
     38 H211        1.9430   -1.3940   -0.3010 hn        1 19A      0.453800
@<TRIPOS>BOND
     1    1    2 1   
     2    1   22 1   
     3    1   23 1   
     4    1   24 1   
     5    2    3 1   
     6    2    4 1   
     7    2   38 1   
     8    3   25 1   
     9    3   26 1   
    10    3   27 1   
    11    4    5 2   
    12    4    6 1   
    13    6    7 2   
    14    6   10 1   
    15    7    8 1   
    16    7   28 1   
    17    8    9 2   
    18    8   11 1   
    19    9   10 1   
    20    9   29 1   
    21   10   30 1   
    22   11   12 2   
    23   11   15 1   
    24   12   13 1   
    25   13   14 1   
    26   13   31 1   
    27   14   15 2   
    28   14   32 1   
    29   15   16 1   
    30   16   17 ar  
    31   16   21 ar  
    32   17   18 ar  
    33   17   33 1   
    34   18   19 ar  
    35   18   34 1   
    36   19   20 ar  
    37   19   35 1   
    38   20   21 ar  
    39   20   36 1   
    40   21   37 1   
@<TRIPOS>SUBSTRUCTURE
     1 19A         1 TEMP              0 ****  ****    0 ROOT
