@<TRIPOS>MOLECULE
19A
   37    39     1     0     0
SMALL
bcc


@<TRIPOS>ATOM
      1 C1          3.1010    6.2530    1.9150 c3        1 19A      0.079800
      2 N2          2.5710    4.9380    2.1530 n         1 19A     -0.469800
      3 C3          3.2450    3.8470    1.5140 c3        1 19A      0.079800
      4 C4          1.4010    4.7870    2.8790 c         1 19A      0.701700
      5 O5          0.7470    5.7940    3.2390 o         1 19A     -0.632100
      6 C6          0.9250    3.4350    3.2370 cc        1 19A     -0.197900
      7 C7          1.6070    2.2240    3.4490 cd        1 19A     -0.109000
      8 C8          0.6340    1.2550    3.8640 cd        1 19A     -0.213500
      9 C9         -0.6180    1.9110    3.8920 cc        1 19A     -0.105300
     10 N10        -0.4350    3.2230    3.5120 na        1 19A     -0.138100
     11 C12         0.8890   -0.1260    4.1570 cd        1 19A      0.419800
     12 N13         1.9940   -0.7930    3.6890 nc        1 19A     -0.522800
     13 N14         1.9020   -2.0470    4.1250 na        1 19A     -0.013600
     14 C16         0.7570   -2.2720    4.8820 cc        1 19A     -0.136300
     15 C17         0.0670   -1.0450    4.9370 cd        1 19A     -0.205300
     16 C18        -1.1650   -0.8090    5.6480 ca        1 19A      0.002000
     17 C19        -1.3310    0.3330    6.4470 ca        1 19A     -0.126500
     18 C20        -2.5130    0.5290    7.1570 ca        1 19A     -0.132000
     19 C21        -3.5450   -0.4070    7.0770 ca        1 19A     -0.133000
     20 C22        -3.3890   -1.5430    6.2850 ca        1 19A     -0.132000
     21 C23        -2.2070   -1.7470    5.5750 ca        1 19A     -0.126500
     22 H11         2.9480    6.5470    0.8420 h1        1 19A      0.044867
     23 H12         4.2020    6.2560    2.1370 h1        1 19A      0.044867
     24 H13         2.5900    7.0060    2.5730 h1        1 19A      0.044867
     25 H31         4.0420    3.4290    2.1880 h1        1 19A      0.044867
     26 H32         3.7360    4.2090    0.5700 h1        1 19A      0.044867
     27 H33         2.5240    3.0290    1.2490 h1        1 19A      0.044867
     28 H7          2.6740    2.0440    3.3410 ha        1 19A      0.167000
     29 H9         -1.6010    1.5110    4.1540 h4        1 19A      0.185000
     30 HN10       -1.1160    3.9400    3.5000 hn        1 19A      0.316700
     31 HN14        2.6120   -2.7040    3.9010 hn        1 19A      0.321700
     32 H16         0.5190   -3.2400    5.3220 h4        1 19A      0.178000
     33 H19        -0.5160    1.0710    6.5110 ha        1 19A      0.138500
     34 H20        -2.6310    1.4240    7.7850 ha        1 19A      0.132000
     35 H21        -4.4770   -0.2490    7.6390 ha        1 19A      0.131000
     36 H22        -4.2000   -2.2830    6.2190 ha        1 19A      0.132000
     37 H23        -2.0870   -2.6440    4.9510 ha        1 19A      0.138500
@<TRIPOS>BOND
     1    1    2 1   
     2    1   22 1   
     3    1   23 1   
     4    1   24 1   
     5    2    3 1   
     6    2    4 1   
     7    3   25 1   
     8    3   26 1   
     9    3   27 1   
    10    4    5 2   
    11    4    6 1   
    12    6    7 2   
    13    6   10 1   
    14    7    8 1   
    15    7   28 1   
    16    8    9 2   
    17    8   11 1   
    18    9   10 1   
    19    9   29 1   
    20   10   30 1   
    21   11   12 2   
    22   11   15 1   
    23   12   13 1   
    24   13   14 1   
    25   13   31 1   
    26   14   15 2   
    27   14   32 1   
    28   15   16 1   
    29   16   17 ar  
    30   16   21 ar  
    31   17   18 ar  
    32   17   33 1   
    33   18   19 ar  
    34   18   34 1   
    35   19   20 ar  
    36   19   35 1   
    37   20   21 ar  
    38   20   36 1   
    39   21   37 1   
@<TRIPOS>SUBSTRUCTURE
     1 19A         1 TEMP              0 ****  ****    0 ROOT
