@<TRIPOS>MOLECULE
19B
   69    62     1     0     0
SMALL
bcc


@<TRIPOS>ATOM
      1 O25        -0.6770   -0.4510    2.0770 o         1 19B     -0.342000
      2 C22         0.5350   -0.3980    2.1190 c1        1 19B      0.355000
      3 N24         1.1960   -0.1720    3.3640 n2        1 19B     -0.324000
      4 C26         0.4280   -0.0070    4.5620 c2        1 19B      0.076000
      5 C27         1.0700    0.1730    5.7770 c2        1 19B     -0.162000
      6 C29         0.3260    0.3180    6.9410 c1        1 19B      0.027000
      7 C32        -1.0600    0.2830    6.8870 c1        1 19B     -0.121000
      8 C30        -1.7020    0.1030    5.6710 c1        1 19B     -0.121000
      9 C28        -0.9590   -0.0420    4.5090 c1        1 19B     -0.154000
     10 N31         0.9840    0.4140    8.1960 n3        1 19B     -0.221000
     11 C33         0.6620   -0.7150    8.9850 c3        1 19B     -0.102000
     12 C35         1.2080   -0.6090   10.3920 c3        1 19B     -0.025000
     13 O37         0.8560    0.6110   11.0160 os        1 19B     -0.272000
     14 C36         1.1780    1.7390   10.2270 c3        1 19B     -0.025000
     15 C34         0.6320    1.6340    8.8210 c3        1 19B     -0.102000
     16 C19         1.3500   -0.5820    0.8450 c2        1 19B     -0.135000
     17 C23         2.7350   -0.6630    0.9120 c2        1 19B     -0.096000
     18 C20         3.4810   -0.7790   -0.2530 c1        1 19B     -0.142000
     19 C18         2.8420   -0.8150   -1.4870 c1        1 19B     -0.024000
     20 C21         3.6570   -0.9000   -2.7580 c3        1 19B     -0.190000
     21 C15         1.4590   -0.7340   -1.5540 c1        1 19B     -0.060000
     22 C17         0.7120   -0.6180   -0.3880 c1        1 19B     -0.059000
     23 C12         0.8190   -0.7490   -2.7910 c1        1 19B     -0.007000
     24 C9          0.4890    0.5230   -3.2370 c1        1 19B     -0.121000
     25 C4         -0.2310    0.6810   -4.4130 c1        1 19B     -0.121000
     26 C1         -0.6280   -0.4480   -5.1530 c1        1 19B     -0.067500
     27 C3         -0.3020   -1.7020   -4.7140 c1        1 19B     -0.067500
     28 O8         -0.8060   -2.6100   -5.6130 o         1 19B     -0.009700
     29 C7          0.4290   -1.8630   -3.5200 c1        1 19B     -0.107000
     30 C2         -1.3460   -0.5820   -6.3470 c1        1 19B     -0.075000
     31 N6         -1.4540   -1.9010   -6.6260 n2        1 19B     -0.057300
     32 C5         -1.9240    0.3390   -7.1990 c2        1 19B     -0.033000
     33 C10        -3.4140   -0.0130   -7.5150 c3        1 19B     -0.155500
     34 C13        -4.0540    0.9670   -8.4810 c3        1 19B     -0.073000
     35 N16        -3.1540    1.6290   -9.1420 n3        1 19B     -0.303000
     36 C14        -2.0380    1.1690   -9.6270 c3        1 19B     -0.073000
     37 C11        -1.3890    0.1930   -8.6740 c3        1 19B     -0.155500
     38 HN24        2.1110   -0.1880    3.4050 hn        1 19B      0.233000
     39 H27         2.0430    0.1970    5.8150 ha        1 19B      0.142000
     40 H32        -1.5830    0.3850    7.7050 ha        1 19B      0.141000
     41 H30        -2.6780    0.0790    5.6330 ha        1 19B      0.141000
     42 H28        -1.4110   -0.1680    3.6530 ha        1 19B      0.174000
     43 H33        -0.3120   -0.8020    9.0290 h1        1 19B      0.085250
     44 H33A        1.0340   -1.5150    8.5600 h1        1 19B      0.085250
     45 H35         2.1830   -0.6780   10.3580 h1        1 19B      0.093500
     46 H35A        0.8560   -1.3500   10.9250 h1        1 19B      0.093500
     47 H36         2.1520    1.8270   10.1830 h1        1 19B      0.093500
     48 H36A        0.8060    2.5410   10.6530 h1        1 19B      0.093500
     49 H34         0.9850    2.3760    8.2890 h1        1 19B      0.085250
     50 H34A       -0.3430    1.7030    8.8540 h1        1 19B      0.085250
     51 H23         3.1840   -0.6380    1.7790 ha        1 19B      0.139000
     52 H20         4.4560   -0.8350   -0.2050 ha        1 19B      0.140000
     53 H21         3.6040   -1.8090   -3.1190 hc        1 19B      0.093000
     54 H21A        3.3030   -0.2660   -3.4160 hc        1 19B      0.093000
     55 H21B        4.5920   -0.6800   -2.5610 hc        1 19B      0.093000
     56 H17        -0.2620   -0.5620   -0.4350 ha        1 19B      0.161000
     57 H9          0.7780    1.3060   -2.7340 ha        1 19B      0.141000
     58 H4         -0.4640    1.5770   -4.7270 ha        1 19B      0.141000
     59 H7          0.6890   -2.7540   -3.2240 ha        1 19B      0.163000
     60 H5         -1.8310    1.2550   -6.8690 ha        1 19B      0.107000
     61 H10        -3.4510   -0.9110   -7.9050 hc        1 19B      0.094500
     62 H10A       -3.9230   -0.0100   -6.6790 hc        1 19B      0.094500
     63 H13        -4.6170    0.4750   -9.1110 h1        1 19B      0.071750
     64 H13A       -4.6100    1.5980   -7.9770 h1        1 19B      0.071750
     65 HN16       -3.5640    2.1600   -9.7680 hn        1 19B      0.159000
     66 H14        -2.2190    0.7170  -10.4730 h1        1 19B      0.071750
     67 H14A       -1.4250    1.9160   -9.7870 h1        1 19B      0.071750
     68 H11        -0.4240    0.3450   -8.6760 hc        1 19B      0.094500
     69 H11A       -1.5670   -0.7170   -8.9860 hc        1 19B      0.094500
@<TRIPOS>BOND
     1    1    2 1   
     2    2   16 1   
     3    3    4 1   
     4    3   38 1   
     5    4    5 1   
     6    4    9 1   
     7    5    6 1   
     8    5   39 1   
     9    6   10 1   
    10    7    8 1   
    11    7   40 1   
    12    8   41 1   
    13    9   42 1   
    14   10   11 1   
    15   10   15 1   
    16   11   12 1   
    17   11   43 1   
    18   11   44 1   
    19   12   13 1   
    20   12   45 1   
    21   12   46 1   
    22   13   14 1   
    23   14   15 1   
    24   14   47 1   
    25   14   48 1   
    26   15   49 1   
    27   15   50 1   
    28   16   17 1   
    29   16   22 1   
    30   17   18 1   
    31   17   51 1   
    32   18   52 1   
    33   19   20 1   
    34   19   21 1   
    35   20   53 1   
    36   20   54 1   
    37   20   55 1   
    38   22   56 1   
    39   23   29 1   
    40   24   25 1   
    41   24   57 1   
    42   25   58 1   
    43   26   27 1   
    44   28   31 2   
    45   29   59 1   
    46   30   31 1   
    47   32   33 1   
    48   32   37 1   
    49   32   60 1   
    50   33   34 1   
    51   33   61 1   
    52   33   62 1   
    53   34   35 1   
    54   34   63 1   
    55   34   64 1   
    56   35   36 1   
    57   35   65 1   
    58   36   37 1   
    59   36   66 1   
    60   36   67 1   
    61   37   68 1   
    62   37   69 1   
@<TRIPOS>SUBSTRUCTURE
     1 19B         1 TEMP              0 ****  ****    0 ROOT
