@<TRIPOS>MOLECULE
19B
   70    75     1     0     0
SMALL
bcc


@<TRIPOS>ATOM
      1 O25         2.1010    3.0850   -0.3300 o         1 19B     -0.424100
      2 C22         2.2480    1.8940   -0.0990 c         1 19B      0.588700
      3 N24         2.2320    1.5300    1.3850 n4        1 19B     -0.551200
      4 C26         0.8630    1.2740    1.8540 ca        1 19B     -0.004400
      5 C27         0.5070   -0.0250    2.2450 ca        1 19B     -0.198000
      6 C29        -0.8090   -0.2920    2.7040 ca        1 19B      0.210600
      7 C32        -1.7090    0.8100    2.7870 ca        1 19B     -0.150000
      8 C30        -1.3260    2.0820    2.3960 ca        1 19B     -0.066000
      9 C28        -0.0410    2.3410    1.9170 ca        1 19B     -0.156000
     10 N31        -1.2260   -1.5930    2.9900 nh        1 19B     -0.635000
     11 C33        -2.4580   -1.7430    3.7480 c3        1 19B      0.158800
     12 C35        -2.8660   -3.1970    4.0180 c3        1 19B      0.118400
     13 O37        -1.7670   -3.9780    4.4640 os        1 19B     -0.390600
     14 C36        -0.7320   -4.0040    3.4950 c3        1 19B      0.118400
     15 C34        -0.1970   -2.5970    3.1960 c3        1 19B      0.158800
     16 C19         2.4200    0.7850   -1.0340 ca        1 19B     -0.204600
     17 C23         3.3200   -0.2670   -0.8030 ca        1 19B     -0.091000
     18 C20         3.4550   -1.2690   -1.7520 ca        1 19B     -0.131000
     19 C18         2.6990   -1.2590   -2.9380 ca        1 19B      0.017700
     20 C21         2.8820   -2.3610   -3.9100 c3        1 19B     -0.083800
     21 C15         1.7990   -0.2020   -3.1700 cp        1 19B     -0.030000
     22 C17         1.6760    0.8230   -2.2220 ca        1 19B     -0.034000
     23 C12         0.9790   -0.1250   -4.3830 cp        1 19B     -0.044000
     24 C9          1.0300    1.0420   -5.1730 ca        1 19B     -0.141000
     25 C4          0.2640    1.1830   -6.3290 ca        1 19B     -0.053000
     26 C1         -0.5750    0.1370   -6.6890 ca        1 19B     -0.201900
     27 C3         -0.6180   -1.0350   -5.8720 ca        1 19B      0.044100
     28 O8         -1.5370   -1.9330   -6.4480 os        1 19B     -0.004600
     29 C7          0.1430   -1.1970   -4.7250 ca        1 19B     -0.102000
     30 C2         -1.5350   -0.1670   -7.7650 cc        1 19B      0.377900
     31 N6         -2.0470   -1.3870   -7.5480 nd        1 19B     -0.366200
     32 C5         -1.8600    0.7460   -8.8930 c3        1 19B     -0.078000
     33 C10        -3.3320    1.1390   -8.8800 c3        1 19B     -0.075400
     34 C13        -3.6420    2.0660  -10.0550 c3        1 19B      0.165300
     35 N16        -3.2420    1.5120  -11.3330 n3        1 19B     -0.822200
     36 C14        -1.8640    1.0660  -11.3770 c3        1 19B      0.165300
     37 C11        -1.5080    0.1130  -10.2350 c3        1 19B     -0.075400
     38 HN24        2.6110    2.3180    1.9260 hn        1 19B      0.458300
     39 H27         1.2520   -0.8340    2.1910 ha        1 19B      0.147000
     40 H32        -2.7340    0.6710    3.1670 ha        1 19B      0.164000
     41 H30        -2.0490    2.9140    2.4640 ha        1 19B      0.167000
     42 H28         0.2370    3.3590    1.6000 ha        1 19B      0.165000
     43 H33        -3.2930   -1.2730    3.1540 h1        1 19B      0.053200
     44 H33A       -2.3710   -1.2040    4.7360 h1        1 19B      0.053200
     45 H35        -3.6010   -3.2310    4.8650 h1        1 19B      0.071200
     46 H35A       -3.3140   -3.6580    3.0980 h1        1 19B      0.071200
     47 H36        -1.1000   -4.4920    2.5540 h1        1 19B      0.071200
     48 H36A        0.0790   -4.6250    3.9610 h1        1 19B      0.071200
     49 H34         0.4140   -2.6740    2.2520 h1        1 19B      0.053200
     50 H34A        0.4850   -2.2850    4.0400 h1        1 19B      0.053200
     51 H23         3.9540   -0.2960    0.0950 ha        1 19B      0.128000
     52 H20         4.1750   -2.0880   -1.5830 ha        1 19B      0.162000
     53 H21         2.2110   -3.2170   -3.6410 hc        1 19B      0.072700
     54 H21A        2.6270   -2.0320   -4.9490 hc        1 19B      0.072700
     55 H21B        3.9390   -2.7280   -3.9020 hc        1 19B      0.072700
     56 H17         0.9860    1.6620   -2.4140 ha        1 19B      0.167000
     57 H9          1.7040    1.8590   -4.8720 ha        1 19B      0.142000
     58 H4          0.3240    2.0990   -6.9370 ha        1 19B      0.157000
     59 H7          0.0900   -2.1120   -4.1210 ha        1 19B      0.159000
     60 H5         -1.2370    1.6780   -8.7610 hc        1 19B      0.055700
     61 H10        -3.9710    0.2190   -8.9430 hc        1 19B      0.060450
     62 H10A       -3.5810    1.6710   -7.9270 hc        1 19B      0.060450
     63 H13        -4.7550    2.2360  -10.0980 h1        1 19B      0.031700
     64 H13A       -3.1520    3.0650   -9.8530 h1        1 19B      0.031700
     65 HN16       -3.4160    2.1720  -12.0670 hn        1 19B      0.371800
     66 H14        -1.7180    0.5270  -12.3550 h1        1 19B      0.031700
     67 H14A       -1.1360    1.9310  -11.3510 h1        1 19B      0.031700
     68 H11        -0.4120   -0.1100  -10.2810 hc        1 19B      0.060450
     69 H11A       -2.0660   -0.8510  -10.3570 hc        1 19B      0.060450
     70 H242        2.8080    0.6980    1.5460 hn        1 19B      0.458300
@<TRIPOS>BOND
     1    1    2 2   
     2    2    3 1   
     3    2   16 1   
     4    3    4 1   
     5    3   38 1   
     6    3   70 1   
     7    4    5 ar  
     8    4    9 ar  
     9    5    6 ar  
    10    5   39 1   
    11    6    7 ar  
    12    6   10 1   
    13    7    8 ar  
    14    7   40 1   
    15    8    9 ar  
    16    8   41 1   
    17    9   42 1   
    18   10   11 1   
    19   10   15 1   
    20   11   12 1   
    21   11   43 1   
    22   11   44 1   
    23   12   13 1   
    24   12   45 1   
    25   12   46 1   
    26   13   14 1   
    27   14   15 1   
    28   14   47 1   
    29   14   48 1   
    30   15   49 1   
    31   15   50 1   
    32   16   17 ar  
    33   16   22 ar  
    34   17   18 ar  
    35   17   51 1   
    36   18   19 ar  
    37   18   52 1   
    38   19   20 1   
    39   19   21 ar  
    40   20   53 1   
    41   20   54 1   
    42   20   55 1   
    43   21   22 ar  
    44   21   23 1   
    45   22   56 1   
    46   23   24 ar  
    47   23   29 ar  
    48   24   25 ar  
    49   24   57 1   
    50   25   26 ar  
    51   25   58 1   
    52   26   27 ar  
    53   26   30 1   
    54   27   28 1   
    55   27   29 ar  
    56   28   31 1   
    57   29   59 1   
    58   30   31 2   
    59   30   32 1   
    60   32   33 1   
    61   32   37 1   
    62   32   60 1   
    63   33   34 1   
    64   33   61 1   
    65   33   62 1   
    66   34   35 1   
    67   34   63 1   
    68   34   64 1   
    69   35   36 1   
    70   35   65 1   
    71   36   37 1   
    72   36   66 1   
    73   36   67 1   
    74   37   68 1   
    75   37   69 1   
@<TRIPOS>SUBSTRUCTURE
     1 19B         1 TEMP              0 ****  ****    0 ROOT
