@<TRIPOS>MOLECULE
19B
   69    74     1     0     0
SMALL
bcc


@<TRIPOS>ATOM
      1 O25         2.5750    0.3060   -0.9300 o         1 19B     -0.584100
      2 C22         2.5080    1.3800   -0.3040 c         1 19B      0.681700
      3 N24         3.5370    1.8670    0.4890 n         1 19B     -0.469100
      4 C26         4.8120    1.3060    0.6840 ca        1 19B      0.090600
      5 C27         5.1390    0.0010    0.2770 ca        1 19B     -0.186000
      6 C29         6.4350   -0.5220    0.4940 ca        1 19B      0.164600
      7 C32         7.3950    0.2880    1.1370 ca        1 19B     -0.208000
      8 C30         7.0580    1.5710    1.5540 ca        1 19B     -0.079000
      9 C28         5.7920    2.0940    1.3370 ca        1 19B     -0.212000
     10 N31         6.6980   -1.8690    0.1370 nh        1 19B     -0.633000
     11 C33         7.9810   -2.4110    0.5550 c3        1 19B      0.149300
     12 C35         8.0950   -3.9130    0.2610 c3        1 19B      0.123400
     13 O37         7.8040   -4.2070   -1.1000 os        1 19B     -0.414600
     14 C36         6.5160   -3.7400   -1.4830 c3        1 19B      0.123400
     15 C34         6.3580   -2.2350   -1.2330 c3        1 19B      0.149300
     16 C19         1.2710    2.2180   -0.3470 ca        1 19B     -0.153600
     17 C23         1.3220    3.6090   -0.4780 ca        1 19B     -0.097000
     18 C20         0.1390    4.3390   -0.5290 ca        1 19B     -0.141000
     19 C18        -1.1090    3.7040   -0.4560 ca        1 19B     -0.032300
     20 C21        -2.3340    4.5350   -0.5040 c3        1 19B     -0.066800
     21 C15        -1.1590    2.3030   -0.3400 cp        1 19B     -0.056000
     22 C17         0.0360    1.5700   -0.2860 ca        1 19B     -0.061000
     23 C12        -2.4250    1.5690   -0.2690 cp        1 19B     -0.005000
     24 C9         -2.6210    0.6420    0.7780 ca        1 19B     -0.142000
     25 C4         -3.7910   -0.1050    0.8960 ca        1 19B     -0.061000
     26 C1         -4.7820    0.0790   -0.0590 ca        1 19B     -0.217900
     27 C3         -4.5660    1.0160   -1.1140 ca        1 19B      0.044100
     28 O8         -5.7110    1.0110   -1.9400 os        1 19B     -0.010600
     29 C7         -3.4100    1.7690   -1.2470 ca        1 19B     -0.107000
     30 C2         -6.1230   -0.4520   -0.3490 cc        1 19B      0.372900
     31 N6         -6.5910    0.1420   -1.4570 nd        1 19B     -0.388200
     32 C5         -6.8220   -1.4800    0.4690 c3        1 19B     -0.073000
     33 C10        -7.0860   -2.7430   -0.3430 c3        1 19B     -0.112400
     34 C13        -7.8420   -3.7660    0.5080 c3        1 19B      0.149800
     35 N16        -9.0510   -3.2750    1.1400 n3        1 19B     -0.797200
     36 C14        -8.8410   -2.0260    1.8450 c3        1 19B      0.149800
     37 C11        -8.1240   -0.9360    1.0450 c3        1 19B     -0.112400
     38 HN24        3.3830    2.7400    0.9460 hn        1 19B      0.319500
     39 H27         4.3700   -0.6270   -0.2040 ha        1 19B      0.175000
     40 H32         8.4170   -0.0730    1.3190 ha        1 19B      0.134000
     41 H30         7.8160    2.1880    2.0620 ha        1 19B      0.131000
     42 H28         5.5620    3.1150    1.6730 ha        1 19B      0.128000
     43 H33         8.8390   -1.8840    0.0440 h1        1 19B      0.050200
     44 H33A        8.0820   -2.2600    1.6660 h1        1 19B      0.050200
     45 H35         9.1550   -4.2500    0.4010 h1        1 19B      0.055950
     46 H35A        7.4100   -4.5000    0.9270 h1        1 19B      0.055950
     47 H36         6.4550   -3.9530   -2.5820 h1        1 19B      0.055950
     48 H36A        5.7280   -4.3190   -0.9330 h1        1 19B      0.055950
     49 H34         5.2870   -1.9550   -1.4330 h1        1 19B      0.050200
     50 H34A        7.0090   -1.6810   -1.9700 h1        1 19B      0.050200
     51 H23         2.2870    4.1330   -0.5600 ha        1 19B      0.138000
     52 H20         0.1800    5.4350   -0.6310 ha        1 19B      0.140000
     53 H21        -2.6300    4.7150   -1.5690 hc        1 19B      0.054033
     54 H21A       -3.1870    4.0340    0.0170 hc        1 19B      0.054033
     55 H21B       -2.1580    5.5280   -0.0200 hc        1 19B      0.054033
     56 H17         0.0040    0.4700   -0.2110 ha        1 19B      0.159000
     57 H9         -1.8200    0.5120    1.5230 ha        1 19B      0.144000
     58 H4         -3.9230   -0.8190    1.7220 ha        1 19B      0.146000
     59 H7         -3.2700    2.4780   -2.0740 ha        1 19B      0.162000
     60 H5         -6.1390   -1.7480    1.3280 hc        1 19B      0.061700
     61 H10        -7.6820   -2.4890   -1.2570 hc        1 19B      0.056450
     62 H10A       -6.1160   -3.1890   -0.6800 hc        1 19B      0.056450
     63 H13        -8.1110   -4.6490   -0.1350 h1        1 19B      0.053450
     64 H13A       -7.1590   -4.1310    1.3270 h1        1 19B      0.053450
     65 HN16       -9.7700   -3.1560    0.4480 hn        1 19B      0.352800
     66 H14        -9.8420   -1.6350    2.1800 h1        1 19B      0.053450
     67 H14A       -8.2350   -2.2570    2.7660 h1        1 19B      0.053450
     68 H11        -7.9100   -0.0670    1.7170 hc        1 19B      0.056450
     69 H11A       -8.7840   -0.5720    0.2160 hc        1 19B      0.056450
@<TRIPOS>BOND
     1    1    2 2   
     2    2    3 1   
     3    2   16 1   
     4    3    4 1   
     5    3   38 1   
     6    4    5 ar  
     7    4    9 ar  
     8    5    6 ar  
     9    5   39 1   
    10    6    7 ar  
    11    6   10 1   
    12    7    8 ar  
    13    7   40 1   
    14    8    9 ar  
    15    8   41 1   
    16    9   42 1   
    17   10   11 1   
    18   10   15 1   
    19   11   12 1   
    20   11   43 1   
    21   11   44 1   
    22   12   13 1   
    23   12   45 1   
    24   12   46 1   
    25   13   14 1   
    26   14   15 1   
    27   14   47 1   
    28   14   48 1   
    29   15   49 1   
    30   15   50 1   
    31   16   17 ar  
    32   16   22 ar  
    33   17   18 ar  
    34   17   51 1   
    35   18   19 ar  
    36   18   52 1   
    37   19   20 1   
    38   19   21 ar  
    39   20   53 1   
    40   20   54 1   
    41   20   55 1   
    42   21   22 ar  
    43   21   23 1   
    44   22   56 1   
    45   23   24 ar  
    46   23   29 ar  
    47   24   25 ar  
    48   24   57 1   
    49   25   26 ar  
    50   25   58 1   
    51   26   27 ar  
    52   26   30 1   
    53   27   28 1   
    54   27   29 ar  
    55   28   31 1   
    56   29   59 1   
    57   30   31 2   
    58   30   32 1   
    59   32   33 1   
    60   32   37 1   
    61   32   60 1   
    62   33   34 1   
    63   33   61 1   
    64   33   62 1   
    65   34   35 1   
    66   34   63 1   
    67   34   64 1   
    68   35   36 1   
    69   35   65 1   
    70   36   37 1   
    71   36   66 1   
    72   36   67 1   
    73   37   68 1   
    74   37   69 1   
@<TRIPOS>SUBSTRUCTURE
     1 19B         1 TEMP              0 ****  ****    0 ROOT
