@<TRIPOS>MOLECULE
19C
   32    33     1     0     0
SMALL
bcc


@<TRIPOS>ATOM
      1 OAA         0.0350    0.3730    0.5080 o         1 19C     -0.299000
      2 OAB         4.2510   -0.6420    3.3630 oh        1 19C     -0.203000
      3 OAC         1.7340   -0.4260    2.5380 oh        1 19C     -0.265000
      4 CAF         5.1010   -0.0080    1.2560 c2        1 19C     -0.253000
      5 CAG        -1.3830   -3.4520   -3.3810 c2        1 19C     -0.178000
      6 CAH        -0.2440   -2.5550   -3.2590 c2        1 19C     -0.218000
      7 CAI         4.9210    0.3300   -0.0890 c1        1 19C     -0.082000
      8 CAJ         0.8420   -3.1410   -4.0240 c2        1 19C     -0.118000
      9 CAK         0.8560   -0.5410   -2.4290 c2        1 19C     -0.530000
     10 CAL         3.3620    1.3640   -1.6680 c1        1 19C     -0.030000
     11 CAM         1.0370    0.3880   -0.2220 c2        1 19C      0.285000
     12 CAN         4.0290   -0.2920    2.0780 c2        1 19C      0.193000
     13 CAO        -0.9970   -4.5240   -4.1760 c2        1 19C      0.027000
     14 CAP         2.6510   -0.1830    1.5620 c2        1 19C      0.106000
     15 CAQ         0.3970   -4.3280   -4.5780 c2        1 19C     -0.153000
     16 CAR        -0.2390   -1.3840   -2.5380 c2        1 19C      0.087000
     17 CAS         3.5700    0.3260   -0.6710 c3        1 19C     -0.191000
     18 CAT         2.4090    0.1610    0.2610 c2        1 19C     -0.215000
     19 NAU         0.8490    0.6740   -1.6710 n4        1 19C     -0.012000
     20 HOAB        3.4090   -0.8120    3.8250 ho        1 19C      0.264000
     21 HOAC        0.8240   -0.4140    2.1840 ho        1 19C      0.288000
     22 HAF         6.1260   -0.0510    1.6620 ha        1 19C      0.186000
     23 HAG        -2.3540   -3.2930   -2.9230 ha        1 19C      0.134000
     24 HAH        -1.1770   -1.1130   -2.0140 ha        1 19C      0.108000
     25 HAI         3.6020   -0.6280   -1.3420 hc        1 19C      0.256000
     26 HAJ         1.8290   -2.7000   -4.1340 ha        1 19C      0.125000
     27 HAK         1.7230    1.2840   -1.9630 hn        1 19C      0.267500
     28 HAKA        1.8080   -0.7510   -2.9310 hx        1 19C      0.153000
     29 HAL1        4.2410    1.8000   -2.1590 ha        1 19C      0.126000
     30 HAL2       -0.0350    1.1700   -1.7910 hn        1 19C      0.267500
     31 FAD        -1.7530   -5.5750   -4.5290 f         1 19C     -0.105000
     32 CLA         1.2800   -5.3780   -5.5450 cl        1 19C     -0.018000
@<TRIPOS>BOND
     1    1   11 1   
     2    2   12 1   
     3    2   20 1   
     4    3   14 1   
     5    3   21 1   
     6    4    7 1   
     7    4   12 1   
     8    4   22 1   
     9    5    6 1   
    10    5   13 1   
    11    5   23 1   
    12    6    8 1   
    13    6   16 1   
    14    7   17 1   
    15    8   15 1   
    16    8   26 1   
    17    9   16 1   
    18    9   19 1   
    19    9   28 1   
    20   10   17 1   
    21   10   29 1   
    22   11   18 1   
    23   11   19 1   
    24   12   14 1   
    25   13   15 1   
    26   13   31 1   
    27   14   18 1   
    28   15   32 1   
    29   16   24 1   
    30   17   18 1   
    31   17   25 1   
    32   19   27 1   
    33   19   30 1   
@<TRIPOS>SUBSTRUCTURE
     1 19C         1 TEMP              0 ****  ****    0 ROOT
