@<TRIPOS>MOLECULE
19C
   32    32     1     0     0
SMALL
bcc


@<TRIPOS>ATOM
      1 OAA        -0.0190    0.5970    0.2700 o         1 19C     -0.396000
      2 OAB         4.2460    1.9550    3.0260 oh        1 19C     -0.246000
      3 OAC         1.7420    1.9360    1.9620 oh        1 19C     -0.278000
      4 CAF         4.8140   -0.0200    1.8520 ca        1 19C     -0.096000
      5 CAG        -0.8350   -3.5850   -3.4820 c2        1 19C     -0.096000
      6 CAH         0.2350   -3.3970   -2.7540 c1        1 19C     -0.161000
      7 CAI         4.4870   -1.0490    0.9810 ca        1 19C     -0.138000
      8 CAJ         0.8820   -1.5430   -4.7680 c1        1 19C     -0.026000
      9 CAK         1.6270   -2.2450   -1.0780 c2        1 19C      0.063000
     10 CAL         2.8710   -2.1820   -0.5060 c2        1 19C     -0.171000
     11 CAM         0.9110   -0.2180    0.0730 c2        1 19C      0.353000
     12 CAN         3.8630    0.9640    2.1560 ca        1 19C      0.043000
     13 CAO        -1.0140   -3.1020   -4.8480 c2        1 19C      0.104000
     14 CAP         2.5720    0.9150    1.5800 ca        1 19C      0.080000
     15 CAQ        -0.2440   -2.0950   -5.3960 c2        1 19C     -0.178000
     16 CAR         1.2940   -3.3420   -1.9930 c2        1 19C     -0.058000
     17 CAS         3.2120   -1.1160    0.3980 ca        1 19C      0.008000
     18 CAT         2.2420   -0.1280    0.6960 ca        1 19C     -0.167000
     19 NAU         0.6640   -1.2790   -0.7980 n         1 19C     -0.289000
     20 HOAB        3.4990    2.5650    3.1410 ho        1 19C      0.242000
     21 HOAC        0.8760    1.8450    1.5270 ho        1 19C      0.273000
     22 HAF         5.8120    0.0420    2.3140 ha        1 19C      0.159000
     23 HAG        -1.6990   -4.1430   -3.0680 ha        1 19C      0.173000
     24 HAH         2.0380   -4.1630   -2.0210 ha        1 19C      0.170000
     25 HAI         5.2330   -1.8210    0.7410 ha        1 19C      0.144000
     26 HAJ         0.8720   -1.2520   -3.7110 ha        1 19C      0.096000
     27 HAK         0.5400    0.6580   -5.0960 ha        1 19C      0.015500
     28 HAKA        1.0660    0.5130   -5.5060 ha        1 19C      0.015500
     29 HAL1       -0.2410   -1.3560   -1.2090 hn        1 19C      0.252000
     30 HAL2        3.6310   -2.9430   -0.7320 ha        1 19C      0.154000
     31 FAD        -1.9420   -3.7700   -5.5680 f         1 19C     -0.079000
     32 CLA        -0.5250   -1.5540   -6.9880 cl        1 19C      0.034000
@<TRIPOS>BOND
     1    1   11 1   
     2    2   12 1   
     3    2   20 1   
     4    3   14 1   
     5    3   21 1   
     6    4    7 1   
     7    4   12 1   
     8    4   22 1   
     9    5    6 1   
    10    5   13 1   
    11    5   23 1   
    12    6   16 1   
    13    7   17 1   
    14    7   25 1   
    15    8   15 1   
    16    8   26 1   
    17    9   10 1   
    18    9   16 1   
    19    9   19 1   
    20   10   17 1   
    21   10   30 1   
    22   11   18 1   
    23   11   19 1   
    24   12   14 1   
    25   13   15 1   
    26   13   31 1   
    27   14   18 1   
    28   15   32 1   
    29   16   24 1   
    30   17   18 1   
    31   19   29 1   
    32   27   28 1   
@<TRIPOS>SUBSTRUCTURE
     1 19C         1 TEMP              0 ****  ****    0 ROOT
