@<TRIPOS>MOLECULE
19C
   32    34     1     0     0
SMALL
bcc


@<TRIPOS>ATOM
      1 OAA         0.1040    1.2130   -0.4510 o         1 19C     -0.231000
      2 OAB         3.2950    0.2560    3.9080 oh        1 19C     -0.206000
      3 OAC         1.0530    0.9080    2.4950 oh        1 19C     -0.248000
      4 CAF         4.4820   -0.1950    1.9130 c2        1 19C     -0.256000
      5 CAG         0.6250   -4.1640   -3.4110 c2        1 19C     -0.185000
      6 CAH         0.4830   -2.7150   -3.4420 c2        1 19C     -0.208000
      7 CAI         4.5590   -0.4050    0.5180 c1        1 19C     -0.034000
      8 CAJ        -0.5670   -2.4120   -4.4010 c2        1 19C     -0.109000
      9 CAK         1.0990   -0.4570   -2.7480 c2        1 19C     -0.525000
     10 CAL         3.2690    0.0430   -1.6500 c3        1 19C     -0.084000
     11 CAM         1.1920    0.6630   -0.5800 c2        1 19C      0.281000
     12 CAN         3.3040    0.1180    2.5620 c2        1 19C      0.177000
     13 CAO        -0.2930   -4.7000   -4.3020 c2        1 19C      0.036000
     14 CAP         2.0820    0.3800    1.7780 c2        1 19C      0.117000
     15 CAQ        -1.0390   -3.6020   -4.9220 c2        1 19C     -0.152000
     16 CAR         1.2250   -1.8390   -2.6890 c2        1 19C      0.082000
     17 CAS         3.2910   -0.4910   -0.2080 c3        1 19C     -0.129000
     18 CAT         2.1090    0.1610    0.4400 c2        1 19C     -0.274000
     19 NAU         1.8460    0.4650   -1.9480 nx        1 19C      0.082000
     20 HOAB        2.4080    0.5230    4.2120 ho        1 19C      0.258000
     21 HOAC        0.3020    1.0890    1.8980 ho        1 19C      0.275000
     22 HAF         5.4110   -0.2810    2.5020 ha        1 19C      0.185000
     23 HAG         1.3320   -4.7080   -2.7930 ha        1 19C      0.133000
     24 HAH         1.9730   -2.2860   -2.0050 ha        1 19C      0.093000
     25 HAI         3.1120   -1.6220   -0.2400 hc        1 19C      0.190000
     26 HAJ        -0.9060   -1.4090   -4.6480 ha        1 19C      0.134000
     27 HAK         3.5870   -0.7420   -2.3890 hx        1 19C      0.150000
     28 HAKA        0.3430    0.0270   -3.3810 hx        1 19C      0.176000
     29 HAL1        1.8450    1.3670   -2.4320 hn        1 19C      0.240000
     30 HAL2        3.9400    0.9380   -1.7480 hx        1 19C      0.150000
     31 FAD        -0.4870   -6.0000   -4.5700 f         1 19C     -0.103000
     32 ClA        -2.2540   -3.7880   -6.0640 cl        1 19C     -0.012000
@<TRIPOS>BOND
     1    1   11 1   
     2    2   12 1   
     3    2   20 1   
     4    3   14 1   
     5    3   21 1   
     6    4    7 1   
     7    4   12 1   
     8    4   22 1   
     9    5    6 1   
    10    5   13 1   
    11    5   23 1   
    12    6    8 1   
    13    6   16 1   
    14    7   17 1   
    15    8   15 1   
    16    8   26 1   
    17    9   16 1   
    18    9   19 1   
    19    9   28 1   
    20   10   17 1   
    21   10   19 1   
    22   10   27 1   
    23   10   30 1   
    24   11   18 1   
    25   11   19 1   
    26   12   14 1   
    27   13   15 1   
    28   13   31 1   
    29   14   18 1   
    30   15   32 1   
    31   16   24 1   
    32   17   18 1   
    33   17   25 1   
    34   19   29 1   
@<TRIPOS>SUBSTRUCTURE
     1 19C         1 TEMP              0 ****  ****    0 ROOT
