@<TRIPOS>MOLECULE
19C
   32    30     1     0     0
SMALL
bcc


@<TRIPOS>ATOM
      1 OAA        -1.3690   -1.0340    1.0150 o         1 19C     -0.312000
      2 OAB         3.0600   -1.0520    4.6540 oh        1 19C     -0.269000
      3 OAC         0.0330   -1.1780    3.5160 oh        1 19C     -0.214000
      4 FAD        -4.3040    3.4760   -2.3600 f         1 19C     -0.091000
      5 CLA        -5.4270    1.3300   -1.0430 cl        1 19C      0.016000
      6 CAF         3.6220   -0.8020    2.4960 c1        1 19C     -0.147000
      7 CAG        -2.0790    2.5670   -2.8490 c1        1 19C     -0.164000
      8 CAH        -1.2130    1.5040   -2.6420 c1        1 19C     -0.098000
      9 CAI         3.4150   -0.7170    1.1280 c1        1 19C     -0.124000
     10 CAJ        -2.9550    0.3150   -1.4960 c1        1 19C     -0.087000
     11 CAK        -0.7800   -0.8700   -1.9430 c3        1 19C      0.014000
     12 CAL         1.5720   -0.6670   -0.8150 c3        1 19C     -0.006000
     13 CAM        -0.2400   -0.9190    0.6020 c1        1 19C      0.355000
     14 CAN         2.5370   -0.9410    3.3560 c2        1 19C     -0.015000
     15 CAO        -3.3840    2.5010   -2.3770 c2        1 19C      0.102000
     16 CAP         1.2510   -0.9940    2.8450 c2        1 19C      0.151000
     17 CAQ        -3.8190    1.3770   -1.7030 c2        1 19C     -0.102000
     18 CAR        -1.6480    0.3800   -1.9680 c1        1 19C     -0.128000
     19 CAS         2.1130   -0.7710    0.6110 c2        1 19C     -0.065000
     20 CAT         1.0430   -0.9080    1.4590 c1        1 19C     -0.155000
     21 NAU         0.1420   -0.8150   -0.7630 n3        1 19C     -0.322000
     22 HOAB        2.8620   -0.3270    5.1130 ho        1 19C      0.232000
     23 HOAC        0.0730   -0.7940    4.3080 ho        1 19C      0.241000
     24 HAF         4.5120   -0.7080    2.8560 ha        1 19C      0.140000
     25 HAG        -1.7690    3.3680   -3.3290 ha        1 19C      0.153000
     26 HAH        -0.3030    1.5500   -2.9710 ha        1 19C      0.139000
     27 HAI         4.2060   -0.6150    0.5000 ha        1 19C      0.145000
     28 HAJ        -3.2680   -0.4900   -1.0130 ha        1 19C      0.175000
     29 HAK        -0.2580   -0.9170   -2.7590 h1        1 19C      0.113000
     30 HAKA       -1.3770   -1.6990   -1.8720 h1        1 19C      0.113000
     31 HAL1        1.8010    0.2150   -1.1960 h1        1 19C      0.105000
     32 HAL2        1.9510   -1.3650   -1.3580 h1        1 19C      0.105000
@<TRIPOS>BOND
     1    1   13 1   
     2    2   14 1   
     3    2   22 1   
     4    3   16 1   
     5    3   23 1   
     6    4   15 1   
     7    5   17 1   
     8    6   14 1   
     9    6   24 1   
    10    7   15 1   
    11    7   25 1   
    12    8   18 1   
    13    8   26 1   
    14    9   19 1   
    15    9   27 1   
    16   10   17 1   
    17   10   28 1   
    18   11   18 1   
    19   11   21 1   
    20   11   29 1   
    21   11   30 1   
    22   12   19 1   
    23   12   21 1   
    24   12   31 1   
    25   12   32 1   
    26   13   21 1   
    27   14   16 1   
    28   15   17 1   
    29   16   20 1   
    30   19   20 1   
@<TRIPOS>SUBSTRUCTURE
     1 19C         1 TEMP              0 ****  ****    0 ROOT
