@<TRIPOS>MOLECULE
19C
   32    34     1     0     0
SMALL
bcc


@<TRIPOS>ATOM
      1 OAA         1.4960   -2.2460    1.0540 o         1 19C     -0.639500
      2 OAB         5.6670    0.2670   -1.5610 oh        1 19C     -0.491100
      3 OAC         4.1230   -1.8050   -0.5300 oh        1 19C     -0.510100
      4 CAF         4.1700    1.8650   -0.6620 ca        1 19C     -0.112000
      5 CAG        -2.6220   -1.6330   -0.9460 ca        1 19C     -0.159000
      6 CAH        -1.6580   -1.5720    0.0520 ca        1 19C     -0.088000
      7 CAI         3.0140    2.2130    0.0570 ca        1 19C     -0.116000
      8 CAJ        -2.7140    0.3970    0.9780 ca        1 19C     -0.094000
      9 CAK        -0.6670   -0.5300    2.1110 c3        1 19C      0.142300
     10 CAL         0.9540    1.2610    1.3870 c3        1 19C      0.124300
     11 CAM         1.5490   -1.0050    1.0550 c         1 19C      0.719100
     12 CAN         4.5220    0.5260   -0.8470 ca        1 19C      0.097100
     13 CAO        -3.6520   -0.6720   -0.9920 ca        1 19C      0.140900
     14 CAP         3.7140   -0.5160   -0.3080 ca        1 19C      0.135100
     15 CAQ        -3.6940    0.3500   -0.0190 ca        1 19C     -0.027600
     16 CAR        -1.7000   -0.5590    1.0170 ca        1 19C     -0.136300
     17 CAS         2.2290    1.2070    0.5780 ca        1 19C     -0.079300
     18 CAT         2.5790   -0.1580    0.3970 ca        1 19C     -0.224600
     19 NAU         0.6540   -0.1380    1.7180 n         1 19C     -0.456800
     20 HOAB        5.7840   -0.6960   -1.6040 ho        1 19C      0.441000
     21 HOAC        3.4800   -2.4010   -0.1050 ho        1 19C      0.464000
     22 HAF         4.8140    2.6480   -1.0910 ha        1 19C      0.159000
     23 HAG        -2.5960   -2.4270   -1.7080 ha        1 19C      0.157000
     24 HAH        -0.8500   -2.3240    0.0900 ha        1 19C      0.164000
     25 HAI         2.7550    3.2730    0.1920 ha        1 19C      0.146000
     26 HAJ        -2.7510    1.1950    1.7370 ha        1 19C      0.149000
     27 HAK        -1.0020    0.1800    2.9230 h1        1 19C      0.074200
     28 HAKA       -0.5890   -1.5690    2.5510 h1        1 19C      0.074200
     29 HAL1        1.0990    1.8380    2.3400 h1        1 19C      0.068700
     30 HAL2        0.1170    1.7270    0.7970 h1        1 19C      0.068700
     31 FAD        -4.5810   -0.7510   -1.9710 f         1 19C     -0.123900
     32 CLA        -4.9130    1.5310   -0.0280 cl        1 19C     -0.067400
@<TRIPOS>BOND
     1    1   11 2   
     2    2   12 1   
     3    2   20 1   
     4    3   14 1   
     5    3   21 1   
     6    4    7 ar  
     7    4   12 ar  
     8    4   22 1   
     9    5    6 ar  
    10    5   13 ar  
    11    5   23 1   
    12    6   16 ar  
    13    6   24 1   
    14    7   17 ar  
    15    7   25 1   
    16    8   15 ar  
    17    8   16 ar  
    18    8   26 1   
    19    9   16 1   
    20    9   19 1   
    21    9   27 1   
    22    9   28 1   
    23   10   17 1   
    24   10   19 1   
    25   10   29 1   
    26   10   30 1   
    27   11   18 1   
    28   11   19 1   
    29   12   14 ar  
    30   13   15 ar  
    31   13   31 1   
    32   14   18 ar  
    33   15   32 1   
    34   17   18 ar  
@<TRIPOS>SUBSTRUCTURE
     1 19C         1 TEMP              0 ****  ****    0 ROOT
