@<TRIPOS>MOLECULE
19E
   31    34     1     0     0
SMALL
bcc


@<TRIPOS>ATOM
      1 C1          0.0980   -0.1530   -0.1080 ca        1 19E      0.116100
      2 O1         -0.4620   -0.1690   -1.3670 oh        1 19E     -0.497100
      3 C2          1.4690    0.0140   -0.0240 ca        1 19E     -0.154000
      4 C3          2.1000    0.0430    1.2440 ca        1 19E     -0.028000
      5 C4          1.3210   -0.0490    2.4330 ca        1 19E     -0.006000
      6 C5         -0.0730   -0.2750    2.2950 ca        1 19E     -0.092000
      7 C6         -0.6810   -0.3200    1.0650 ca        1 19E     -0.187000
      8 C7          3.5230    0.1290    1.3040 ca        1 19E     -0.093000
      9 C8          4.1900    0.1000    2.4980 ca        1 19E     -0.136000
     10 C9          3.4220    0.0390    3.6870 ca        1 19E     -0.026200
     11 C10         1.9870    0.0340    3.6870 cp        1 19E     -0.046000
     12 N11         3.9060    0.0060    4.9990 na        1 19E     -0.174300
     13 C12         2.8170    0.0130    5.8610 ca        1 19E      0.013800
     14 C13         1.5830    0.0800    5.0850 cp        1 19E     -0.171300
     15 C14         2.8080   -0.0220    7.2670 ca        1 19E     -0.221600
     16 C15         4.0510   -0.1140    8.0550 c3        1 19E     -0.043800
     17 C16         1.5420    0.0480    7.8670 ca        1 19E      0.427200
     18 N17         0.3830    0.1870    7.1960 nb        1 19E     -0.684000
     19 C18         0.4030    0.2290    5.8460 ca        1 19E      0.539300
     20 Cl18       -1.1110    0.5460    5.1040 cl        1 19E     -0.149000
     21 HO1        -1.4160   -0.2930   -1.2640 ho        1 19E      0.419000
     22 H2          2.0710    0.1150   -0.9390 ha        1 19E      0.150000
     23 H5         -0.6760   -0.4390    3.2030 ha        1 19E      0.154000
     24 H6         -1.7630   -0.4930    0.9780 ha        1 19E      0.136000
     25 H7          4.0810    0.2020    0.3570 ha        1 19E      0.140000
     26 H8          5.2870    0.1300    2.5480 ha        1 19E      0.139000
     27 H15         4.7060    0.7720    7.8590 hc        1 19E      0.046367
     28 H15A        3.8290   -0.1500    9.1500 hc        1 19E      0.046367
     29 H15B        4.6210   -1.0380    7.7820 hc        1 19E      0.046367
     30 H16         1.4400    0.0090    8.9670 h4        1 19E      0.029100
     31 HN11        4.8530   -0.0290    5.2680 hn        1 19E      0.308700
@<TRIPOS>BOND
     1    1    2 1   
     2    1    3 ar  
     3    1    7 ar  
     4    2   21 1   
     5    3    4 ar  
     6    3   22 1   
     7    4    5 ar  
     8    4    8 ar  
     9    5    6 ar  
    10    5   11 ar  
    11    6    7 ar  
    12    6   23 1   
    13    7   24 1   
    14    8    9 ar  
    15    8   25 1   
    16    9   10 ar  
    17    9   26 1   
    18   10   11 ar  
    19   10   12 1   
    20   11   14 1   
    21   12   13 1   
    22   12   31 1   
    23   13   14 ar  
    24   13   15 ar  
    25   14   19 ar  
    26   15   16 1   
    27   15   17 ar  
    28   16   27 1   
    29   16   28 1   
    30   16   29 1   
    31   17   18 ar  
    32   17   30 1   
    33   18   19 ar  
    34   19   20 1   
@<TRIPOS>SUBSTRUCTURE
     1 19E         1 TEMP              0 ****  ****    0 ROOT
