@<TRIPOS>MOLECULE
19E
   31    23     1     0     0
SMALL
bcc


@<TRIPOS>ATOM
      1 C1         -1.8740   -0.0290   -3.8330 c1        1 19E      0.021500
      2 O1         -2.5820   -0.2520   -5.0350 o         1 19E     -0.251000
      3 C2         -0.4810   -0.0280   -3.8320 c2        1 19E     -0.154000
      4 C3          0.2240   -0.0250   -2.6080 c1        1 19E      0.021500
      5 C4         -0.4680   -0.0240   -1.4140 c1        1 19E     -0.006000
      6 C5         -1.8790   -0.0250   -1.4170 c1        1 19E     -0.092000
      7 C6         -2.5740   -0.0280   -2.6260 c1        1 19E     -0.140000
      8 C7          1.6360   -0.0280   -2.6050 c1        1 19E     -0.140000
      9 C8          2.3300   -0.0300   -1.3980 c1        1 19E     -0.136000
     10 C9          1.6210   -0.0290   -0.1720 c1        1 19E      0.019000
     11 C10         0.2470   -0.0260   -0.1730 c1        1 19E     -0.046000
     12 N11         2.0470   -0.0320    1.1420 n1        1 19E     -0.215000
     13 C12         0.9180   -0.0300    1.9620 c1        1 19E      0.059000
     14 C13        -0.1860   -0.0270    1.1610 c1        1 19E     -0.106000
     15 C14         0.7720   -0.0310    3.3410 c1        1 19E     -0.149000
     16 C15         1.7810   -0.0820    4.4890 c3        1 19E     -0.169000
     17 C16        -0.5010   -0.0280    3.9060 c1        1 19E     -0.038000
     18 N17        -1.6120   -0.0250    3.0990 n1        1 19E     -0.158000
     19 C18        -1.4700   -0.0240    1.7360 c1        1 19E      0.045000
     20 CL18       -3.0210    0.7570    1.9210 cl        1 19E      0.017000
     21 HO1        -2.7590    0.5290   -5.4260 ho        1 19E      0.218000
     22 H2          0.0100   -0.0300   -4.6810 ha        1 19E      0.150000
     23 H5         -2.3710   -0.0240   -0.5700 ha        1 19E      0.154000
     24 H6         -3.5560   -0.0320   -2.6270 ha        1 19E      0.138000
     25 H7          2.1280   -0.0280   -3.4550 ha        1 19E      0.138000
     26 H8          3.3120   -0.0290   -1.3970 ha        1 19E      0.139000
     27 H15         2.6930   -0.0760    4.1250 hc        1 19E      0.085667
     28 H15A        1.6430   -0.9040    5.0110 hc        1 19E      0.085667
     29 H15B        1.6560    0.7000    5.0710 hc        1 19E      0.085667
     30 H16        -0.6050   -0.0290    4.8820 ha        1 19E      0.166000
     31 HN11        2.9190   -0.0300    1.4260 DU        1 19E      0.259000
@<TRIPOS>BOND
     1    1    3 1   
     2    1    7 1   
     3    2   21 1   
     4    3    4 1   
     5    3   22 1   
     6    4    8 1   
     7    5    6 1   
     8    5   11 1   
     9    6   23 1   
    10    7   24 1   
    11    8   25 1   
    12    9   10 1   
    13    9   26 1   
    14   12   13 1   
    15   13   15 1   
    16   14   19 1   
    17   15   16 1   
    18   16   27 1   
    19   16   28 1   
    20   16   29 1   
    21   17   18 1   
    22   17   30 1   
    23   19   20 1   
@<TRIPOS>SUBSTRUCTURE
     1 19E         1 TEMP              0 ****  ****    0 ROOT
