@<TRIPOS>MOLECULE
19E
   31    34     1     0     0
SMALL
bcc


@<TRIPOS>ATOM
      1 C1         -4.0990   -0.2660    0.1530 ca        1 19E      0.116100
      2 O1         -5.4610   -0.4720    0.1690 oh        1 19E     -0.497100
      3 C2         -3.6550    1.0360    0.0050 ca        1 19E     -0.154000
      4 C3         -2.2640    1.3080   -0.0240 ca        1 19E     -0.028000
      5 C4         -1.3240    0.2390    0.0490 ca        1 19E     -0.006000
      6 C5         -1.8270   -1.0710    0.2550 ca        1 19E     -0.092000
      7 C6         -3.1740   -1.3310    0.3000 ca        1 19E     -0.187000
      8 C7         -1.8290    2.6650   -0.0900 ca        1 19E     -0.093000
      9 C8         -0.5010    2.9910   -0.0600 ca        1 19E     -0.136000
     10 C9          0.4420    1.9330   -0.0190 ca        1 19E     -0.026200
     11 C10         0.0610    0.5500   -0.0340 cp        1 19E     -0.046000
     12 N11         1.8350    2.0510    0.0120 na        1 19E     -0.174300
     13 C12         2.3770    0.7730   -0.0170 ca        1 19E      0.013800
     14 C13         1.3020   -0.2100   -0.0960 cp        1 19E     -0.171300
     15 C14         3.7310    0.3910    0.0080 ca        1 19E     -0.221600
     16 C15         4.8200    1.3780    0.1130 c3        1 19E     -0.043800
     17 C16         3.9730   -0.9880   -0.0840 ca        1 19E      0.427200
     18 N17         3.0180   -1.9250   -0.2350 nb        1 19E     -0.684000
     19 C18         1.7210   -1.5470   -0.2660 ca        1 19E      0.539300
     20 CL18        0.6040   -2.8040   -0.6010 cl        1 19E     -0.149000
     21 HO1        -5.6150   -1.4210    0.2790 ho        1 19E      0.419000
     22 H2         -4.3770    1.8600   -0.0820 ha        1 19E      0.150000
     23 H5         -1.1110   -1.8960    0.4050 ha        1 19E      0.154000
     24 H6         -3.5450   -2.3540    0.4590 ha        1 19E      0.136000
     25 H7         -2.5940    3.4550   -0.1480 ha        1 19E      0.140000
     26 H8         -0.1620    4.0360   -0.0740 ha        1 19E      0.139000
     27 H15         4.7120    1.9850    1.0470 hc        1 19E      0.046367
     28 H15A        5.8180    0.8740    0.1370 hc        1 19E      0.046367
     29 H15B        4.8020    2.0760   -0.7620 hc        1 19E      0.046367
     30 H16         5.0060   -1.3790   -0.0540 h4        1 19E      0.029100
     31 HN11        2.3460    2.8930    0.0580 hn        1 19E      0.308700
@<TRIPOS>BOND
     1    1    2 1   
     2    1    3 ar  
     3    1    7 ar  
     4    2   21 1   
     5    3    4 ar  
     6    3   22 1   
     7    4    5 ar  
     8    4    8 ar  
     9    5    6 ar  
    10    5   11 ar  
    11    6    7 ar  
    12    6   23 1   
    13    7   24 1   
    14    8    9 ar  
    15    8   25 1   
    16    9   10 ar  
    17    9   26 1   
    18   10   11 ar  
    19   10   12 1   
    20   11   14 1   
    21   12   13 1   
    22   12   31 1   
    23   13   14 ar  
    24   13   15 ar  
    25   14   19 ar  
    26   15   16 1   
    27   15   17 ar  
    28   16   27 1   
    29   16   28 1   
    30   16   29 1   
    31   17   18 ar  
    32   17   30 1   
    33   18   19 ar  
    34   19   20 1   
@<TRIPOS>SUBSTRUCTURE
     1 19E         1 TEMP              0 ****  ****    0 ROOT
