@<TRIPOS>MOLECULE
19F
   67    70     1     0     0
SMALL
bcc


@<TRIPOS>ATOM
      1 CAB         5.2700    0.2060    4.1290 c3        1 19F      0.108700
      2 OAW         6.0590    0.0710    2.9520 os        1 19F     -0.299900
      3 CBC         5.3830   -0.3000    1.8090 ca        1 19F      0.109100
      4 CAN         4.0140   -0.5410    1.7330 ca        1 19F     -0.187000
      5 CBB         6.1910   -0.4320    0.6430 ca        1 19F      0.117100
      6 OAV         7.5320   -0.1720    0.8250 os        1 19F     -0.299900
      7 CAA         8.3500   -0.2760   -0.3360 c3        1 19F      0.108700
      8 CAM         5.6030   -0.8070   -0.5630 ca        1 19F     -0.180000
      9 CAL         4.2280   -1.0490   -0.6250 ca        1 19F     -0.107000
     10 CAY         3.4330   -0.9170    0.5110 ca        1 19F     -0.112300
     11 CAR         1.9730   -1.1990    0.4440 c3        1 19F     -0.063400
     12 CBA         1.1680    0.0250    0.0330 cc        1 19F      0.450900
     13 NAU         1.5050    1.2450    0.6350 n         1 19F     -0.500400
     14 CBE         0.7950    2.4240    0.3200 c         1 19F      0.755100
     15 OAE         1.1230    3.4980    0.8470 o         1 19F     -0.604500
     16 NAT         0.1710   -0.1450   -0.8420 n2        1 19F     -0.566100
     17 NBI        -0.5540    0.9390   -1.1650 na        1 19F      0.044200
     18 CBF        -0.3020    2.2420   -0.6270 cc        1 19F     -0.339200
     19 CAZ        -1.2620    3.1000   -1.2040 cd        1 19F      0.428600
     20 CAC        -1.3990    4.5460   -0.9560 c3        1 19F     -0.138400
     21 NAS        -2.0770    2.3660   -2.0620 nd        1 19F     -0.701000
     22 CBD        -1.6540    1.0710   -2.0360 cc        1 19F      0.482800
     23 CBH        -2.2560   -0.0610   -2.8150 c3        1 19F     -0.126000
     24 CBG        -2.3130    0.3090   -4.3120 c3        1 19F      0.155100
     25 CAD        -2.2630   -0.9390   -5.1780 c3        1 19F     -0.095100
     26 OAF        -3.5130    0.9850   -4.6520 oh        1 19F     -0.602800
     27 CAQ        -3.6410   -0.4000   -2.2770 c3        1 19F     -0.072400
     28 CAO        -3.5740   -1.0990   -0.9370 c3        1 19F     -0.077400
     29 CAP        -4.9660   -1.4160   -0.4240 c3        1 19F     -0.037100
     30 CAX        -4.9240   -2.0720    0.9110 ca        1 19F     -0.076300
     31 CAJ        -5.2020   -3.4370    1.0440 ca        1 19F     -0.128000
     32 CAH        -5.1700   -4.0430    2.3000 ca        1 19F     -0.129000
     33 CAG        -4.8600   -3.2920    3.4320 ca        1 19F     -0.134000
     34 CAI        -4.5820   -1.9300    3.3070 ca        1 19F     -0.129000
     35 CAK        -4.6140   -1.3230    2.0530 ca        1 19F     -0.128000
     36 H1          6.0190    0.5040    4.9060 h1        1 19F      0.046367
     37 H2          4.4980    1.0030    4.0000 h1        1 19F      0.046367
     38 H3          4.7900   -0.7660    4.3980 h1        1 19F      0.046367
     39 H4          3.3820   -0.4540    2.6290 ha        1 19F      0.141000
     40 H5          9.3700   -0.0130    0.0460 h1        1 19F      0.047033
     41 H6          8.3360   -1.3180   -0.7380 h1        1 19F      0.047033
     42 H7          8.0220    0.4510   -1.1180 h1        1 19F      0.047033
     43 H8          6.2110   -0.9160   -1.4730 ha        1 19F      0.146000
     44 H9          3.7760   -1.3470   -1.5830 ha        1 19F      0.142000
     45 H10         1.7830   -2.0380   -0.2810 hc        1 19F      0.085700
     46 H11         1.5880   -1.5280    1.4490 hc        1 19F      0.085700
     47 H12         2.3100    1.2940    1.2200 hn        1 19F      0.348500
     48 H13        -1.2820    5.1180   -1.9100 hc        1 19F      0.064033
     49 H14        -2.4090    4.7730   -0.5310 hc        1 19F      0.064033
     50 H15        -0.6140    4.8790   -0.2310 hc        1 19F      0.064033
     51 H16        -1.5990   -0.9710   -2.7170 hc        1 19F      0.085700
     52 H17        -1.4330    0.9710   -4.5580 h1        1 19F      0.041700
     53 H18        -2.3860   -0.6530   -6.2510 hc        1 19F      0.046033
     54 H19        -1.2820   -1.4510   -5.0440 hc        1 19F      0.046033
     55 H20        -3.0860   -1.6400   -4.9050 hc        1 19F      0.046033
     56 H21        -3.5470    1.7920   -4.1250 ho        1 19F      0.421000
     57 H22        -4.2550    0.5350   -2.1930 hc        1 19F      0.059700
     58 H23        -4.1540   -1.0610   -3.0260 hc        1 19F      0.059700
     59 H24        -2.9830   -2.0490   -1.0310 hc        1 19F      0.046700
     60 H25        -3.0410   -0.4490   -0.1940 hc        1 19F      0.046700
     61 H26        -5.5600   -0.4650   -0.3510 hc        1 19F      0.050200
     62 H27        -5.4920   -2.0790   -1.1630 hc        1 19F      0.050200
     63 H28        -5.4490   -4.0340    0.1540 ha        1 19F      0.132000
     64 H29        -5.3910   -5.1160    2.3950 ha        1 19F      0.130000
     65 H30        -4.8360   -3.7700    4.4220 ha        1 19F      0.129000
     66 H31        -4.3400   -1.3340    4.1990 ha        1 19F      0.130000
     67 H32        -4.3960   -0.2490    1.9550 ha        1 19F      0.132000
@<TRIPOS>BOND
     1    1    2 1   
     2    1   36 1   
     3    1   37 1   
     4    1   38 1   
     5    2    3 1   
     6    3    4 ar  
     7    3    5 ar  
     8    4   10 ar  
     9    4   39 1   
    10    5    6 1   
    11    5    8 ar  
    12    6    7 1   
    13    7   40 1   
    14    7   41 1   
    15    7   42 1   
    16    8    9 ar  
    17    8   43 1   
    18    9   10 ar  
    19    9   44 1   
    20   10   11 1   
    21   11   12 1   
    22   11   45 1   
    23   11   46 1   
    24   12   13 1   
    25   12   16 2   
    26   13   14 1   
    27   13   47 1   
    28   14   15 2   
    29   14   18 1   
    30   16   17 1   
    31   17   18 1   
    32   17   22 1   
    33   18   19 2   
    34   19   20 1   
    35   19   21 1   
    36   20   48 1   
    37   20   49 1   
    38   20   50 1   
    39   21   22 2   
    40   22   23 1   
    41   23   24 1   
    42   23   27 1   
    43   23   51 1   
    44   24   25 1   
    45   24   26 1   
    46   24   52 1   
    47   25   53 1   
    48   25   54 1   
    49   25   55 1   
    50   26   56 1   
    51   27   28 1   
    52   27   57 1   
    53   27   58 1   
    54   28   29 1   
    55   28   59 1   
    56   28   60 1   
    57   29   30 1   
    58   29   61 1   
    59   29   62 1   
    60   30   31 ar  
    61   30   35 ar  
    62   31   32 ar  
    63   31   63 1   
    64   32   33 ar  
    65   32   64 1   
    66   33   34 ar  
    67   33   65 1   
    68   34   35 ar  
    69   34   66 1   
    70   35   67 1   
@<TRIPOS>SUBSTRUCTURE
     1 19F         1 TEMP              0 ****  ****    0 ROOT
