@<TRIPOS>MOLECULE
19F
   67    70     1     0     0
SMALL
bcc


@<TRIPOS>ATOM
      1 CAB         0.7190    3.3020    3.5870 c3        1 19F      0.108700
      2 OAW         0.6390    3.0530    2.1880 os        1 19F     -0.299900
      3 CBC         1.2450    1.8980    1.7420 ca        1 19F      0.109100
      4 CAN         1.9090    0.9800    2.5510 ca        1 19F     -0.187000
      5 CBB         1.1560    1.6700    0.3390 ca        1 19F      0.117100
      6 OAV         0.4790    2.6360   -0.3720 os        1 19F     -0.299900
      7 CAA         0.3590    2.4110   -1.7740 c3        1 19F      0.108700
      8 CAM         1.7400    0.5300   -0.2120 ca        1 19F     -0.180000
      9 CAL         2.4060   -0.3810    0.6110 ca        1 19F     -0.107000
     10 CAY         2.4930   -0.1650    1.9850 ca        1 19F     -0.112300
     11 CAR         3.2240   -1.1270    2.8530 c3        1 19F     -0.063400
     12 CBA         2.3330   -2.2640    3.3300 cc        1 19F      0.450900
     13 NAU         1.0500   -1.9250    3.7820 n         1 19F     -0.500400
     14 CBE         0.1680   -2.9200    4.2560 c         1 19F      0.755100
     15 OAE        -0.9720   -2.6030    4.6310 o         1 19F     -0.604500
     16 NAT         2.8390   -3.5020    3.3260 n2        1 19F     -0.566100
     17 NBI         2.0520   -4.4880    3.7850 na        1 19F      0.044200
     18 CBF         0.7190   -4.2730    4.2630 cc        1 19F     -0.339200
     19 CAZ         0.2290   -5.5380    4.6500 cd        1 19F      0.428600
     20 CAC        -1.1060   -5.8230    5.2050 c3        1 19F     -0.138400
     21 NAS         1.2110   -6.4990    4.4270 nd        1 19F     -0.701000
     22 CBD         2.3040   -5.8700    3.9110 cc        1 19F      0.482800
     23 CBH         3.5930   -6.5320    3.5250 c3        1 19F     -0.126000
     24 CBG         3.3090   -7.6930    2.5490 c3        1 19F      0.155100
     25 CAD         4.5060   -7.9430    1.6440 c3        1 19F     -0.095100
     26 OAF         3.0590   -8.9140    3.2260 oh        1 19F     -0.602800
     27 CAQ         4.3340   -7.0200    4.7630 c3        1 19F     -0.072400
     28 CAO         4.9310   -5.8770    5.5540 c3        1 19F     -0.077400
     29 CAP         5.6540   -6.3930    6.7850 c3        1 19F     -0.037100
     30 CAX         6.2200   -5.2820    7.5970 ca        1 19F     -0.076300
     31 CAJ         7.5980   -5.0390    7.6120 ca        1 19F     -0.128000
     32 CAH         8.1210   -4.0020    8.3830 ca        1 19F     -0.129000
     33 CAG         7.2740   -3.1990    9.1440 ca        1 19F     -0.134000
     34 CAI         5.8990   -3.4350    9.1340 ca        1 19F     -0.129000
     35 CAK         5.3740   -4.4710    8.3650 ca        1 19F     -0.128000
     36 H1          1.7830    3.4080    3.9100 h1        1 19F      0.046367
     37 H2          0.1720    4.2710    3.7060 h1        1 19F      0.046367
     38 H3          0.2120    2.4900    4.1630 h1        1 19F      0.046367
     39 H4          1.9940    1.1520    3.6340 ha        1 19F      0.141000
     40 H5          1.3660    2.3850   -2.2570 h1        1 19F      0.047033
     41 H6         -0.1990    1.4650   -1.9760 h1        1 19F      0.047033
     42 H7         -0.2260    3.2980   -2.1260 h1        1 19F      0.047033
     43 H8          1.6830    0.3380   -1.2930 ha        1 19F      0.146000
     44 H9          2.8650   -1.2760    0.1640 ha        1 19F      0.142000
     45 H10         4.1060   -1.5460    2.2940 hc        1 19F      0.085700
     46 H11         3.6210   -0.6080    3.7690 hc        1 19F      0.085700
     47 H12         0.7280   -0.9880    3.6800 hn        1 19F      0.348500
     48 H13        -1.0160   -6.2710    6.2260 hc        1 19F      0.064033
     49 H14        -1.6950   -4.8730    5.2740 hc        1 19F      0.064033
     50 H15        -1.6540   -6.5460    4.5510 hc        1 19F      0.064033
     51 H16         4.2460   -5.7890    2.9840 hc        1 19F      0.085700
     52 H17         2.4130   -7.4290    1.9170 h1        1 19F      0.041700
     53 H18         5.4220   -8.1390    2.2500 hc        1 19F      0.046033
     54 H19         4.3090   -8.8360    1.0040 hc        1 19F      0.046033
     55 H20         4.6770   -7.0540    0.9930 hc        1 19F      0.046033
     56 H21         2.2870   -8.7770    3.7890 ho        1 19F      0.421000
     57 H22         3.6380   -7.6150    5.4110 hc        1 19F      0.060200
     58 H23         5.1470   -7.7190    4.4310 hc        1 19F      0.060200
     59 H24         4.1220   -5.1660    5.8670 hc        1 19F      0.046700
     60 H25         5.6490   -5.3020    4.9110 hc        1 19F      0.046700
     61 H26         4.9360   -6.9850    7.4150 hc        1 19F      0.049700
     62 H27         6.4720   -7.0950    6.4680 hc        1 19F      0.049700
     63 H28         8.2710   -5.6720    7.0140 ha        1 19F      0.132000
     64 H29         9.2060   -3.8200    8.3900 ha        1 19F      0.130000
     65 H30         7.6880   -2.3820    9.7530 ha        1 19F      0.129000
     66 H31         5.2280   -2.8050    9.7360 ha        1 19F      0.130000
     67 H32         4.2890   -4.6580    8.3580 ha        1 19F      0.132000
@<TRIPOS>BOND
     1    1    2 1   
     2    1   36 1   
     3    1   37 1   
     4    1   38 1   
     5    2    3 1   
     6    3    4 ar  
     7    3    5 ar  
     8    4   10 ar  
     9    4   39 1   
    10    5    6 1   
    11    5    8 ar  
    12    6    7 1   
    13    7   40 1   
    14    7   41 1   
    15    7   42 1   
    16    8    9 ar  
    17    8   43 1   
    18    9   10 ar  
    19    9   44 1   
    20   10   11 1   
    21   11   12 1   
    22   11   45 1   
    23   11   46 1   
    24   12   13 1   
    25   12   16 2   
    26   13   14 1   
    27   13   47 1   
    28   14   15 2   
    29   14   18 1   
    30   16   17 1   
    31   17   18 1   
    32   17   22 1   
    33   18   19 2   
    34   19   20 1   
    35   19   21 1   
    36   20   48 1   
    37   20   49 1   
    38   20   50 1   
    39   21   22 2   
    40   22   23 1   
    41   23   24 1   
    42   23   27 1   
    43   23   51 1   
    44   24   25 1   
    45   24   26 1   
    46   24   52 1   
    47   25   53 1   
    48   25   54 1   
    49   25   55 1   
    50   26   56 1   
    51   27   28 1   
    52   27   57 1   
    53   27   58 1   
    54   28   29 1   
    55   28   59 1   
    56   28   60 1   
    57   29   30 1   
    58   29   61 1   
    59   29   62 1   
    60   30   31 ar  
    61   30   35 ar  
    62   31   32 ar  
    63   31   63 1   
    64   32   33 ar  
    65   32   64 1   
    66   33   34 ar  
    67   33   65 1   
    68   34   35 ar  
    69   34   66 1   
    70   35   67 1   
@<TRIPOS>SUBSTRUCTURE
     1 19F         1 TEMP              0 ****  ****    0 ROOT
