@<TRIPOS>MOLECULE
19F
   67    70     1     0     0
SMALL
bcc


@<TRIPOS>ATOM
      1 CAB         0.6110    3.2600    3.6630 c3        1 19F      0.108700
      2 OAW         0.5260    3.0250    2.2620 os        1 19F     -0.299900
      3 CBC         1.1480    1.8840    1.7990 ca        1 19F      0.109100
      4 CAN         1.8320    0.9690    2.5950 ca        1 19F     -0.187000
      5 CBB         1.0540    1.6710    0.3940 ca        1 19F      0.117100
      6 OAV         0.3570    2.6330   -0.3020 os        1 19F     -0.299900
      7 CAA         0.2330    2.4220   -1.7050 c3        1 19F      0.108700
      8 CAM         1.6540    0.5470   -0.1720 ca        1 19F     -0.180000
      9 CAL         2.3400   -0.3620    0.6370 ca        1 19F     -0.107000
     10 CAY         2.4310   -0.1600    2.0120 ca        1 19F     -0.112300
     11 CAR         3.1840   -1.1190    2.8650 c3        1 19F     -0.063400
     12 CBA         2.3140   -2.2750    3.3360 cc        1 19F      0.450900
     13 NAU         1.0270   -1.9630    3.7950 ns        1 19F     -0.500400
     14 CBE         0.1640   -2.9780    4.2650 c         1 19F      0.755100
     15 OAE        -0.9790   -2.6840    4.6460 o         1 19F     -0.604500
     16 NAT         2.8420   -3.5040    3.3200 n2        1 19F     -0.566100
     17 NBI         2.0740   -4.5080    3.7750 na        1 19F      0.044200
     18 CBF         0.7400   -4.3200    4.2590 cc        1 19F     -0.339200
     19 CAZ         0.2740   -5.5970    4.6380 cd        1 19F      0.428600
     20 CAC        -1.0540   -5.9090    5.1950 c3        1 19F     -0.138400
     21 NAS         1.2720   -6.5390    4.4040 nd        1 19F     -0.701000
     22 CBD         2.3510   -5.8850    3.8890 cc        1 19F      0.482800
     23 CBH         3.6510   -6.5220    3.4930 c3        1 19F     -0.126000
     24 CBG         3.3840   -7.6820    2.5110 c3        1 19F      0.155100
     25 CAD         4.5810   -7.9050    1.6000 c3        1 19F     -0.095100
     26 OAF         3.1590   -8.9120    3.1820 oh        1 19F     -0.602800
     27 CAQ         4.4050   -7.0030    4.7250 c3        1 19F     -0.072400
     28 CAO         4.9850   -5.8550    5.5210 c3        1 19F     -0.077400
     29 CAP         5.7230   -6.3650    6.7450 c3        1 19F     -0.037100
     30 CAX         6.2700   -5.2480    7.5620 ca        1 19F     -0.076300
     31 CAJ         7.6430   -4.9780    7.5710 ca        1 19F     -0.128000
     32 CAH         8.1500   -3.9350    8.3460 ca        1 19F     -0.129000
     33 CAG         7.2910   -3.1550    9.1190 ca        1 19F     -0.134000
     34 CAI         5.9210   -3.4200    9.1150 ca        1 19F     -0.129000
     35 CAK         5.4120   -4.4610    8.3410 ca        1 19F     -0.128000
     36 H1          1.6750    3.3800    3.9810 h1        1 19F      0.046367
     37 H2          0.1210    2.4330    4.2340 h1        1 19F      0.046367
     38 H3          0.0480    4.2180    3.7960 h1        1 19F      0.046367
     39 H4          1.9210    1.1310    3.6790 ha        1 19F      0.141000
     40 H5         -0.3110    1.4680   -1.9140 h1        1 19F      0.047033
     41 H6          1.2370    2.4180   -2.1940 h1        1 19F      0.047033
     42 H7         -0.3690    3.3030   -2.0440 h1        1 19F      0.047033
     43 H8          1.5930    0.3660   -1.2550 ha        1 19F      0.146000
     44 H9          2.8110   -1.2440    0.1770 ha        1 19F      0.142000
     45 H10         4.0680   -1.5180    2.2960 hc        1 19F      0.085700
     46 H11         3.5780   -0.6040    3.7850 hc        1 19F      0.085700
     47 H12         0.6890   -1.0310    3.7030 hn        1 19F      0.348500
     48 H13        -1.6590   -4.9710    5.2740 hc        1 19F      0.064033
     49 H14        -0.9520   -6.3650    6.2120 hc        1 19F      0.064033
     50 H15        -1.5920   -6.6370    4.5370 hc        1 19F      0.064033
     51 H16         4.2870   -5.7630    2.9540 hc        1 19F      0.085700
     52 H17         2.4800   -7.4310    1.8850 h1        1 19F      0.041700
     53 H18         5.5030   -8.0880    2.2010 hc        1 19F      0.046033
     54 H19         4.3980   -8.7970    0.9560 hc        1 19F      0.046033
     55 H20         4.7340   -7.0090    0.9540 hc        1 19F      0.046033
     56 H21         2.3860   -8.7920    3.7480 ho        1 19F      0.421000
     57 H22         5.2310   -7.6850    4.3850 hc        1 19F      0.060200
     58 H23         3.7230   -7.6150    5.3720 hc        1 19F      0.060200
     59 H24         4.1630   -5.1610    5.8420 hc        1 19F      0.046700
     60 H25         5.6880   -5.2620    4.8780 hc        1 19F      0.046700
     61 H26         5.0190   -6.9740    7.3750 hc        1 19F      0.049700
     62 H27         6.5530   -7.0480    6.4200 hc        1 19F      0.049700
     63 H28         8.3250   -5.5920    6.9650 ha        1 19F      0.132000
     64 H29         9.2300   -3.7310    8.3480 ha        1 19F      0.130000
     65 H30         7.6920   -2.3340    9.7310 ha        1 19F      0.129000
     66 H31         5.2410   -2.8080    9.7250 ha        1 19F      0.130000
     67 H32         4.3320   -4.6700    8.3390 ha        1 19F      0.132000
@<TRIPOS>BOND
     1    1    2 1   
     2    1   36 1   
     3    1   37 1   
     4    1   38 1   
     5    2    3 1   
     6    3    4 ar  
     7    3    5 ar  
     8    4   10 ar  
     9    4   39 1   
    10    5    6 1   
    11    5    8 ar  
    12    6    7 1   
    13    7   40 1   
    14    7   41 1   
    15    7   42 1   
    16    8    9 ar  
    17    8   43 1   
    18    9   10 ar  
    19    9   44 1   
    20   10   11 1   
    21   11   12 1   
    22   11   45 1   
    23   11   46 1   
    24   12   13 1   
    25   12   16 2   
    26   13   14 1   
    27   13   47 1   
    28   14   15 2   
    29   14   18 1   
    30   16   17 1   
    31   17   18 1   
    32   17   22 1   
    33   18   19 2   
    34   19   20 1   
    35   19   21 1   
    36   20   48 1   
    37   20   49 1   
    38   20   50 1   
    39   21   22 2   
    40   22   23 1   
    41   23   24 1   
    42   23   27 1   
    43   23   51 1   
    44   24   25 1   
    45   24   26 1   
    46   24   52 1   
    47   25   53 1   
    48   25   54 1   
    49   25   55 1   
    50   26   56 1   
    51   27   28 1   
    52   27   57 1   
    53   27   58 1   
    54   28   29 1   
    55   28   59 1   
    56   28   60 1   
    57   29   30 1   
    58   29   61 1   
    59   29   62 1   
    60   30   31 ar  
    61   30   35 ar  
    62   31   32 ar  
    63   31   63 1   
    64   32   33 ar  
    65   32   64 1   
    66   33   34 ar  
    67   33   65 1   
    68   34   35 ar  
    69   34   66 1   
    70   35   67 1   
@<TRIPOS>SUBSTRUCTURE
     1 19F         1 TEMP              0 ****  ****    0 ROOT
