@<TRIPOS>MOLECULE
19F
   67    70     1     0     0
SMALL
bcc


@<TRIPOS>ATOM
      1 CAB         0.4110    3.1880    3.8540 c3        1 19F      0.108700
      2 OAW         0.4030    3.0200    2.4410 os        1 19F     -0.299900
      3 CBC         1.0840    1.9230    1.9560 ca        1 19F      0.109100
      4 CAN         1.7590    0.9910    2.7410 ca        1 19F     -0.187000
      5 CBB         1.0660    1.7750    0.5400 ca        1 19F      0.117100
      6 OAV         0.3720    2.7490   -0.1440 os        1 19F     -0.299900
      7 CAA         0.3230    2.6030   -1.5600 c3        1 19F      0.108700
      8 CAM         1.7290    0.7000   -0.0480 ca        1 19F     -0.180000
      9 CAL         2.4050   -0.2260    0.7510 ca        1 19F     -0.107000
     10 CAY         2.4220   -0.0890    2.1370 ca        1 19F     -0.112300
     11 CAR         3.1630   -1.0650    2.9800 c3        1 19F     -0.063400
     12 CBA         2.3110   -2.2690    3.3520 cc        1 19F      0.450900
     13 NAU         0.9930   -2.0190    3.7600 n         1 19F     -0.500400
     14 CBE         0.1420   -3.0810    4.1370 c         1 19F      0.755100
     15 OAE        -1.0270   -2.8410    4.4740 o         1 19F     -0.604500
     16 NAT         2.8780   -3.4790    3.3040 n2        1 19F     -0.566100
     17 NBI         2.1230   -4.5270    3.6710 na        1 19F      0.044200
     18 CBF         0.7610   -4.4040    4.0960 cc        1 19F     -0.339200
     19 CAZ         0.3200   -5.7110    4.3910 cd        1 19F      0.428600
     20 CAC        -1.0220   -6.0910    4.8650 c3        1 19F     -0.138400
     21 NAS         1.3590   -6.6090    4.1620 nd        1 19F     -0.701000
     22 CBD         2.4390   -5.8990    3.7340 cc        1 19F      0.482800
     23 CBH         3.7770   -6.4750    3.3730 c3        1 19F     -0.126000
     24 CBG         3.5970   -7.5950    2.3270 c3        1 19F      0.155100
     25 CAD         4.8430   -7.7370    1.4680 c3        1 19F     -0.095100
     26 OAF         3.3800   -8.8610    2.9280 oh        1 19F     -0.602800
     27 CAQ         4.4870   -6.9920    4.6180 c3        1 19F     -0.072400
     28 CAO         4.9890   -5.8650    5.4940 c3        1 19F     -0.077400
     29 CAP         5.6830   -6.4110    6.7290 c3        1 19F     -0.037100
     30 CAX         6.1530   -5.3180    7.6230 ca        1 19F     -0.076300
     31 CAJ         7.5150   -5.0070    7.7140 ca        1 19F     -0.128000
     32 CAH         7.9490   -3.9880    8.5610 ca        1 19F     -0.129000
     33 CAG         7.0280   -3.2710    9.3230 ca        1 19F     -0.134000
     34 CAI         5.6690   -3.5760    9.2380 ca        1 19F     -0.129000
     35 CAK         5.2330   -4.5940    8.3920 ca        1 19F     -0.128000
     36 H1          1.4540    3.3250    4.2310 h1        1 19F      0.046367
     37 H2         -0.1890    4.1220    4.0040 h1        1 19F      0.046367
     38 H3         -0.0790    2.3200    4.3590 h1        1 19F      0.046367
     39 H4          1.7890    1.1030    3.8350 ha        1 19F      0.141000
     40 H5         -0.2900    3.4810   -1.8860 h1        1 19F      0.047033
     41 H6         -0.1770    1.6450   -1.8410 h1        1 19F      0.047033
     42 H7          1.3490    2.6540   -1.9980 h1        1 19F      0.047033
     43 H8          1.7270    0.5700   -1.1400 ha        1 19F      0.146000
     44 H9          2.9260   -1.0700    0.2730 ha        1 19F      0.142000
     45 H10         3.4950   -0.5840    3.9420 hc        1 19F      0.085700
     46 H11         4.0870   -1.4080    2.4380 hc        1 19F      0.085700
     47 H12         0.6290   -1.0950    3.6950 hn        1 19F      0.348500
     48 H13        -1.6610   -5.1760    4.9580 hc        1 19F      0.064033
     49 H14        -0.9550   -6.5930    5.8630 hc        1 19F      0.064033
     50 H15        -1.5040   -6.8010    4.1470 hc        1 19F      0.064033
     51 H16         4.4130   -5.6730    2.9030 hc        1 19F      0.085700
     52 H17         2.7160   -7.3420    1.6690 h1        1 19F      0.041700
     53 H18         4.7210   -8.6020    0.7740 hc        1 19F      0.046033
     54 H19         4.9970   -6.8060    0.8720 hc        1 19F      0.046033
     55 H20         5.7400   -7.9200    2.1040 hc        1 19F      0.046033
     56 H21         2.5780   -8.7930    3.4600 ho        1 19F      0.421000
     57 H22         5.3500   -7.6310    4.2880 hc        1 19F      0.059700
     58 H23         3.7950   -7.6550    5.2020 hc        1 19F      0.059700
     59 H24         4.1310   -5.2140    5.8050 hc        1 19F      0.046700
     60 H25         5.7030   -5.2220    4.9150 hc        1 19F      0.046700
     61 H26         4.9710   -7.0710    7.2930 hc        1 19F      0.049700
     62 H27         6.5500   -7.0520    6.4150 hc        1 19F      0.049700
     63 H28         8.2460   -5.5710    7.1160 ha        1 19F      0.132000
     64 H29         9.0210   -3.7510    8.6270 ha        1 19F      0.130000
     65 H30         7.3710   -2.4690    9.9920 ha        1 19F      0.129000
     66 H31         4.9410   -3.0140    9.8400 ha        1 19F      0.130000
     67 H32         4.1620   -4.8350    8.3260 ha        1 19F      0.132000
@<TRIPOS>BOND
     1    1    2 1   
     2    1   36 1   
     3    1   37 1   
     4    1   38 1   
     5    2    3 1   
     6    3    4 ar  
     7    3    5 ar  
     8    4   10 ar  
     9    4   39 1   
    10    5    6 1   
    11    5    8 ar  
    12    6    7 1   
    13    7   40 1   
    14    7   41 1   
    15    7   42 1   
    16    8    9 ar  
    17    8   43 1   
    18    9   10 ar  
    19    9   44 1   
    20   10   11 1   
    21   11   12 1   
    22   11   45 1   
    23   11   46 1   
    24   12   13 1   
    25   12   16 2   
    26   13   14 1   
    27   13   47 1   
    28   14   15 2   
    29   14   18 1   
    30   16   17 1   
    31   17   18 1   
    32   17   22 1   
    33   18   19 2   
    34   19   20 1   
    35   19   21 1   
    36   20   48 1   
    37   20   49 1   
    38   20   50 1   
    39   21   22 2   
    40   22   23 1   
    41   23   24 1   
    42   23   27 1   
    43   23   51 1   
    44   24   25 1   
    45   24   26 1   
    46   24   52 1   
    47   25   53 1   
    48   25   54 1   
    49   25   55 1   
    50   26   56 1   
    51   27   28 1   
    52   27   57 1   
    53   27   58 1   
    54   28   29 1   
    55   28   59 1   
    56   28   60 1   
    57   29   30 1   
    58   29   61 1   
    59   29   62 1   
    60   30   31 ar  
    61   30   35 ar  
    62   31   32 ar  
    63   31   63 1   
    64   32   33 ar  
    65   32   64 1   
    66   33   34 ar  
    67   33   65 1   
    68   34   35 ar  
    69   34   66 1   
    70   35   67 1   
@<TRIPOS>SUBSTRUCTURE
     1 19F         1 TEMP              0 ****  ****    0 ROOT
