@<TRIPOS>MOLECULE
19F
   67    61     1     0     0
SMALL
bcc


@<TRIPOS>ATOM
      1 CAB        -4.1280    2.6710    6.3180 c3        1 19F     -0.072000
      2 OAW        -3.8800    3.1950    5.0500 os        1 19F     -0.211500
      3 CBC        -4.2740    2.3170    3.9720 c2        1 19F      0.048500
      4 CAN        -3.3280    1.4500    3.3950 c1        1 19F     -0.142500
      5 CBB        -5.5160    2.4340    3.4180 c2        1 19F      0.048500
      6 OAV        -6.3870    3.3300    3.9030 os        1 19F     -0.211500
      7 CAA        -7.6520    2.7620    4.3110 c3        1 19F     -0.072000
      8 CAM        -5.8500    1.6680    2.2440 c1        1 19F     -0.142500
      9 CAL        -4.9470    0.8440    1.6970 c1        1 19F     -0.127000
     10 CAY        -3.6590    0.7230    2.2710 c1        1 19F     -0.108000
     11 CAR        -2.6470   -0.2330    1.6600 c3        1 19F     -0.074000
     12 CBA        -1.6330    0.5860    0.7430 c2        1 19F      0.079000
     13 NAU        -2.0730    1.6840    0.0610 n3        1 19F     -0.340000
     14 CBE        -1.2520    2.3280   -0.7490 c1        1 19F      0.392000
     15 OAE        -1.6240    3.4120   -1.2880 o         1 19F     -0.331000
     16 NAT        -0.2510    0.1220    0.5750 n1        1 19F     -0.094000
     17 NBI         0.6190    0.8070   -0.2840 n2        1 19F     -0.117000
     18 CBF         0.2070    1.8360   -0.9250 c1        1 19F     -0.114000
     19 CAZ         1.2530    2.2870   -1.7310 c1        1 19F     -0.114000
     20 CAC         1.2810    3.2630   -2.8920 c2        1 19F     -0.161000
     21 NAS         2.2770    1.4970   -1.5430 n2        1 19F     -0.117000
     22 CBD         1.9250    0.5690   -0.6550 c1        1 19F      0.039000
     23 CBH         3.1010   -0.2890   -0.5090 c2        1 19F     -0.027000
     24 CBG         4.1880    0.4480    0.3940 c3        1 19F      0.035000
     25 CAD         4.0610    0.0060    1.7490 c3        1 19F     -0.252000
     26 OAF         5.4700    0.1380   -0.0690 oh        1 19F     -0.333000
     27 CAQ         3.6860   -0.5730   -1.8610 c3        1 19F     -0.142000
     28 CAO         3.7840   -2.0680   -2.0640 c3        1 19F     -0.159000
     29 CAP         3.9750   -2.3970   -3.6290 c3        1 19F     -0.123000
     30 CAX         3.3400   -3.6910   -3.9330 c1        1 19F     -0.067000
     31 CAJ         1.9710   -3.7520   -4.1850 c1        1 19F     -0.130750
     32 CAH         1.4060   -4.9240   -4.6010 c1        1 19F     -0.130750
     33 CAG         2.1990   -6.0560   -4.7720 c1        1 19F     -0.130750
     34 CAI         3.5600   -5.9940   -4.5210 c1        1 19F     -0.130750
     35 CAK         4.1260   -4.8200   -4.1040 c1        1 19F     -0.126000
     36 H1         -4.7430    3.3230    6.8520 h1        1 19F      0.087333
     37 H2         -3.2580    2.5530    6.8100 h1        1 19F      0.087333
     38 H3         -4.5820    1.7830    6.2260 h1        1 19F      0.087333
     39 H4         -2.4680    1.3670    3.7740 ha        1 19F      0.151500
     40 H5         -7.4840    2.0310    5.1050 h1        1 19F      0.087333
     41 H6         -8.0770    2.3210    3.5450 h1        1 19F      0.087333
     42 H7         -8.2130    3.4470    4.6280 h1        1 19F      0.087333
     43 H8         -6.7710    1.7510    1.8310 ha        1 19F      0.151500
     44 H9         -5.1720    0.3410    0.9180 ha        1 19F      0.136000
     45 H10        -2.1480   -0.6880    2.3790 hc        1 19F      0.125500
     46 H11        -3.1180   -0.9040    1.1120 hc        1 19F      0.125500
     47 H12        -2.9290    1.9680    0.1610 hn        1 19F      0.261000
     48 H13         0.9650    4.1390   -2.5920 ha        1 19F      0.102333
     49 H14         2.2430    3.3480   -3.2470 ha        1 19F      0.102333
     50 H15         0.7300    2.9520   -3.5670 ha        1 19F      0.102333
     51 H16         2.8480   -1.1050   -0.0980 ha        1 19F      0.131000
     52 H17         4.0580    1.3680    0.3500 h1        1 19F      0.095000
     53 H18         4.1300   -1.0280    1.7800 hc        1 19F      0.086333
     54 H19         4.8030    0.4040    2.3060 hc        1 19F      0.086333
     55 H20         3.1780    0.2940    2.1130 hc        1 19F      0.086333
     56 H21         6.0950    0.6800    0.3650 ho        1 19F      0.201000
     57 H22         3.1510   -0.2100   -2.5080 hc        1 19F      0.090000
     58 H23         4.6020   -0.1690   -1.9170 hc        1 19F      0.090000
     59 H24         4.6360   -2.4500   -1.5080 hc        1 19F      0.095500
     60 H25         2.9630   -2.4980   -1.7390 hc        1 19F      0.095500
     61 H26         4.9270   -2.4470   -3.8370 hc        1 19F      0.086500
     62 H27         3.5590   -1.6900   -4.1710 hc        1 19F      0.086500
     63 H28         1.4300   -2.9790   -4.0680 ha        1 19F      0.128500
     64 H29         0.3590   -4.9740   -4.7950 ha        1 19F      0.128500
     65 H30         1.7930   -6.8970   -5.0710 ha        1 19F      0.128500
     66 H31         4.1450   -6.8280   -4.6470 ha        1 19F      0.128500
     67 H32         5.0210   -4.7800   -3.9400 ha        1 19F      0.135000
@<TRIPOS>BOND
     1    1    2 1   
     2    1   36 1   
     3    1   37 1   
     4    1   38 1   
     5    2    3 1   
     6    3    4 1   
     7    3    5 1   
     8    4   39 1   
     9    5    6 1   
    10    5    8 1   
    11    6    7 1   
    12    7   40 1   
    13    7   41 1   
    14    7   42 1   
    15    8   43 1   
    16    9   10 1   
    17    9   44 1   
    18   10   11 1   
    19   11   12 1   
    20   11   45 1   
    21   11   46 1   
    22   12   13 1   
    23   12   16 1   
    24   13   14 1   
    25   13   47 1   
    26   14   15 1   
    27   17   18 1   
    28   17   22 1   
    29   18   19 1   
    30   19   21 1   
    31   20   48 1   
    32   20   49 1   
    33   20   50 1   
    34   21   22 1   
    35   23   24 1   
    36   23   27 1   
    37   23   51 1   
    38   24   25 1   
    39   24   26 1   
    40   24   52 1   
    41   25   53 1   
    42   25   54 1   
    43   25   55 1   
    44   26   56 1   
    45   27   28 1   
    46   27   57 1   
    47   27   58 1   
    48   28   29 1   
    49   28   59 1   
    50   28   60 1   
    51   29   30 1   
    52   29   61 1   
    53   29   62 1   
    54   30   35 1   
    55   31   32 1   
    56   31   63 1   
    57   32   64 1   
    58   33   34 1   
    59   33   65 1   
    60   34   66 1   
    61   35   67 1   
@<TRIPOS>SUBSTRUCTURE
     1 19F         1 TEMP              0 ****  ****    0 ROOT
