@<TRIPOS>MOLECULE
19G
   43    45     1     0     0
SMALL
bcc


@<TRIPOS>ATOM
      1 OAC         2.5580   -2.8040   -1.7870 o         1 19G     -0.813300
      2 CAQ         3.4620   -2.6430   -0.9210 c         1 19G      0.927800
      3 OAD         4.0770   -3.5860   -0.3520 o         1 19G     -0.813300
      4 CAW         3.8530   -1.2270   -0.5420 cc        1 19G     -0.082600
      5 S           5.4190   -0.9020    0.0290 ss        1 19G      0.045500
      6 CAX         5.1440    0.7470    0.2070 ca        1 19G     -0.115100
      7 CAH         6.0130    1.7520    0.6480 ca        1 19G     -0.094000
      8 CAF         5.5660    3.0600    0.7180 ca        1 19G     -0.155000
      9 CAG         4.2490    3.3890    0.3490 ca        1 19G     -0.153000
     10 CAI         3.3740    2.4100   -0.0900 ca        1 19G     -0.103000
     11 CAY         3.8090    1.0780   -0.1670 ca        1 19G     -0.063800
     12 CAV         3.0790   -0.0920   -0.5990 cd        1 19G     -0.113400
     13 CAN         1.6810   -0.0320   -1.0730 c3        1 19G     -0.026200
     14 CAL         0.6970    0.1220    0.0730 c3        1 19G     -0.076400
     15 CAM        -0.7140   -0.1020   -0.4420 c3        1 19G      0.125400
     16 OAO        -1.5960    0.3790    0.5890 os        1 19G     -0.329900
     17 CAT        -2.9410    0.2500    0.3420 ca        1 19G      0.156100
     18 CAJ        -3.4910   -0.3130   -0.8150 ca        1 19G     -0.187500
     19 CAR        -4.8800   -0.3890   -0.9610 ca        1 19G     -0.032800
     20 CAA        -5.4510   -0.9920   -2.1900 c3        1 19G     -0.053800
     21 CAU        -5.7060    0.1040    0.0580 ca        1 19G     -0.032600
     22 CL         -7.4040    0.0180   -0.1180 cl        1 19G     -0.123400
     23 CAS        -5.1620    0.6690    1.2240 ca        1 19G     -0.032800
     24 CAB        -6.0340    1.1870    2.3050 c3        1 19G     -0.053800
     25 CAK        -3.7770    0.7410    1.3640 ca        1 19G     -0.187500
     26 H2          7.0430    1.4960    0.9370 ha        1 19G      0.119000
     27 H3          6.2420    3.8550    1.0630 ha        1 19G      0.110000
     28 H4          3.9190    4.4350    0.4130 ha        1 19G      0.111000
     29 H5          2.3430    2.6590   -0.3790 ha        1 19G      0.125000
     30 H6          1.5630    0.8320   -1.7810 hc        1 19G      0.068700
     31 H7          1.4560   -0.9820   -1.6410 hc        1 19G      0.068700
     32 H8          0.9220   -0.6240    0.8780 hc        1 19G      0.055200
     33 H9          0.7800    1.1440    0.5260 hc        1 19G      0.055200
     34 H10        -0.9020    0.4810   -1.3820 h1        1 19G      0.044200
     35 H11        -0.9060   -1.1910   -0.6240 h1        1 19G      0.044200
     36 H12        -2.8430   -0.7040   -1.6130 ha        1 19G      0.151500
     37 H13        -6.0850   -1.8750   -1.9280 hc        1 19G      0.047367
     38 H14        -6.0930   -0.2470   -2.7240 hc        1 19G      0.047367
     39 H15        -4.6450   -1.3290   -2.8870 hc        1 19G      0.047367
     40 H16        -6.6860    0.3680    2.7010 hc        1 19G      0.047367
     41 H17        -5.4290    1.5970    3.1500 hc        1 19G      0.047367
     42 H18        -6.6940    2.0010    1.9130 hc        1 19G      0.047367
     43 H19        -3.3220    1.1750    2.2650 ha        1 19G      0.151500
@<TRIPOS>BOND
     1    1    2 1   
     2    2    3 1   
     3    2    4 1   
     4    4    5 1   
     5    4   12 2   
     6    5    6 1   
     7    6    7 ar  
     8    6   11 ar  
     9    7    8 ar  
    10    7   26 1   
    11    8    9 ar  
    12    8   27 1   
    13    9   10 ar  
    14    9   28 1   
    15   10   11 ar  
    16   10   29 1   
    17   11   12 1   
    18   12   13 1   
    19   13   14 1   
    20   13   30 1   
    21   13   31 1   
    22   14   15 1   
    23   14   32 1   
    24   14   33 1   
    25   15   16 1   
    26   15   34 1   
    27   15   35 1   
    28   16   17 1   
    29   17   18 ar  
    30   17   25 ar  
    31   18   19 ar  
    32   18   36 1   
    33   19   20 1   
    34   19   21 ar  
    35   20   37 1   
    36   20   38 1   
    37   20   39 1   
    38   21   22 1   
    39   21   23 ar  
    40   23   24 1   
    41   23   25 ar  
    42   24   40 1   
    43   24   41 1   
    44   24   42 1   
    45   25   43 1   
@<TRIPOS>SUBSTRUCTURE
     1 19G         1 TEMP              0 ****  ****    0 ROOT
