@<TRIPOS>MOLECULE
19G
   43    45     1     0     0
SMALL
bcc


@<TRIPOS>ATOM
      1 OAC         0.0700   -1.4200   -0.1200 o         1 19G     -0.813300
      2 CAQ         1.2150   -0.8900   -0.0660 c         1 19G      0.927800
      3 OAD         1.8460   -0.6690    1.0030 o         1 19G     -0.813300
      4 CAW         1.8920   -0.5020   -1.3680 cc        1 19G     -0.082600
      5 S           3.5860   -0.4490   -1.4610 ss        1 19G      0.045500
      6 CAX         3.6050   -0.0030   -3.0820 ca        1 19G     -0.115100
      7 CAH         4.6960    0.2380   -3.9260 ca        1 19G     -0.094000
      8 CAF         4.4730    0.6000   -5.2440 ca        1 19G     -0.155000
      9 CAG         3.1640    0.7280   -5.7410 ca        1 19G     -0.153000
     10 CAI         2.0720    0.4950   -4.9220 ca        1 19G     -0.103000
     11 CAY         2.2770    0.1270   -3.5840 ca        1 19G     -0.063800
     12 CAV         1.2990   -0.1710   -2.5630 cd        1 19G     -0.113400
     13 CAN        -0.1560   -0.1450   -2.8190 c3        1 19G     -0.026200
     14 CAL        -0.6980    1.2710   -2.8860 c3        1 19G     -0.076400
     15 CAM        -2.2160    1.2300   -2.8670 c3        1 19G      0.125400
     16 OAO        -2.6560    2.5420   -3.2640 os        1 19G     -0.329900
     17 CAT        -4.0150    2.7420   -3.2920 ca        1 19G      0.156100
     18 CAJ        -4.9710    1.7760   -2.9590 ca        1 19G     -0.187500
     19 CAR        -6.3320    2.0900   -3.0290 ca        1 19G     -0.032800
     20 CAA        -7.3360    1.0600   -2.6690 c3        1 19G     -0.053800
     21 CAU        -6.7220    3.3740   -3.4350 ca        1 19G     -0.032600
     22 Cl         -8.3840    3.7610   -3.5260 cl        1 19G     -0.123400
     23 CAS        -5.7670    4.3500   -3.7690 ca        1 19G     -0.032800
     24 CAB        -6.1770    5.7100   -4.1950 c3        1 19G     -0.053800
     25 CAK        -4.4130    4.0310   -3.6970 ca        1 19G     -0.187500
     26 H2          5.7200    0.1390   -3.5390 ha        1 19G      0.119000
     27 H3          5.3240    0.7920   -5.9130 ha        1 19G      0.110000
     28 H4          3.0140    1.0170   -6.7900 ha        1 19G      0.111000
     29 H5          1.0460    0.5940   -5.3040 ha        1 19G      0.125000
     30 H6         -0.6740   -0.7110   -1.9900 hc        1 19G      0.068700
     31 H7         -0.3740   -0.6700   -3.7880 hc        1 19G      0.068700
     32 H8         -0.3420    1.7850   -3.8160 hc        1 19G      0.055200
     33 H9         -0.3320    1.8660   -2.0100 hc        1 19G      0.055200
     34 H10        -2.5990    1.0010   -1.8380 h1        1 19G      0.044200
     35 H11        -2.6130    0.4780   -3.5980 h1        1 19G      0.044200
     36 H12        -4.6660    0.7700   -2.6360 ha        1 19G      0.151500
     37 H13        -6.8440    0.1030   -2.3700 hc        1 19G      0.047367
     38 H14        -7.9660    1.4160   -1.8150 hc        1 19G      0.047367
     39 H15        -8.0100    0.8560   -3.5390 hc        1 19G      0.047367
     40 H16        -5.2870    6.3470   -4.4190 hc        1 19G      0.047367
     41 H17        -6.8130    5.6530   -5.1130 hc        1 19G      0.047367
     42 H18        -6.7730    6.2050   -3.3870 hc        1 19G      0.047367
     43 H19        -3.6430    4.7740   -3.9490 ha        1 19G      0.151500
@<TRIPOS>BOND
     1    1    2 1   
     2    2    3 1   
     3    2    4 1   
     4    4    5 1   
     5    4   12 2   
     6    5    6 1   
     7    6    7 ar  
     8    6   11 ar  
     9    7    8 ar  
    10    7   26 1   
    11    8    9 ar  
    12    8   27 1   
    13    9   10 ar  
    14    9   28 1   
    15   10   11 ar  
    16   10   29 1   
    17   11   12 1   
    18   12   13 1   
    19   13   14 1   
    20   13   30 1   
    21   13   31 1   
    22   14   15 1   
    23   14   32 1   
    24   14   33 1   
    25   15   16 1   
    26   15   34 1   
    27   15   35 1   
    28   16   17 1   
    29   17   18 ar  
    30   17   25 ar  
    31   18   19 ar  
    32   18   36 1   
    33   19   20 1   
    34   19   21 ar  
    35   20   37 1   
    36   20   38 1   
    37   20   39 1   
    38   21   22 1   
    39   21   23 ar  
    40   23   24 1   
    41   23   25 ar  
    42   24   40 1   
    43   24   41 1   
    44   24   42 1   
    45   25   43 1   
@<TRIPOS>SUBSTRUCTURE
     1 19G         1 TEMP              0 ****  ****    0 ROOT
