@<TRIPOS>MOLECULE
19G
   43    45     1     0     0
SMALL
bcc


@<TRIPOS>ATOM
      1 OAC         0.0770   -1.4360   -0.1360 o         1 19G     -0.813300
      2 CAQ         1.2210   -0.9070   -0.0830 c         1 19G      0.927800
      3 OAD         1.8550   -0.6910    0.9870 o         1 19G     -0.813300
      4 CAW         1.8960   -0.5130   -1.3840 cc        1 19G     -0.082600
      5 S           3.5900   -0.4600   -1.4810 ss        1 19G      0.045500
      6 CAX         3.6050   -0.0060   -3.0990 ca        1 19G     -0.115100
      7 CAH         4.6930    0.2390   -3.9450 ca        1 19G     -0.094000
      8 CAF         4.4680    0.6080   -5.2610 ca        1 19G     -0.155000
      9 CAG         3.1570    0.7380   -5.7540 ca        1 19G     -0.153000
     10 CAI         2.0670    0.5010   -4.9340 ca        1 19G     -0.103000
     11 CAY         2.2760    0.1270   -3.5980 ca        1 19G     -0.063800
     12 CAV         1.2990   -0.1750   -2.5750 cd        1 19G     -0.113400
     13 CAN        -0.1560   -0.1480   -2.8280 c3        1 19G     -0.026200
     14 CAL        -0.6980    1.2690   -2.8860 c3        1 19G     -0.076400
     15 CAM        -2.2160    1.2280   -2.8660 c3        1 19G      0.125400
     16 OAO        -2.6550    2.5430   -3.2550 os        1 19G     -0.329900
     17 CAT        -4.0140    2.7440   -3.2810 ca        1 19G      0.156100
     18 CAJ        -4.9700    1.7760   -2.9530 ca        1 19G     -0.187500
     19 CAR        -6.3320    2.0910   -3.0190 ca        1 19G     -0.032800
     20 CAA        -7.3360    1.0590   -2.6650 c3        1 19G     -0.053800
     21 CAU        -6.7210    3.3770   -3.4180 ca        1 19G     -0.032600
     22 CL         -8.3830    3.7650   -3.5050 cl        1 19G     -0.123400
     23 CAS        -5.7660    4.3550   -3.7470 ca        1 19G     -0.032800
     24 CAB        -6.1760    5.7170   -4.1640 c3        1 19G     -0.053800
     25 CAK        -4.4120    4.0350   -3.6780 ca        1 19G     -0.187500
     26 H2          5.7180    0.1370   -3.5610 ha        1 19G      0.119000
     27 H3          5.3160    0.8020   -5.9310 ha        1 19G      0.110000
     28 H4          3.0040    1.0320   -6.8020 ha        1 19G      0.111000
     29 H5          1.0400    0.6030   -5.3120 ha        1 19G      0.125000
     30 H6         -0.6720   -0.7170   -2.0010 hc        1 19G      0.068700
     31 H7         -0.3770   -0.6680   -3.7990 hc        1 19G      0.068700
     32 H8         -0.3430    1.7880   -3.8140 hc        1 19G      0.055200
     33 H9         -0.3300    1.8590   -2.0080 hc        1 19G      0.055200
     34 H10        -2.5970    0.9930   -1.8380 h1        1 19G      0.044200
     35 H11        -2.6140    0.4810   -3.6010 h1        1 19G      0.044200
     36 H12        -4.6660    0.7680   -2.6360 ha        1 19G      0.151500
     37 H13        -6.8430    0.1000   -2.3720 hc        1 19G      0.047367
     38 H14        -7.9650    1.4100   -1.8090 hc        1 19G      0.047367
     39 H15        -8.0100    0.8600   -3.5350 hc        1 19G      0.047367
     40 H16        -5.2860    6.3560   -4.3860 hc        1 19G      0.047367
     41 H17        -6.8130    5.6660   -5.0820 hc        1 19G      0.047367
     42 H18        -6.7710    6.2070   -3.3530 hc        1 19G      0.047367
     43 H19        -3.6420    4.7790   -3.9260 ha        1 19G      0.151500
@<TRIPOS>BOND
     1    1    2 1   
     2    2    3 1   
     3    2    4 1   
     4    4    5 1   
     5    4   12 2   
     6    5    6 1   
     7    6    7 ar  
     8    6   11 ar  
     9    7    8 ar  
    10    7   26 1   
    11    8    9 ar  
    12    8   27 1   
    13    9   10 ar  
    14    9   28 1   
    15   10   11 ar  
    16   10   29 1   
    17   11   12 1   
    18   12   13 1   
    19   13   14 1   
    20   13   30 1   
    21   13   31 1   
    22   14   15 1   
    23   14   32 1   
    24   14   33 1   
    25   15   16 1   
    26   15   34 1   
    27   15   35 1   
    28   16   17 1   
    29   17   18 ar  
    30   17   25 ar  
    31   18   19 ar  
    32   18   36 1   
    33   19   20 1   
    34   19   21 ar  
    35   20   37 1   
    36   20   38 1   
    37   20   39 1   
    38   21   22 1   
    39   21   23 ar  
    40   23   24 1   
    41   23   25 ar  
    42   24   40 1   
    43   24   41 1   
    44   24   42 1   
    45   25   43 1   
@<TRIPOS>SUBSTRUCTURE
     1 19G         1 TEMP              0 ****  ****    0 ROOT
