@<TRIPOS>MOLECULE
19G
   43    37     1     0     0
SMALL
bcc


@<TRIPOS>ATOM
      1 OAC         1.1160   -0.2020    4.8410 o         1 19G     -0.567000
      2 CAQ         1.4080   -1.3740    4.4730 c1        1 19G      0.376000
      3 OAD         1.0930   -2.3600    5.1970 os        1 19G     -0.532000
      4 CAW         2.0990   -1.6030    3.1320 c2        1 19G     -0.308000
      5 S           3.5040   -1.8810    3.7270 ss        1 19G      0.501000
      6 CAX         4.4540   -2.2690    2.5350 c1        1 19G     -0.335000
      7 CAH         5.8000   -2.6150    2.4890 c1        1 19G     -0.125250
      8 CAF         6.4040   -2.9230    1.2600 c1        1 19G     -0.125250
      9 CAG         5.6440   -2.8820    0.0660 c1        1 19G     -0.125250
     10 CAI         4.2840   -2.5330    0.1090 c1        1 19G     -0.125250
     11 CAY         3.6840   -2.2270    1.3250 c1        1 19G     -0.042000
     12 CAV         2.1750   -1.8020    1.6990 c1        1 19G     -0.129000
     13 CAN         0.9070   -1.6030    0.8620 c2        1 19G     -0.098000
     14 CAL         0.6910   -0.1050    0.6060 c3        1 19G     -0.150000
     15 CAM        -0.5590    0.0920   -0.2650 c3        1 19G     -0.043000
     16 OAO        -0.9610    1.4610   -0.2190 os        1 19G     -0.230000
     17 CAT        -2.1380    1.7430   -0.9680 c2        1 19G      0.100000
     18 CAJ        -3.3810    1.7290   -0.3390 c2        1 19G     -0.190000
     19 CAR        -4.5190    2.1210   -1.0390 c1        1 19G     -0.020000
     20 CAA        -5.8880    2.0820   -0.3560 c3        1 19G     -0.185000
     21 CAU        -4.4150    2.5260   -2.3670 c1        1 19G     -0.110000
     22 CL         -5.8440    3.0190   -3.2440 cl        1 19G     -0.062000
     23 CAS        -3.1750    2.5400   -2.9950 c1        1 19G     -0.048000
     24 CAB        -3.0670    2.9500   -4.4650 c3        1 19G     -0.171000
     25 CAK        -2.0350    2.1480   -2.2950 c1        1 19G     -0.178000
     26 H2          6.3280   -2.6440    3.3160 ha        1 19G      0.117500
     27 H3          7.3550   -3.1670    1.2280 ha        1 19G      0.117500
     28 H4          6.0680   -3.0980   -0.7940 ha        1 19G      0.117500
     29 H5          3.7580   -2.5040   -0.7190 ha        1 19G      0.117500
     30 H6          1.0050   -2.0720    0.0030 ha        1 19G      0.097500
     31 H7          0.1340   -1.9680    1.3470 ha        1 19G      0.097500
     32 H8          0.5690    0.3590    1.4640 hc        1 19G      0.076000
     33 H9          1.4750    0.2640    0.1430 hc        1 19G      0.076000
     34 H10        -1.2880   -0.4750    0.0740 h1        1 19G      0.119500
     35 H11        -0.3540   -0.1580   -1.1930 h1        1 19G      0.119500
     36 H12        -3.4450    1.5110    0.6160 ha        1 19G      0.219000
     37 H13        -5.9780    1.3060   -0.9510 hc        1 19G      0.092333
     38 H14        -5.8250    3.0450   -0.5440 hc        1 19G      0.092333
     39 H15        -6.7960    2.2430   -0.7020 hc        1 19G      0.092333
     40 H16        -3.5900    2.3280   -5.0180 hc        1 19G      0.078333
     41 H17        -3.4170    3.8610   -4.5770 hc        1 19G      0.078333
     42 H18        -2.1250    2.9230   -4.7440 hc        1 19G      0.078333
     43 H19        -1.1530    2.2150   -2.7200 ha        1 19G      0.137000
@<TRIPOS>BOND
     1    1    2 1   
     2    2    4 1   
     3    4    5 1   
     4    4   12 1   
     5    5    6 1   
     6    6   11 1   
     7    7    8 1   
     8    7   26 1   
     9    8   27 1   
    10    9   10 1   
    11    9   28 1   
    12   10   29 1   
    13   13   14 1   
    14   13   30 1   
    15   13   31 1   
    16   14   15 1   
    17   14   32 1   
    18   14   33 1   
    19   15   16 1   
    20   15   34 1   
    21   15   35 1   
    22   16   17 1   
    23   17   18 1   
    24   17   25 1   
    25   18   19 1   
    26   18   36 1   
    27   19   20 1   
    28   20   37 1   
    29   20   38 1   
    30   20   39 1   
    31   21   22 1   
    32   21   23 1   
    33   23   24 1   
    34   24   40 1   
    35   24   41 1   
    36   24   42 1   
    37   25   43 1   
@<TRIPOS>SUBSTRUCTURE
     1 19G         1 TEMP              0 ****  ****    0 ROOT
