@<TRIPOS>MOLECULE
19H
   44    46     1     0     0
SMALL
bcc


@<TRIPOS>ATOM
      1 OAC        -3.7720   -4.3490   -0.5760 o         1 19H     -0.812300
      2 CAQ        -2.8970   -3.4660   -0.7990 c         1 19H      0.928800
      3 OAD        -1.7450   -3.6810   -1.2560 o         1 19H     -0.812300
      4 CAW        -3.2850   -2.0210   -0.4870 cc        1 19H     -0.059300
      5 NAO        -4.5740   -1.7280   -0.0260 na        1 19H     -0.162400
      6 CAY        -4.6920   -0.3590    0.1730 ca        1 19H     -0.061200
      7 CAK        -5.7700    0.4190    0.6180 ca        1 19H     -0.140000
      8 CAT        -5.5700    1.7910    0.7070 ca        1 19H      0.012400
      9 CL2        -6.8590    2.7830    1.2450 cl        1 19H     -0.151400
     10 CAG        -4.3460    2.4000    0.3720 ca        1 19H     -0.169000
     11 CAH        -3.2770    1.6330   -0.0680 ca        1 19H     -0.092000
     12 CAZ        -3.4170    0.2500   -0.1770 ca        1 19H     -0.077800
     13 CAX        -2.5490   -0.8280   -0.5870 cd        1 19H     -0.170400
     14 CAN        -1.1630   -0.7070   -1.0560 c3        1 19H     -0.011200
     15 CAL        -0.2220   -0.2460    0.0440 c3        1 19H     -0.076400
     16 CAM         1.2120   -0.3570   -0.4400 c3        1 19H      0.125400
     17 OAP         2.0150    0.3450    0.5260 os        1 19H     -0.328900
     18 CAU         3.3690    0.3550    0.2970 ca        1 19H      0.155100
     19 CAI         4.1250    1.0600    1.2530 ca        1 19H     -0.187500
     20 CAR         5.5100    1.1420    1.1230 ca        1 19H     -0.032800
     21 CAA         6.2980    1.8870    2.1340 c3        1 19H     -0.053800
     22 CAV         6.1360    0.5150    0.0310 ca        1 19H     -0.032600
     23 CL1         7.8340    0.6150   -0.1330 cl        1 19H     -0.123400
     24 CAS         5.3900   -0.1920   -0.9220 ca        1 19H     -0.032800
     25 CAB         6.0470   -0.8600   -2.0710 c3        1 19H     -0.053800
     26 CAJ         4.0000   -0.2690   -0.7860 ca        1 19H     -0.187500
     27 H2         -5.2650   -2.4180    0.1260 hn        1 19H      0.313700
     28 H3         -6.7310   -0.0400    0.8830 ha        1 19H      0.135000
     29 H4         -4.2420    3.4900    0.4600 ha        1 19H      0.125000
     30 H5         -2.3200    2.1080   -0.3290 ha        1 19H      0.127000
     31 H6         -0.8270   -1.7130   -1.4420 hc        1 19H      0.063700
     32 H7         -1.1160    0.0260   -1.9070 hc        1 19H      0.063700
     33 H8         -0.4460    0.8130    0.3330 hc        1 19H      0.053700
     34 H9         -0.3580   -0.8800    0.9580 hc        1 19H      0.053700
     35 H10         1.5380   -1.4290   -0.4880 h1        1 19H      0.043200
     36 H11         1.3430    0.1270   -1.4430 h1        1 19H      0.043200
     37 H12         3.6080    1.5390    2.0960 ha        1 19H      0.151000
     38 H13         7.0390    1.2060    2.6240 hc        1 19H      0.047367
     39 H14         6.8590    2.7230    1.6480 hc        1 19H      0.047367
     40 H15         5.6350    2.3170    2.9250 hc        1 19H      0.047367
     41 H16         6.7800   -1.6230   -1.7070 hc        1 19H      0.047367
     42 H17         5.2980   -1.3720   -2.7240 hc        1 19H      0.047367
     43 H18         6.6010   -0.1100   -2.6900 hc        1 19H      0.047367
     44 H19         3.4160   -0.8270   -1.5330 ha        1 19H      0.151000
@<TRIPOS>BOND
     1    1    2 1   
     2    2    3 1   
     3    2    4 1   
     4    4    5 1   
     5    4   13 2   
     6    5    6 1   
     7    5   27 1   
     8    6    7 ar  
     9    6   12 ar  
    10    7    8 ar  
    11    7   28 1   
    12    8    9 1   
    13    8   10 ar  
    14   10   11 ar  
    15   10   29 1   
    16   11   12 ar  
    17   11   30 1   
    18   12   13 1   
    19   13   14 1   
    20   14   15 1   
    21   14   31 1   
    22   14   32 1   
    23   15   16 1   
    24   15   33 1   
    25   15   34 1   
    26   16   17 1   
    27   16   35 1   
    28   16   36 1   
    29   17   18 1   
    30   18   19 ar  
    31   18   26 ar  
    32   19   20 ar  
    33   19   37 1   
    34   20   21 1   
    35   20   22 ar  
    36   21   38 1   
    37   21   39 1   
    38   21   40 1   
    39   22   23 1   
    40   22   24 ar  
    41   24   25 1   
    42   24   26 ar  
    43   25   41 1   
    44   25   42 1   
    45   25   43 1   
    46   26   44 1   
@<TRIPOS>SUBSTRUCTURE
     1 19H         1 TEMP              0 ****  ****    0 ROOT
