@<TRIPOS>MOLECULE
19H
   44    35     1     0     0
SMALL
bcc


@<TRIPOS>ATOM
      1 OAC        -0.9550   -0.8780   -4.9530 o         1 19H     -0.547000
      2 CAQ        -1.2090   -1.9010   -4.2460 c1        1 19H      0.379000
      3 OAD        -0.6280   -3.0090   -4.4970 o         1 19H     -0.547000
      4 CAW        -2.1870   -1.7800   -2.9950 c1        1 19H     -0.013000
      5 NAO        -3.4220   -2.1910   -3.3930 n2        1 19H     -0.185000
      6 CAY        -4.2230   -2.3020   -2.2660 c1        1 19H     -0.016000
      7 CAK        -5.5840   -2.6200   -2.1090 c1        1 19H     -0.140000
      8 CAT        -6.1650   -2.5840   -0.8510 c1        1 19H     -0.066000
      9 CL2        -7.8960   -2.8240   -0.7520 cl        1 19H     -0.059000
     10 CAG        -5.3990   -2.2320    0.2570 c1        1 19H     -0.130500
     11 CAH        -4.0580   -1.9180    0.1000 c1        1 19H     -0.130500
     12 CAZ        -3.4710   -1.9560   -1.1790 c1        1 19H     -0.066000
     13 CAX        -2.2070   -1.6310   -1.6250 c1        1 19H     -0.178000
     14 CAN        -0.9540   -1.4550   -0.7580 c2        1 19H     -0.094000
     15 CAL        -0.6080    0.0380   -0.6580 c3        1 19H     -0.155000
     16 CAM         0.6920    0.2140    0.1590 c3        1 19H     -0.025000
     17 OAP         0.9980    1.6100    0.2810 os        1 19H     -0.212000
     18 CAU         2.1720    1.8760    1.0190 c2        1 19H      0.110000
     19 CAI         3.3980    1.9730    0.3650 c2        1 19H     -0.208000
     20 CAR         4.5610    2.2740    1.0970 c1        1 19H     -0.021000
     21 CAA         5.9120    2.4740    0.3590 c3        1 19H     -0.180000
     22 CAV         4.4870    2.4750    2.4680 c1        1 19H     -0.111000
     23 CL1         5.9330    2.8880    3.3670 cl        1 19H     -0.059000
     24 CAS         3.2600    2.3790    3.1260 c1        1 19H     -0.030000
     25 CAB         3.2100    2.4550    4.6140 c2        1 19H     -0.178000
     26 CAJ         2.0990    2.0790    2.4030 c2        1 19H     -0.167000
     27 H2         -3.6930   -2.3140   -4.2550 DU        1 19H      0.264000
     28 H3         -6.1300   -2.9280   -2.8820 ha        1 19H      0.135000
     29 H4         -5.8640   -2.3310    1.0950 ha        1 19H      0.126000
     30 H5         -3.7980   -1.6570    1.0340 ha        1 19H      0.126000
     31 H6         -1.1270   -1.8160    0.1500 ha        1 19H      0.103000
     32 H7         -0.2140   -1.9320   -1.1580 ha        1 19H      0.103000
     33 H8         -0.4810    0.4070   -1.5600 hc        1 19H      0.093000
     34 H9         -1.3480    0.5180   -0.2070 hc        1 19H      0.093000
     35 H10         1.4410   -0.2510   -0.3050 h1        1 19H      0.082500
     36 H11         0.5690   -0.1780    1.0650 h1        1 19H      0.082500
     37 H12         3.4350    1.9290   -0.6190 ha        1 19H      0.151000
     38 H13         6.1860    3.4370    0.4180 hc        1 19H      0.087667
     39 H14         6.6200    1.8970    0.7870 hc        1 19H      0.087667
     40 H15         5.8100    2.2220   -0.5740 hc        1 19H      0.087667
     41 H16         2.3010    2.3310    4.9120 ha        1 19H      0.085667
     42 H17         3.7840    1.7450    5.0010 ha        1 19H      0.085667
     43 H18         3.5390    3.3430    4.9120 ha        1 19H      0.085667
     44 H19         1.2140    2.1220    2.8510 ha        1 19H      0.151000
@<TRIPOS>BOND
     1    1    2 1   
     2    2    3 1   
     3    4    5 1   
     4    4   13 1   
     5    5    6 1   
     6    6    7 1   
     7    7   28 1   
     8    8   10 1   
     9   10   29 1   
    10   11   12 1   
    11   11   30 1   
    12   14   15 1   
    13   14   31 1   
    14   14   32 1   
    15   15   16 1   
    16   15   33 1   
    17   15   34 1   
    18   16   17 1   
    19   16   35 1   
    20   16   36 1   
    21   17   18 1   
    22   18   19 1   
    23   18   26 1   
    24   19   20 1   
    25   19   37 1   
    26   20   21 1   
    27   21   38 1   
    28   21   39 1   
    29   21   40 1   
    30   22   24 1   
    31   24   26 1   
    32   25   41 1   
    33   25   42 1   
    34   25   43 1   
    35   26   44 1   
@<TRIPOS>SUBSTRUCTURE
     1 19H         1 TEMP              0 ****  ****    0 ROOT
