@<TRIPOS>MOLECULE
19H
   44    46     1     0     0
SMALL
bcc


@<TRIPOS>ATOM
      1 OAC         0.1330   -1.2810   -0.2770 o         1 19H     -0.812300
      2 CAQ         1.3500   -1.0170   -0.0750 c         1 19H      0.928800
      3 OAD         1.9480   -1.1310    1.0260 o         1 19H     -0.812300
      4 CAW         2.1540   -0.5240   -1.2790 cc        1 19H     -0.059300
      5 NAO         1.5450   -0.4320   -2.5350 na        1 19H     -0.162400
      6 CAY         2.4710    0.0230   -3.4640 ca        1 19H     -0.061200
      7 CAK         2.3520    0.2750   -4.8380 ca        1 19H     -0.140000
      8 CAT         3.4860    0.7280   -5.5020 ca        1 19H      0.012400
      9 Cl2         3.3890    1.0480   -7.1830 cl        1 19H     -0.151400
     10 CAG         4.7140    0.9340   -4.8470 ca        1 19H     -0.169000
     11 CAH         4.8350    0.6880   -3.4870 ca        1 19H     -0.092000
     12 CAZ         3.7310    0.2320   -2.7670 ca        1 19H     -0.077800
     13 CAX         3.4970   -0.1200   -1.3870 cd        1 19H     -0.170400
     14 CAN         4.4800   -0.0960   -0.2970 c3        1 19H     -0.011200
     15 CAL         4.9260    1.3150    0.0440 c3        1 19H     -0.076400
     16 CAM         5.7610    1.2880    1.3120 c3        1 19H      0.125400
     17 OAP         6.3720    2.5870    1.4170 os        1 19H     -0.328900
     18 CAU         7.1650    2.7960    2.5180 ca        1 19H      0.155100
     19 CAI         7.7580    4.0720    2.5840 ca        1 19H     -0.187500
     20 CAR         8.5880    4.3990    3.6540 ca        1 19H     -0.032800
     21 CAA         9.2060    5.7450    3.7160 c3        1 19H     -0.053800
     22 CAV         8.8230    3.4430    4.6580 ca        1 19H     -0.032600
     23 Cl1         9.8430    3.8410    5.9710 cl        1 19H     -0.123400
     24 CAS         8.2350    2.1730    4.6000 ca        1 19H     -0.032800
     25 CAB         8.4760    1.1650    5.6600 c3        1 19H     -0.053800
     26 CAJ         7.4030    1.8510    3.5220 ca        1 19H     -0.187500
     27 H2          0.5980   -0.6610   -2.6960 hn        1 19H      0.313700
     28 H3          1.4020    0.1180   -5.3650 ha        1 19H      0.135000
     29 H4          5.5800    1.2940   -5.4200 ha        1 19H      0.125000
     30 H5          5.7940    0.8500   -2.9740 ha        1 19H      0.127000
     31 H6          5.3800   -0.7040   -0.5880 hc        1 19H      0.063700
     32 H7          4.0160   -0.5750    0.6140 hc        1 19H      0.063700
     33 H8          5.5250    1.7500   -0.7970 hc        1 19H      0.053700
     34 H9          4.0340    1.9740    0.1990 hc        1 19H      0.053700
     35 H10         5.1180    1.1020    2.2120 h1        1 19H      0.043200
     36 H11         6.5670    0.5100    1.2530 h1        1 19H      0.043200
     37 H12         7.5540    4.7980    1.7840 ha        1 19H      0.151000
     38 H13         8.8870    6.2740    4.6490 hc        1 19H      0.047367
     39 H14        10.3220    5.6580    3.7280 hc        1 19H      0.047367
     40 H15         8.9080    6.3670    2.8370 hc        1 19H      0.047367
     41 H16         8.1350    1.5570    6.6510 hc        1 19H      0.047367
     42 H17         7.9260    0.2150    5.4480 hc        1 19H      0.047367
     43 H18         9.5680    0.9330    5.7330 hc        1 19H      0.047367
     44 H19         6.9390    0.8550    3.4790 ha        1 19H      0.151000
@<TRIPOS>BOND
     1    1    2 1   
     2    2    3 1   
     3    2    4 1   
     4    4    5 1   
     5    4   13 2   
     6    5    6 1   
     7    5   27 1   
     8    6    7 ar  
     9    6   12 ar  
    10    7    8 ar  
    11    7   28 1   
    12    8    9 1   
    13    8   10 ar  
    14   10   11 ar  
    15   10   29 1   
    16   11   12 ar  
    17   11   30 1   
    18   12   13 1   
    19   13   14 1   
    20   14   15 1   
    21   14   31 1   
    22   14   32 1   
    23   15   16 1   
    24   15   33 1   
    25   15   34 1   
    26   16   17 1   
    27   16   35 1   
    28   16   36 1   
    29   17   18 1   
    30   18   19 ar  
    31   18   26 ar  
    32   19   20 ar  
    33   19   37 1   
    34   20   21 1   
    35   20   22 ar  
    36   21   38 1   
    37   21   39 1   
    38   21   40 1   
    39   22   23 1   
    40   22   24 ar  
    41   24   25 1   
    42   24   26 ar  
    43   25   41 1   
    44   25   42 1   
    45   25   43 1   
    46   26   44 1   
@<TRIPOS>SUBSTRUCTURE
     1 19H         1 TEMP              0 ****  ****    0 ROOT
