@<TRIPOS>MOLECULE
19H
   44    46     1     0     0
SMALL
bcc


@<TRIPOS>ATOM
      1 OAC         0.1380   -1.2880   -0.2880 o         1 19H     -0.812300
      2 CAQ         1.3550   -1.0230   -0.0850 c         1 19H      0.928800
      3 OAD         1.9530   -1.1380    1.0160 o         1 19H     -0.812300
      4 CAW         2.1590   -0.5250   -1.2870 cc        1 19H     -0.059300
      5 NAO         1.5500   -0.4310   -2.5430 na        1 19H     -0.162400
      6 CAY         2.4770    0.0290   -3.4700 ca        1 19H     -0.061200
      7 CAK         2.3580    0.2830   -4.8440 ca        1 19H     -0.140000
      8 CAT         3.4910    0.7400   -5.5060 ca        1 19H      0.012400
      9 CL2         3.3950    1.0650   -7.1850 cl        1 19H     -0.151400
     10 CAG         4.7190    0.9470   -4.8490 ca        1 19H     -0.169000
     11 CAH         4.8390    0.6970   -3.4900 ca        1 19H     -0.092000
     12 CAZ         3.7360    0.2370   -2.7720 ca        1 19H     -0.077800
     13 CAX         3.5010   -0.1190   -1.3920 cd        1 19H     -0.170400
     14 CAN         4.4840   -0.0960   -0.3020 c3        1 19H     -0.011200
     15 CAL         4.9270    1.3150    0.0430 c3        1 19H     -0.076400
     16 CAM         5.7610    1.2860    1.3120 c3        1 19H      0.125400
     17 OAP         6.3690    2.5860    1.4200 os        1 19H     -0.328900
     18 CAU         7.1620    2.7930    2.5220 ca        1 19H      0.155100
     19 CAI         7.7530    4.0700    2.5920 ca        1 19H     -0.187500
     20 CAR         8.5810    4.3960    3.6630 ca        1 19H     -0.032800
     21 CAA         9.1980    5.7420    3.7290 c3        1 19H     -0.053800
     22 CAV         8.8170    3.4380    4.6650 ca        1 19H     -0.032600
     23 CL1         9.8350    3.8340    5.9800 cl        1 19H     -0.123400
     24 CAS         8.2300    2.1670    4.6040 ca        1 19H     -0.032800
     25 CAB         8.4720    1.1570    5.6620 c3        1 19H     -0.053800
     26 CAJ         7.4000    1.8460    3.5250 ca        1 19H     -0.187500
     27 H2          0.6040   -0.6610   -2.7050 hn        1 19H      0.313700
     28 H3          1.4080    0.1270   -5.3710 ha        1 19H      0.135000
     29 H4          5.5850    1.3100   -5.4210 ha        1 19H      0.125000
     30 H5          5.7970    0.8590   -2.9760 ha        1 19H      0.127000
     31 H6          5.3850   -0.7010   -0.5940 hc        1 19H      0.063700
     32 H7          4.0200   -0.5780    0.6080 hc        1 19H      0.063700
     33 H8          5.5260    1.7540   -0.7960 hc        1 19H      0.053700
     34 H9          4.0330    1.9720    0.1990 hc        1 19H      0.053700
     35 H10         5.1170    1.0970    2.2110 h1        1 19H      0.043200
     36 H11         6.5680    0.5100    1.2510 h1        1 19H      0.043200
     37 H12         7.5480    4.7980    1.7940 ha        1 19H      0.151000
     38 H13         8.8770    6.2690    4.6620 hc        1 19H      0.047367
     39 H14        10.3130    5.6570    3.7410 hc        1 19H      0.047367
     40 H15         8.9000    6.3650    2.8510 hc        1 19H      0.047367
     41 H16         8.1290    1.5460    6.6530 hc        1 19H      0.047367
     42 H17         7.9240    0.2070    5.4470 hc        1 19H      0.047367
     43 H18         9.5640    0.9270    5.7360 hc        1 19H      0.047367
     44 H19         6.9370    0.8500    3.4790 ha        1 19H      0.151000
@<TRIPOS>BOND
     1    1    2 1   
     2    2    3 1   
     3    2    4 1   
     4    4    5 1   
     5    4   13 2   
     6    5    6 1   
     7    5   27 1   
     8    6    7 ar  
     9    6   12 ar  
    10    7    8 ar  
    11    7   28 1   
    12    8    9 1   
    13    8   10 ar  
    14   10   11 ar  
    15   10   29 1   
    16   11   12 ar  
    17   11   30 1   
    18   12   13 1   
    19   13   14 1   
    20   14   15 1   
    21   14   31 1   
    22   14   32 1   
    23   15   16 1   
    24   15   33 1   
    25   15   34 1   
    26   16   17 1   
    27   16   35 1   
    28   16   36 1   
    29   17   18 1   
    30   18   19 ar  
    31   18   26 ar  
    32   19   20 ar  
    33   19   37 1   
    34   20   21 1   
    35   20   22 ar  
    36   21   38 1   
    37   21   39 1   
    38   21   40 1   
    39   22   23 1   
    40   22   24 ar  
    41   24   25 1   
    42   24   26 ar  
    43   25   41 1   
    44   25   42 1   
    45   25   43 1   
    46   26   44 1   
@<TRIPOS>SUBSTRUCTURE
     1 19H         1 TEMP              0 ****  ****    0 ROOT
