@<TRIPOS>MOLECULE
19J
   33    26     1     0     0
SMALL
bcc


@<TRIPOS>ATOM
      1 C1          1.2950   -0.3300   -5.5970 c1        1 19J      0.262000
      2 N1          0.5740   -0.2630   -6.8060 n3        1 19J     -0.332000
      3 O1          4.6580   -0.4950   -4.4360 o         1 19J     -0.267000
      4 C2          3.4480   -0.4400   -4.4180 c1        1 19J      0.330000
      5 N2          2.7310   -0.3920   -5.6170 n2        1 19J     -0.322000
      6 C3          2.7100   -0.4260   -3.0860 c1        1 19J     -0.156000
      7 N3          0.5830   -0.3140   -4.3240 n2        1 19J     -0.283000
      8 O2          2.0180   -0.2670    1.5670 o         1 19J     -0.366000
      9 C4          1.3380   -0.3700   -3.0610 c2        1 19J      0.086000
     10 N4          0.6740   -0.3490   -1.8590 n1        1 19J     -0.134000
     11 C5          1.3730   -0.3820   -0.6990 c1        1 19J     -0.040000
     12 N5          3.4180   -0.4590   -1.9100 n1        1 19J     -0.032000
     13 C6          2.7590   -0.4380   -0.7220 c1        1 19J     -0.108000
     14 C7          1.1030   -0.2800    0.7960 c1        1 19J      0.342000
     15 N6         -0.2510   -0.0890    1.2800 n2        1 19J     -0.313500
     16 C8         -0.4990    0.7260    2.5510 c3        1 19J     -0.102500
     17 C9         -1.5280    0.0160    3.4150 c1        1 19J      0.296500
     18 O3         -1.6440   -1.2110    3.3570 o         1 19J     -0.504500
     19 N7         -2.4100    0.7510    4.1600 n2        1 19J     -0.313500
     20 C10        -2.8520    0.2710    5.3990 c3        1 19J     -0.102500
     21 C11        -4.2390    0.6530    5.5970 c1        1 19J      0.296500
     22 O5         -4.5370    1.8640    5.7790 o         1 19J     -0.504500
     23 O4         -5.1060   -0.2210    5.7270 os        1 19J     -0.550000
     24 H1         -0.3010   -0.3850   -6.8060 hn        1 19J      0.217000
     25 H2          1.0230   -0.0970   -7.6140 hn        1 19J      0.217000
     26 H11        -0.3360   -0.1690   -4.3090 hn        1 19J      0.266000
     27 H10         3.2610   -0.4630    0.1180 ha        1 19J      0.205000
     28 H9         -0.9860   -0.4070    0.7700 hn        1 19J      0.252000
     29 H7         -0.8300    1.6120    2.3120 h1        1 19J      0.101750
     30 H8          0.3470    0.8190    3.0530 h1        1 19J      0.101750
     31 H6         -2.7240    1.5610    3.8410 hn        1 19J      0.252000
     32 H4         -2.2920    0.6620    6.1270 h1        1 19J      0.101750
     33 H5         -2.7780   -0.6860    5.4140 h1        1 19J      0.101750
@<TRIPOS>BOND
     1    1    2 1   
     2    1    5 1   
     3    2   24 1   
     4    2   25 1   
     5    3    4 1   
     6    4    5 1   
     7    6    9 1   
     8    6   12 1   
     9    7    9 1   
    10    7   26 1   
    11    8   14 1   
    12    9   10 1   
    13   11   13 1   
    14   13   27 1   
    15   15   16 1   
    16   15   28 1   
    17   16   17 1   
    18   16   29 1   
    19   16   30 1   
    20   17   18 1   
    21   19   20 1   
    22   19   31 1   
    23   20   21 1   
    24   20   32 1   
    25   20   33 1   
    26   21   22 1   
@<TRIPOS>SUBSTRUCTURE
     1 19J         1 TEMP              0 ****  ****    0 ROOT
