@<TRIPOS>MOLECULE
19J
   33    34     1     0     0
SMALL
bcc


@<TRIPOS>ATOM
      1 C1         -4.7080    2.0880   -0.0180 cc        1 19J      0.854100
      2 N1         -5.0340    3.4560   -0.1720 nh        1 19J     -0.893800
      3 O1         -6.3230   -1.0110    0.1500 o         1 19J     -0.506100
      4 C2         -5.3990   -0.1910    0.0760 c         1 19J      0.619000
      5 N2         -5.6850    1.1860    0.0580 nd        1 19J     -0.749100
      6 C3         -3.9550   -0.6060    0.0150 ca        1 19J      0.196500
      7 N3         -3.3280    1.7720    0.0070 na        1 19J     -0.832900
      8 O2          0.3900   -2.7450   -0.7100 o         1 19J     -0.605100
      9 C4         -2.9490    0.4260   -0.0320 ca        1 19J      0.541900
     10 N4         -1.6090    0.1210   -0.0920 nb        1 19J     -0.660000
     11 C5         -1.2980   -1.1850   -0.1020 ca        1 19J      0.312500
     12 N5         -3.6070   -1.9160   -0.0040 nb        1 19J     -0.558000
     13 C6         -2.3020   -2.2040   -0.0630 ca        1 19J      0.291900
     14 C7          0.1460   -1.6360   -0.1900 c         1 19J      0.559600
     15 N6          1.1010   -0.8460    0.3940 n         1 19J     -0.511900
     16 C8          2.5050   -1.1250    0.2230 c3        1 19J     -0.008000
     17 C9          3.3480    0.1580    0.0420 c         1 19J      0.621100
     18 O3          2.8130    1.2860    0.1700 o         1 19J     -0.664100
     19 N7          4.6510   -0.0290   -0.3100 n         1 19J     -0.498900
     20 C10         5.6300    1.0300   -0.2640 c3        1 19J     -0.064000
     21 C11         7.0490    0.5290    0.1490 c         1 19J      0.908600
     22 O5          7.2100   -0.7010    0.3910 o         1 19J     -0.831800
     23 O4          7.9470    1.4090    0.2090 o         1 19J     -0.831800
     24 H1         -6.0060    3.6590   -0.0670 hn        1 19J      0.421800
     25 H2         -4.4320    4.0970    0.2960 hn        1 19J      0.421800
     26 H11        -2.6340    2.4740   -0.1370 hn        1 19J      0.470800
     27 H10        -2.0110   -3.2710   -0.0960 h4        1 19J      0.067100
     28 H9          0.8850    0.1050    0.6200 hn        1 19J      0.346500
     29 H7          2.8730   -1.6510    1.1510 h1        1 19J      0.078700
     30 H8          2.6570   -1.8140   -0.6560 h1        1 19J      0.078700
     31 H6          5.0500   -0.9440   -0.2110 hn        1 19J      0.331500
     32 H4          5.7020    1.4910   -1.2870 h1        1 19J      0.045700
     33 H5          5.3080    1.8310    0.4560 h1        1 19J      0.045700
@<TRIPOS>BOND
     1    1    2 1   
     2    1    5 2   
     3    1    7 1   
     4    2   24 1   
     5    2   25 1   
     6    3    4 2   
     7    4    5 1   
     8    4    6 1   
     9    6    9 ar  
    10    6   12 ar  
    11    7    9 1   
    12    7   26 1   
    13    8   14 2   
    14    9   10 ar  
    15   10   11 ar  
    16   11   13 ar  
    17   11   14 1   
    18   12   13 ar  
    19   13   27 1   
    20   14   15 1   
    21   15   16 1   
    22   15   28 1   
    23   16   17 1   
    24   16   29 1   
    25   16   30 1   
    26   17   18 2   
    27   17   19 1   
    28   19   20 1   
    29   19   31 1   
    30   20   21 1   
    31   20   32 1   
    32   20   33 1   
    33   21   22 1   
    34   21   23 1   
@<TRIPOS>SUBSTRUCTURE
     1 19J         1 TEMP              0 ****  ****    0 ROOT
