@<TRIPOS>MOLECULE
19K
   44    46     1     0     0
SMALL
bcc


@<TRIPOS>ATOM
      1 S           0.5730   -1.0250    0.3760 ss        1 19K      0.506000
      2 C1          2.8410   -0.3640   -1.0790 c3        1 19K     -0.164000
      3 N1          2.2600    0.7990    1.0490 n2        1 19K     -0.126000
      4 O1         -3.7840    0.8320   11.0720 o         1 19K     -0.478200
      5 C2          1.9980   -0.1180    0.1110 c2        1 19K     -0.247000
      6 N2         -3.2560   -1.1610    4.0170 n2        1 19K     -0.290000
      7 C3          1.2740    0.7760    2.0290 c2        1 19K      0.022000
      8 N3         -2.5720    0.5640    5.5650 n7        1 19K     -0.154000
      9 C4          1.3380    1.7010    3.1830 c3        1 19K     -0.158000
     10 N4         -6.5550   -0.7130    9.3940 n3        1 19K     -0.228000
     11 C5          0.2650   -0.1780    1.8070 c2        1 19K     -0.433000
     12 N5         -4.2210    1.1350    9.9970 no        1 19K      0.811400
     13 C6         -0.9010   -0.4750    2.6110 c2        1 19K      0.151000
     14 N6         -1.1600    0.1930    3.7130 n2        1 19K     -0.258000
     15 C7         -1.7800   -1.5880    2.0960 c3        1 19K     -0.265000
     16 C8         -2.9970   -1.8320    2.9290 c1        1 19K     -0.130000
     17 C9         -2.3530   -0.1700    4.4360 c2        1 19K      0.216000
     18 C10        -3.5890    0.2810    6.5130 c2        1 19K     -0.113000
     19 C11        -4.9100   -0.0330    6.1380 c2        1 19K      0.122000
     20 C12        -5.8840   -0.3350    7.0980 c2        1 19K     -0.321000
     21 C13        -5.6280   -0.3270    8.4750 c2        1 19K      0.141000
     22 C14        -6.2610   -0.8600   10.7970 c3        1 19K     -0.101000
     23 C15        -7.8910   -1.0540    8.9640 c3        1 19K     -0.101000
     24 C16        -4.2100    0.0500    8.9010 c3        1 19K     -0.073000
     25 C17        -3.2710    0.4460    7.8510 c1        1 19K     -0.196000
     26 H1          2.9200    0.5640   -1.7000 hc        1 19K      0.104333
     27 H1A         2.4010   -1.1800   -1.7040 hc        1 19K      0.104333
     28 H1B         3.8740   -0.6650   -0.7690 hc        1 19K      0.104333
     29 HN3        -1.8560    1.1830    5.9020 hn        1 19K      0.268000
     30 H4          1.3680    1.1130    4.1350 hc        1 19K      0.105667
     31 H4A         0.4250    2.3490    3.1950 hc        1 19K      0.105667
     32 H4B         2.2410    2.3590    3.1410 hc        1 19K      0.105667
     33 H7         -1.1940   -2.5470    2.0600 hc        1 19K      0.148000
     34 H8         -2.1170   -1.3520    1.0500 hc        1 19K      0.148000
     35 H11        -5.2250   -0.0330    5.0770 ha        1 19K      0.178000
     36 H12        -6.8870   -0.5930    6.7200 ha        1 19K      0.153000
     37 H14        -6.9560   -1.6170   11.2500 h1        1 19K      0.104000
     38 H14A       -6.3990    0.1200   11.3320 h1        1 19K      0.104000
     39 H14B       -5.2070   -1.2190   10.9540 h1        1 19K      0.104000
     40 H15        -8.5490   -1.2260    9.8560 h1        1 19K      0.104000
     41 H15A       -8.3250   -0.2130    8.3570 h1        1 19K      0.104000
     42 H15B       -7.8720   -1.9860    8.3370 h1        1 19K      0.104000
     43 H17        -3.7300   -0.8770    9.3700 h1        1 19K      0.196000
     44 O2         -4.6840    2.2090    9.7570 o         1 19K     -0.478200
@<TRIPOS>BOND
     1    1    5 1   
     2    1   11 1   
     3    2    5 1   
     4    2   26 1   
     5    2   27 1   
     6    2   28 1   
     7    3    5 1   
     8    3    7 1   
     9    4   12 2   
    10    6   16 1   
    11    6   17 1   
    12    7    9 1   
    13    7   11 1   
    14    8   17 1   
    15    8   18 1   
    16    8   29 1   
    17    9   30 1   
    18    9   31 1   
    19    9   32 1   
    20   10   21 1   
    21   10   22 1   
    22   10   23 1   
    23   11   13 1   
    24   12   24 1   
    25   12   44 2   
    26   13   14 1   
    27   13   15 1   
    28   14   17 1   
    29   15   16 1   
    30   15   33 1   
    31   15   34 1   
    32   18   19 1   
    33   18   25 1   
    34   19   20 1   
    35   19   35 1   
    36   20   21 1   
    37   20   36 1   
    38   21   24 1   
    39   22   37 1   
    40   22   38 1   
    41   22   39 1   
    42   23   40 1   
    43   23   41 1   
    44   23   42 1   
    45   24   25 1   
    46   24   43 1   
@<TRIPOS>SUBSTRUCTURE
     1 19K         1 TEMP              0 ****  ****    0 ROOT
