@<TRIPOS>MOLECULE
19K
   44    46     1     0     0
SMALL
bcc


@<TRIPOS>ATOM
      1 S          -5.5460    0.6820   -0.8020 ss        1 19K     -0.099300
      2 C1         -8.0140   -0.5790   -0.9620 c3        1 19K     -0.137400
      3 N1         -6.0710   -1.6330    0.1930 nc        1 19K     -0.646000
      4 O1          4.7950   -2.6430   -0.7880 o         1 19K     -0.202500
      5 C2         -6.6130   -0.6210   -0.4900 cd        1 19K      0.421700
      6 N2         -0.4690    1.7060    0.3120 nb        1 19K     -0.738000
      7 C3         -4.7360   -1.3580    0.4800 cc        1 19K      0.425600
      8 N3          0.4110   -0.4640    0.9210 nh        1 19K     -0.703300
      9 C4         -3.9160   -2.3340    1.2350 c3        1 19K     -0.130400
     10 N4          5.8830    0.8850    0.1610 nh        1 19K     -0.637000
     11 C5         -4.2900   -0.1180    0.0010 cd        1 19K     -0.296900
     12 N5          4.7690   -1.4830   -1.1020 no        1 19K      0.322200
     13 C6         -2.9750    0.4800    0.1240 ca        1 19K      0.582800
     14 N6         -1.9020   -0.2940    0.4140 nb        1 19K     -0.741000
     15 C7         -2.8480    1.8790   -0.0860 ca        1 19K     -0.415600
     16 C8         -1.5630    2.4270    0.0190 ca        1 19K      0.466200
     17 C9         -0.6750    0.3500    0.5160 ca        1 19K      0.866900
     18 C10         1.7470   -0.0710    0.6720 ca        1 19K      0.120600
     19 C11         2.2930    1.0880    1.2630 ca        1 19K     -0.062000
     20 C12         3.6270    1.4130    1.0730 ca        1 19K     -0.162000
     21 C13         4.4930    0.6120    0.2970 ca        1 19K      0.154600
     22 C14         6.2430    1.6060   -1.0430 c3        1 19K      0.160100
     23 C15         6.5090    1.4190    1.3520 c3        1 19K      0.160100
     24 C16         3.9330   -0.5520   -0.2860 ca        1 19K     -0.142200
     25 C17         2.5870   -0.8910   -0.1050 ca        1 19K     -0.117000
     26 H1         -8.2190   -1.4360   -1.6530 hc        1 19K      0.063367
     27 H1A        -8.7200   -0.6520   -0.0970 hc        1 19K      0.063367
     28 H1B        -8.2100    0.3770   -1.5070 hc        1 19K      0.063367
     29 HN3         0.2500   -1.4480    0.8190 hn        1 19K      0.440800
     30 H4         -3.1320   -2.7620    0.5600 hc        1 19K      0.062367
     31 H4A        -3.4080   -1.8210    2.0900 hc        1 19K      0.062367
     32 H4B        -4.5350   -3.1730    1.6390 hc        1 19K      0.062367
     33 H7         -3.7190    2.5020   -0.3190 ha        1 19K      0.158000
     34 H8         -1.3870    3.5080   -0.1410 h4        1 19K      0.030100
     35 H11         1.6620    1.7470    1.8820 ha        1 19K      0.165000
     36 H12         4.0220    2.3240    1.5520 ha        1 19K      0.149000
     37 H14         7.3520    1.5050   -1.1830 h1        1 19K      0.044867
     38 H14A        5.7240    1.1540   -1.9280 h1        1 19K      0.044867
     39 H14B        5.9830    2.6980   -0.9850 h1        1 19K      0.044867
     40 H15         6.2920    2.5100    1.5180 h1        1 19K      0.044867
     41 H15A        6.1660    0.8420    2.2500 h1        1 19K      0.044867
     42 H15B        7.6180    1.2900    1.2370 h1        1 19K      0.044867
     43 H17         2.1970   -1.8180   -0.5620 ha        1 19K      0.161000
     44 O2          5.3540   -1.0680   -2.0630 o         1 19K     -0.202500
@<TRIPOS>BOND
     1    1    5 1   
     2    1   11 1   
     3    2    5 1   
     4    2   26 1   
     5    2   27 1   
     6    2   28 1   
     7    3    5 2   
     8    3    7 1   
     9    4   12 1   
    10    6   16 ar  
    11    6   17 ar  
    12    7    9 1   
    13    7   11 2   
    14    8   17 1   
    15    8   18 1   
    16    8   29 1   
    17    9   30 1   
    18    9   31 1   
    19    9   32 1   
    20   10   21 1   
    21   10   22 1   
    22   10   23 1   
    23   11   13 1   
    24   12   24 1   
    25   12   44 1   
    26   13   14 ar  
    27   13   15 ar  
    28   14   17 ar  
    29   15   16 ar  
    30   15   33 1   
    31   16   34 1   
    32   18   19 ar  
    33   18   25 ar  
    34   19   20 ar  
    35   19   35 1   
    36   20   21 ar  
    37   20   36 1   
    38   21   24 ar  
    39   22   37 1   
    40   22   38 1   
    41   22   39 1   
    42   23   40 1   
    43   23   41 1   
    44   23   42 1   
    45   24   25 ar  
    46   25   43 1   
@<TRIPOS>SUBSTRUCTURE
     1 19K         1 TEMP              0 ****  ****    0 ROOT
