@<TRIPOS>MOLECULE
19K
   44    45     1     0     0
SMALL
bcc


@<TRIPOS>ATOM
      1 S           0.1860    1.3700    0.7050 ss        1 19K      0.498000
      2 C1          2.5010    1.9280   -0.7210 c3        1 19K     -0.162000
      3 N1          2.5130    0.4200    1.2660 n2        1 19K     -0.122000
      4 O1         -4.6690    2.7880    9.2980 o         1 19K     -0.479200
      5 C2          1.8650    1.2160    0.4080 c2        1 19K     -0.248000
      6 N2         -3.1860   -1.4920    4.0680 n2        1 19K     -0.187000
      7 C3          1.6250   -0.0910    2.2070 c2        1 19K      0.010000
      8 N3         -1.9330   -0.9300    6.0100 n3        1 19K     -0.179000
      9 C4          2.0890   -1.0050    3.2750 c3        1 19K     -0.158000
     10 N4         -6.4750   -0.3250    9.3740 n3        1 19K     -0.240000
     11 C5          0.2990    0.3390    2.0360 c2        1 19K     -0.424000
     12 N5         -4.8850    2.0370    8.3870 no        1 19K      0.812400
     13 C6         -0.8720    0.0100    2.8150 c2        1 19K      0.076000
     14 N6         -0.8360   -0.7170    3.8830 n2        1 19K     -0.206000
     15 C7         -3.5840   -1.9490    1.6000 c1        1 19K     -0.257000
     16 C8         -3.3210   -1.7030    2.7480 c1        1 19K     -0.090000
     17 C9         -2.0590   -1.0150    4.5930 c2        1 19K      0.177000
     18 C10        -3.1030   -0.7320    6.7960 c2        1 19K     -0.124000
     19 C11        -4.1070   -1.7120    6.8700 c2        1 19K      0.112000
     20 C12        -5.2200   -1.5610    7.7130 c2        1 19K     -0.322000
     21 C13        -5.4100   -0.4430    8.5290 c2        1 19K      0.137000
     22 C14        -6.5630    0.6860   10.3960 c3        1 19K     -0.097000
     23 C15        -7.5450   -1.2920    9.3190 c3        1 19K     -0.097000
     24 C16        -4.3090    0.6120    8.5000 c3        1 19K     -0.078000
     25 C17        -3.2480    0.4560    7.5000 c1        1 19K     -0.190000
     26 H1          1.7390    2.5230   -1.2820 hc        1 19K      0.102667
     27 H1A         2.9780    1.1980   -1.4240 hc        1 19K      0.102667
     28 H1B         3.2960    2.6220   -0.3470 hc        1 19K      0.102667
     29 HN3        -1.1950   -0.3110    6.3010 hn        1 19K      0.230000
     30 H4          1.8950   -0.5400    4.2750 hc        1 19K      0.104667
     31 H4A         3.1810   -1.2270    3.1890 hc        1 19K      0.104667
     32 H4B         1.5200   -1.9680    3.2180 hc        1 19K      0.104667
     33 H7         -1.8150    0.4500    2.4090 h4        1 19K      0.125000
     34 H8         -3.8250   -2.1710    0.5950 ha        1 19K      0.228000
     35 H11        -4.0580   -2.6280    6.2520 ha        1 19K      0.168000
     36 H12        -5.9630   -2.3750    7.7010 ha        1 19K      0.148000
     37 H14        -7.1710    0.2960   11.2570 h1        1 19K      0.100833
     38 H14A       -7.0620    1.6090    9.9930 h1        1 19K      0.100833
     39 H14B       -5.5450    0.9580   10.7850 h1        1 19K      0.100833
     40 H15        -8.4190   -0.9270    9.9190 h1        1 19K      0.100833
     41 H15A       -7.8780   -1.4380    8.2560 h1        1 19K      0.100833
     42 H15B       -7.2020   -2.2790    9.7330 h1        1 19K      0.100833
     43 H17        -3.7610    0.5670    9.5030 h1        1 19K      0.192000
     44 O2         -5.5410    2.3370    7.4360 o         1 19K     -0.479200
@<TRIPOS>BOND
     1    1    5 1   
     2    1   11 1   
     3    2    5 1   
     4    2   26 1   
     5    2   27 1   
     6    2   28 1   
     7    3    5 1   
     8    3    7 1   
     9    4   12 2   
    10    6   16 1   
    11    6   17 1   
    12    7    9 1   
    13    7   11 1   
    14    8   17 1   
    15    8   18 1   
    16    8   29 1   
    17    9   30 1   
    18    9   31 1   
    19    9   32 1   
    20   10   21 1   
    21   10   22 1   
    22   10   23 1   
    23   11   13 1   
    24   12   24 1   
    25   12   44 2   
    26   13   14 1   
    27   13   33 1   
    28   14   17 1   
    29   15   16 1   
    30   15   34 1   
    31   18   19 1   
    32   18   25 1   
    33   19   20 1   
    34   19   35 1   
    35   20   21 1   
    36   20   36 1   
    37   21   24 1   
    38   22   37 1   
    39   22   38 1   
    40   22   39 1   
    41   23   40 1   
    42   23   41 1   
    43   23   42 1   
    44   24   25 1   
    45   24   43 1   
@<TRIPOS>SUBSTRUCTURE
     1 19K         1 TEMP              0 ****  ****    0 ROOT
