@<TRIPOS>MOLECULE
19K
   44    40     1     0     0
SMALL
bcc


@<TRIPOS>ATOM
      1 S          -1.1240   -4.1240   -2.0150 ss        1 19K      0.485000
      2 C1         -0.5920   -6.5850   -2.6840 c3        1 19K     -0.161000
      3 N1         -2.7740   -5.2830   -3.3220 n2        1 19K     -0.120000
      4 O1          3.3830    3.8020   -1.5970 o         1 19K     -0.298200
      5 C2         -1.4700   -5.4220   -2.8100 c2        1 19K     -0.250000
      6 N2         -1.1500   -0.7020    1.0810 n1        1 19K     -0.212000
      7 C3         -3.3380   -3.8760   -2.8790 c1        1 19K      0.003000
      8 N3         -0.8240    1.1220   -0.3820 n3        1 19K     -0.224000
      9 C4         -4.7980   -3.6850   -3.3710 c2        1 19K     -0.154000
     10 N4          2.8070    4.2100    2.5900 n3        1 19K     -0.239000
     11 C5         -2.3260   -3.2070   -2.0980 c1        1 19K     -0.394000
     12 N5          3.4790    3.5490   -0.4480 n2        1 19K      0.468400
     13 C6         -1.9510   -2.2860   -0.9660 c1        1 19K      0.147000
     14 N6         -1.3480   -1.1000   -1.2300 n2        1 19K     -0.215000
     15 C7         -2.1490   -2.6710    0.3070 c1        1 19K     -0.285000
     16 C8         -1.7390   -1.8600    1.3410 c2        1 19K      0.001000
     17 C9         -0.9490   -0.3100   -0.2200 c1        1 19K      0.148000
     18 C10         0.2210    1.8390    0.3150 c2        1 19K      0.039000
     19 C11         0.0490    2.1890    1.6710 c2        1 19K     -0.062000
     20 C12         1.0200    2.9810    2.3260 c1        1 19K     -0.162000
     21 C13         2.1510    3.4190    1.6290 c1        1 19K      0.073000
     22 C14         2.7810    5.6170    2.4860 c3        1 19K     -0.116000
     23 C15         3.5520    3.5920    3.6370 c3        1 19K     -0.116000
     24 C16         2.3210    3.0720    0.2870 c1        1 19K     -0.097000
     25 C17         1.3380    2.2700   -0.3750 c2        1 19K     -0.117000
     26 H1          0.2170   -6.4420   -3.2170 hc        1 19K      0.102667
     27 H1A        -1.0780   -7.4190   -3.0210 hc        1 19K      0.102667
     28 H1B        -0.3430   -6.7080   -1.7280 hc        1 19K      0.102667
     29 HN3        -1.3790    1.5700   -0.9660 hn        1 19K      0.236000
     30 H4         -5.3320   -4.3620   -3.0250 ha        1 19K      0.101667
     31 H4A        -4.8200   -3.7200   -4.3370 ha        1 19K      0.101667
     32 H4B        -5.1400   -2.8000   -3.0630 ha        1 19K      0.101667
     33 H7         -2.5650   -3.4950    0.4920 DU        1 19K      0.158000
     34 H8         -1.8820   -2.1380    2.2650 h4        1 19K      0.167000
     35 H11        -0.7350    1.8860    2.1550 ha        1 19K      0.165000
     36 H12         0.8960    3.2320    3.2950 ha        1 19K      0.149000
     37 H14         2.9090    6.0150    3.3830 h1        1 19K      0.084167
     38 H14A        1.8800    5.9160    2.1060 h1        1 19K      0.084167
     39 H14B        3.5010    5.9140    1.8920 h1        1 19K      0.084167
     40 H15         4.3680    4.1400    3.8350 h1        1 19K      0.084167
     41 H15A        3.8270    2.6780    3.3570 h1        1 19K      0.084167
     42 H15B        2.9840    3.5310    4.4580 h1        1 19K      0.084167
     43 H17         1.4430    2.0500   -1.3040 ha        1 19K      0.161000
     44 O2          4.6810    3.5990    0.1500 o         1 19K     -0.298200
@<TRIPOS>BOND
     1    1    5 1   
     2    1   11 1   
     3    2    5 1   
     4    2   26 1   
     5    2   27 1   
     6    2   28 1   
     7    3    5 1   
     8    3    7 1   
     9    4   12 2   
    10    6   16 1   
    11    7   11 1   
    12    8   17 1   
    13    8   18 1   
    14    8   29 1   
    15    9   30 1   
    16    9   31 1   
    17    9   32 1   
    18   10   21 1   
    19   10   22 1   
    20   10   23 1   
    21   12   44 2   
    22   13   14 1   
    23   13   15 1   
    24   14   17 1   
    25   15   16 1   
    26   16   34 1   
    27   18   19 1   
    28   18   25 1   
    29   19   20 1   
    30   19   35 1   
    31   20   36 1   
    32   21   24 1   
    33   22   37 1   
    34   22   38 1   
    35   22   39 1   
    36   23   40 1   
    37   23   41 1   
    38   23   42 1   
    39   24   25 1   
    40   25   43 1   
@<TRIPOS>SUBSTRUCTURE
     1 19K         1 TEMP              0 ****  ****    0 ROOT
