@<TRIPOS>MOLECULE
19K
   44    46     1     0     0
SMALL
bcc


@<TRIPOS>ATOM
      1 S           0.6100   -1.0170    0.3990 ss        1 19K      0.506000
      2 C1          2.8760   -0.3360   -1.0490 c3        1 19K     -0.164000
      3 N1          2.2670    0.8360    1.0650 n2        1 19K     -0.126000
      4 O1         -3.8240    0.8540   11.0600 o         1 19K     -0.478200
      5 C2          2.0220   -0.0920    0.1330 c2        1 19K     -0.247000
      6 N2         -3.2360   -1.1770    4.0210 n2        1 19K     -0.290000
      7 C3          1.2760    0.8080    2.0410 c2        1 19K      0.022000
      8 N3         -2.5820    0.5670    5.5600 n3        1 19K     -0.154000
      9 C4          1.3200    1.7440    3.1870 c3        1 19K     -0.158000
     10 N4         -6.5670   -0.7390    9.3800 n3        1 19K     -0.228000
     11 C5          0.2820   -0.1620    1.8210 c2        1 19K     -0.433000
     12 N5         -4.2600    1.1440    9.9800 no        1 19K      0.811400
     13 C6         -0.8840   -0.4690    2.6220 c2        1 19K      0.151000
     14 N6         -1.1580    0.2020    3.7180 n2        1 19K     -0.258000
     15 C7         -1.7460   -1.5970    2.1100 c3        1 19K     -0.265000
     16 C8         -2.9630   -1.8530    2.9390 c1        1 19K     -0.130000
     17 C9         -2.3480   -0.1720    4.4380 c2        1 19K      0.216000
     18 C10        -3.6010    0.2760    6.5060 c2        1 19K     -0.113000
     19 C11        -4.9150   -0.0580    6.1270 c2        1 19K      0.122000
     20 C12        -5.8900   -0.3660    7.0840 c2        1 19K     -0.321000
     21 C13        -5.6400   -0.3460    8.4620 c2        1 19K      0.141000
     22 C14        -6.2770   -0.8720   10.7850 c3        1 19K     -0.101000
     23 C15        -7.8960   -1.1000    8.9460 c3        1 19K     -0.101000
     24 C16        -4.2290    0.0520    8.8930 c3        1 19K     -0.073000
     25 C17        -3.2910    0.4550    7.8440 c1        1 19K     -0.196000
     26 H1          2.9450    0.5880   -1.6790 hc        1 19K      0.104333
     27 H1A         2.4510   -1.1630   -1.6700 hc        1 19K      0.104333
     28 H1B         3.9120   -0.6190   -0.7320 hc        1 19K      0.104333
     29 HN3        -1.8770    1.1980    5.8960 hn        1 19K      0.268000
     30 H4          1.3550    1.1630    4.1440 hc        1 19K      0.105333
     31 H4A         0.3970    2.3770    3.1890 hc        1 19K      0.105333
     32 H4B         2.2140    2.4140    3.1430 hc        1 19K      0.105333
     33 H7         -1.1470   -2.5490    2.0830 hc        1 19K      0.148000
     34 H8         -2.0810   -1.3730    1.0610 hc        1 19K      0.148000
     35 H11        -5.2250   -0.0690    5.0640 ha        1 19K      0.178000
     36 H12        -6.8870   -0.6400    6.7030 ha        1 19K      0.153000
     37 H14        -6.9640   -1.6360   11.2400 h1        1 19K      0.104000
     38 H14A       -6.4310    0.1090   11.3120 h1        1 19K      0.104000
     39 H14B       -5.2200   -1.2160   10.9490 h1        1 19K      0.104000
     40 H15        -8.5560   -1.2750    9.8360 h1        1 19K      0.104000
     41 H15A       -8.3380   -0.2690    8.3310 h1        1 19K      0.104000
     42 H15B       -7.8610   -2.0360    8.3250 h1        1 19K      0.104000
     43 H17        -3.7390   -0.8650    9.3700 h1        1 19K      0.196000
     44 O2         -4.7360    2.2110    9.7320 o         1 19K     -0.478200
@<TRIPOS>BOND
     1    1    5 1   
     2    1   11 1   
     3    2    5 1   
     4    2   26 1   
     5    2   27 1   
     6    2   28 1   
     7    3    5 1   
     8    3    7 1   
     9    4   12 2   
    10    6   16 1   
    11    6   17 1   
    12    7    9 1   
    13    7   11 1   
    14    8   17 1   
    15    8   18 1   
    16    8   29 1   
    17    9   30 1   
    18    9   31 1   
    19    9   32 1   
    20   10   21 1   
    21   10   22 1   
    22   10   23 1   
    23   11   13 1   
    24   12   24 1   
    25   12   44 2   
    26   13   14 1   
    27   13   15 1   
    28   14   17 1   
    29   15   16 1   
    30   15   33 1   
    31   15   34 1   
    32   18   19 1   
    33   18   25 1   
    34   19   20 1   
    35   19   35 1   
    36   20   21 1   
    37   20   36 1   
    38   21   24 1   
    39   22   37 1   
    40   22   38 1   
    41   22   39 1   
    42   23   40 1   
    43   23   41 1   
    44   23   42 1   
    45   24   25 1   
    46   24   43 1   
@<TRIPOS>SUBSTRUCTURE
     1 19K         1 TEMP              0 ****  ****    0 ROOT
