@<TRIPOS>MOLECULE
19L
   54    57     1     0     0
SMALL
bcc


@<TRIPOS>ATOM
      1 C          -6.4660    1.1340    2.2910 cc        1 19L      0.854100
      2 N          -6.7580    2.1220    3.2610 nh        1 19L     -0.892800
      3 O          -8.0830   -1.4620    0.5940 o         1 19L     -0.508100
      4 C1         -7.1920   -0.6600    0.9010 c         1 19L      0.619000
      5 N1         -7.4030    0.2500    1.9520 nd        1 19L     -0.750100
      6 C2         -5.8650   -0.6180    0.1950 ca        1 19L      0.195500
      7 N2         -5.1770    1.1910    1.7110 na        1 19L     -0.832900
      8 O1         -1.8010   -1.3980   -2.4040 o         1 19L     -0.613100
      9 C3         -4.8900    0.3490    0.6310 ca        1 19L      0.540900
     10 N3         -3.6610    0.4560    0.0220 nb        1 19L     -0.657000
     11 C4         -3.4200   -0.3980   -0.9850 ca        1 19L      0.315500
     12 N4         -5.5930   -1.4660   -0.8280 nb        1 19L     -0.560000
     13 C5         -4.3920   -1.3630   -1.4060 ca        1 19L      0.290900
     14 C6         -2.0900   -0.3970   -1.7140 c         1 19L      0.565600
     15 N5         -1.3170    0.7320   -1.6570 n         1 19L     -0.492900
     16 C7          0.0400    0.7530   -2.1590 c3        1 19L     -0.030300
     17 C9          1.0890    0.6890   -1.0160 c         1 19L      0.627100
     18 O3          0.7360    0.6910    0.1830 o         1 19L     -0.637100
     19 C8          0.3040    2.0370   -2.9940 c3        1 19L      0.140400
     20 O2          0.2590    3.1880   -2.1900 oh        1 19L     -0.628800
     21 N6          2.4130    0.5530   -1.4010 n         1 19L     -0.483900
     22 C10         3.4440    1.2510   -0.6400 c3        1 19L     -0.069300
     23 C20         3.8510    2.6060   -1.3270 c         1 19L      0.904600
     24 O4          3.1420    3.0100   -2.2990 o         1 19L     -0.832300
     25 C11         4.6980    0.3970   -0.4360 c3        1 19L     -0.004200
     26 C12         4.5050   -0.7480    0.4630 cc        1 19L     -0.113400
     27 C13         3.3600   -1.0930    1.1780 cd        1 19L     -0.103100
     28 C15         5.5130   -1.7450    0.7770 ca        1 19L     -0.087800
     29 N7          3.5980   -2.2360    1.9580 na        1 19L     -0.201400
     30 C14         4.8970   -2.6780    1.7000 ca        1 19L     -0.053200
     31 C16         6.8360   -1.9430    0.3890 ca        1 19L     -0.079000
     32 C19         5.6120   -3.7770    2.1980 ca        1 19L     -0.157000
     33 C17         7.5300   -3.0370    0.8900 ca        1 19L     -0.174000
     34 C18         6.9250   -3.9390    1.7800 ca        1 19L     -0.127000
     35 O5          4.8420    3.2160   -0.8590 o         1 19L     -0.832300
     36 H1         -7.6280    1.9850    3.7320 hn        1 19L      0.420800
     37 H2         -6.0050    2.3670    3.8650 hn        1 19L      0.420800
     38 H20        -4.5350    1.9190    1.9420 hn        1 19L      0.470800
     39 H19        -4.1550   -2.0620   -2.2310 h4        1 19L      0.069100
     40 H18        -1.5100    1.4330   -0.9730 hn        1 19L      0.343500
     41 H14         0.1860   -0.1430   -2.8330 h1        1 19L      0.097700
     42 H15         1.2950    1.9400   -3.5120 h1        1 19L      0.059700
     43 H16        -0.5110    2.1590   -3.7580 h1        1 19L      0.059700
     44 H17         1.1740    3.3890   -1.9170 ho        1 19L      0.460000
     45 H13         2.5670    0.6620   -2.3870 hn        1 19L      0.291500
     46 H4          3.0260    1.5180    0.3750 h1        1 19L      0.073700
     47 H5          5.0810    0.0310   -1.4270 hc        1 19L      0.066700
     48 H6          5.4840    1.0850   -0.0120 hc        1 19L      0.066700
     49 H12         2.3840   -0.5940    1.1970 h4        1 19L      0.199000
     50 H11         2.9020   -2.7680    2.4040 hn        1 19L      0.285700
     51 H7          7.3140   -1.2360   -0.3040 ha        1 19L      0.136000
     52 H10         5.1470   -4.4860    2.8950 ha        1 19L      0.119000
     53 H8          8.5740   -3.2040    0.5900 ha        1 19L      0.116000
     54 H9          7.5070   -4.7950    2.1520 ha        1 19L      0.113000
@<TRIPOS>BOND
     1    1    2 1   
     2    1    5 2   
     3    1    7 1   
     4    2   36 1   
     5    2   37 1   
     6    3    4 2   
     7    4    5 1   
     8    4    6 1   
     9    6    9 ar  
    10    6   12 ar  
    11    7    9 1   
    12    7   38 1   
    13    8   14 2   
    14    9   10 ar  
    15   10   11 ar  
    16   11   13 ar  
    17   11   14 1   
    18   12   13 ar  
    19   13   39 1   
    20   14   15 1   
    21   15   16 1   
    22   15   40 1   
    23   16   17 1   
    24   16   19 1   
    25   16   41 1   
    26   17   18 2   
    27   17   21 1   
    28   19   20 1   
    29   19   42 1   
    30   19   43 1   
    31   20   44 1   
    32   21   22 1   
    33   21   45 1   
    34   22   23 1   
    35   22   25 1   
    36   22   46 1   
    37   23   24 1   
    38   23   35 1   
    39   25   26 1   
    40   25   47 1   
    41   25   48 1   
    42   26   27 2   
    43   26   28 1   
    44   27   29 1   
    45   27   49 1   
    46   28   30 ar  
    47   28   31 ar  
    48   29   30 1   
    49   29   50 1   
    50   30   32 ar  
    51   31   33 ar  
    52   31   51 1   
    53   32   34 ar  
    54   32   52 1   
    55   33   34 ar  
    56   33   53 1   
    57   34   54 1   
@<TRIPOS>SUBSTRUCTURE
     1 19L         1 TEMP              0 ****  ****    0 ROOT
