@<TRIPOS>MOLECULE
19L
   54    46     1     0     0
SMALL
bcc


@<TRIPOS>ATOM
      1 C           8.4460    0.0470   -4.2480 c1        1 19L      0.263000
      2 N           9.8140   -0.0880   -4.2010 n3        1 19L     -0.332000
      3 O           5.9730    1.0500   -6.4410 o         1 19L     -0.266000
      4 C1          6.4850    0.7370   -5.4480 c1        1 19L      0.330000
      5 N1          7.8340    0.4240   -5.4340 n2        1 19L     -0.322000
      6 C2          5.6810    0.6700   -4.1770 c1        1 19L     -0.154000
      7 N2          7.6570   -0.0240   -2.9970 n2        1 19L     -0.284000
      8 O1          3.8600   -0.1780    0.3680 o         1 19L     -0.388000
      9 C3          6.2840    0.3050   -3.0110 c2        1 19L      0.085000
     10 N3          5.5490    0.1450   -1.9020 n1        1 19L     -0.135000
     11 C4          4.2300    0.3440   -1.9420 c1        1 19L     -0.037000
     12 N4          4.3360    0.8720   -4.2160 n1        1 19L     -0.032000
     13 C5          3.6200    0.7160   -3.1340 c1        1 19L     -0.105000
     14 C6          3.3690    0.2420   -0.6110 c1        1 19L      0.360000
     15 N5          1.9600    0.4560   -0.6640 n2        1 19L     -0.326000
     16 C7          1.1980    0.5510    0.5590 c3        1 19L     -0.047000
     17 C9         -0.1920   -0.0300    0.3380 c2        1 19L      0.284000
     18 O3         -0.5100   -0.3950   -0.7270 o         1 19L     -0.404000
     19 C8          1.0720    2.0290    0.9830 c3        1 19L     -0.036000
     20 O2          2.3770    2.6130    1.1150 oh        1 19L     -0.334000
     21 N6         -1.1510   -0.0930    1.4450 n         1 19L     -0.314000
     22 C10        -2.5060   -0.2380    1.1840 c3        1 19L     -0.077000
     23 C20        -2.9850    0.9240    0.3360 c2        1 19L      0.330000
     24 O4         -3.0800    2.0220    0.8210 o         1 19L     -0.562500
     25 C11        -3.3100   -0.2680    2.5560 c3        1 19L     -0.080000
     26 C12        -4.8180   -0.4060    2.2740 c2        1 19L     -0.149000
     27 C13        -5.4370    0.3970    1.3360 c1        1 19L     -0.053000
     28 C15        -5.7900   -1.2260    2.8450 c1        1 19L     -0.066000
     29 N7         -6.7850    0.0770    1.3240 n2        1 19L     -0.226000
     30 C14        -6.9970   -0.9270    2.2600 c1        1 19L     -0.013000
     31 C16        -5.7120   -2.2400    3.8550 c1        1 19L     -0.085000
     32 C19        -8.1530   -1.6160    2.6530 c1        1 19L     -0.154000
     33 C17        -6.8370   -2.9110    4.2390 c1        1 19L     -0.154000
     34 C18        -8.0740   -2.6070    3.6420 c1        1 19L     -0.154000
     35 O5         -3.3340    0.7340   -0.8170 o         1 19L     -0.562500
     36 H1         10.2250   -0.4020   -3.4230 hn        1 19L      0.217500
     37 H2         10.3420    0.0500   -5.0080 hn        1 19L      0.217500
     38 H20         7.9960   -0.3500   -2.3140 hn        1 19L      0.265000
     39 H19         2.6040    0.8660   -3.1670 ha        1 19L      0.206000
     40 H18         1.5440    0.5560   -1.4710 hn        1 19L      0.268000
     41 H14         1.6600    0.0420    1.2750 h1        1 19L      0.122000
     42 H15         0.5760    2.0850    1.8910 h1        1 19L      0.107000
     43 H16         0.5860    2.4970    0.3350 h1        1 19L      0.107000
     44 H17         2.2960    3.4490    1.3560 ho        1 19L      0.214000
     45 H13        -0.8850    0.0490    2.2520 hn        1 19L      0.242000
     46 H4         -2.6490   -1.0420    0.7220 h1        1 19L      0.116000
     47 H5         -3.1460    0.5610    3.0500 hc        1 19L      0.084500
     48 H6         -3.0200   -0.9980    3.0660 hc        1 19L      0.084500
     49 H12        -5.0040    0.9730    0.7350 DU        1 19L      0.238000
     50 H11        -7.4240    0.4610    0.7940 DU        1 19L      0.238000
     51 H7         -5.1250   -2.6160    4.4670 ha        1 19L      0.130000
     52 H10        -9.0710   -1.6540    2.1940 ha        1 19L      0.117000
     53 H8         -6.8180   -3.6090    4.9350 ha        1 19L      0.112000
     54 H9         -8.7620   -3.0270    4.1470 ha        1 19L      0.112000
@<TRIPOS>BOND
     1    1    2 1   
     2    1    5 1   
     3    2   36 1   
     4    2   37 1   
     5    3    4 1   
     6    4    5 1   
     7    6    9 1   
     8    6   12 1   
     9    7    9 1   
    10    7   38 1   
    11    8   14 1   
    12    9   10 1   
    13   11   13 1   
    14   13   39 1   
    15   15   16 1   
    16   15   40 1   
    17   16   17 1   
    18   16   19 1   
    19   16   41 1   
    20   17   18 1   
    21   17   21 1   
    22   19   20 1   
    23   19   42 1   
    24   19   43 1   
    25   20   44 1   
    26   21   22 1   
    27   21   45 1   
    28   22   23 1   
    29   22   25 1   
    30   22   46 1   
    31   23   24 1   
    32   23   35 1   
    33   25   26 1   
    34   25   47 1   
    35   25   48 1   
    36   26   27 1   
    37   26   28 1   
    38   27   29 1   
    39   28   31 1   
    40   29   30 1   
    41   30   32 1   
    42   31   51 1   
    43   32   52 1   
    44   33   34 1   
    45   33   53 1   
    46   34   54 1   
@<TRIPOS>SUBSTRUCTURE
     1 19L         1 TEMP              0 ****  ****    0 ROOT
