@<TRIPOS>MOLECULE
19M
   66    57     1     0     0
SMALL
bcc


@<TRIPOS>ATOM
      1 C1          4.8450    6.4190    3.5280 c1        1 19M      0.264000
      2 N1          5.8240    7.0200    4.4400 n3        1 19M     -0.332000
      3 O1          1.4680    6.8750    2.4410 o         1 19M     -0.261000
      4 C2          2.5900    6.3960    2.5420 c1        1 19M      0.330000
      5 N2          3.5290    6.9820    3.4110 n2        1 19M     -0.320000
      6 C3          2.9700    5.1680    1.7300 c1        1 19M     -0.151000
      7 N3          5.2070    5.2490    2.7500 n2        1 19M     -0.285000
      8 O2          5.2130    1.1860   -0.4090 o         1 19M     -0.357000
      9 C4          4.2270    4.6310    1.8480 c2        1 19M      0.088000
     10 N4          4.5600    3.4780    1.1430 n1        1 19M     -0.137000
     11 C5          3.6430    2.8850    0.3400 c1        1 19M     -0.044000
     12 N5          2.0350    4.5630    0.9120 n1        1 19M     -0.029000
     13 C6          2.3620    3.4320    0.2210 c1        1 19M     -0.106000
     14 C7          4.0610    1.6050   -0.4740 c1        1 19M      0.346000
     15 N6          3.1060    0.9530   -1.3340 n2        1 19M     -0.322000
     16 C8          3.2870   -0.4380   -1.6830 c3        1 19M     -0.071000
     17 C9          2.1300   -0.9000   -2.5520 c1        1 19M      0.277000
     18 O3          1.9490   -0.3920   -3.6440 o         1 19M     -0.389000
     19 N7          1.2950   -1.9860   -2.1180 n2        1 19M     -0.324000
     20 C10        -0.0500   -2.0180   -2.4780 c3        1 19M     -0.016000
     21 C18        -0.9050   -1.4910   -1.3060 c2        1 19M      0.267000
     22 O4         -0.4610   -1.5320   -0.1470 o         1 19M     -0.384000
     23 C11        -0.4600   -3.4700   -2.8110 c3        1 19M     -0.135000
     24 C12         0.3120   -4.4440   -1.8960 c2        1 19M     -0.081000
     25 C13         1.6510   -4.7520   -2.1710 c2        1 19M     -0.139000
     26 C17        -0.3390   -5.0470   -0.7960 c1        1 19M     -0.102000
     27 C14         2.3480   -5.6650   -1.3490 c1        1 19M     -0.151000
     28 C16         0.3510   -5.9480    0.0150 c1        1 19M     -0.137833
     29 C15         1.7040   -6.2600   -0.2630 c1        1 19M     -0.137833
     30 N8         -2.2370   -0.9660   -1.5550 n         1 19M     -0.295000
     31 C19        -3.1700   -0.8740   -0.4980 c3        1 19M     -0.093000
     32 C27        -3.5360   -2.2510   -0.0330 c2        1 19M      0.319000
     33 O6         -3.2610   -2.6130    1.1480 o         1 19M     -0.567000
     34 C20        -4.4430   -0.1380   -0.9950 c3        1 19M     -0.109000
     35 C21        -5.3570    0.1850    0.2090 c1        1 19M     -0.053000
     36 C22        -5.8380   -0.8360    1.0060 c1        1 19M     -0.137833
     37 C26        -5.6870    1.5200    0.5050 c1        1 19M     -0.137000
     38 C23        -6.6470   -0.5420    2.0990 c1        1 19M     -0.137833
     39 C25        -6.4920    1.8070    1.5930 c1        1 19M     -0.137833
     40 C24        -6.9730    0.7810    2.3910 c1        1 19M     -0.137833
     41 O5         -4.2060   -3.0160   -0.7890 o         1 19M     -0.567000
     42 H2          6.6280    6.5960    4.5950 hn        1 19M      0.219500
     43 H3          5.6230    7.8020    4.8820 hn        1 19M      0.219500
     44 H4          6.0640    4.9090    2.8000 hn        1 19M      0.265000
     45 H1          1.7040    3.0150   -0.3800 ha        1 19M      0.205000
     46 H26         2.4350    1.4320   -1.7130 hn        1 19M      0.255000
     47 H5          3.3190   -0.9770   -0.8670 h1        1 19M      0.130000
     48 H6          4.1300   -0.5440   -2.1770 h1        1 19M      0.130000
     49 H25         1.6460   -2.6580   -1.6490 hn        1 19M      0.238000
     50 H17        -0.1890   -1.4500   -3.2680 h1        1 19M      0.135000
     51 H18        -0.2440   -3.6640   -3.7520 hc        1 19M      0.117500
     52 H19        -1.4330   -3.5800   -2.6660 hc        1 19M      0.117500
     53 H24         2.1080   -4.3300   -2.9420 ha        1 19M      0.122000
     54 H20        -1.2840   -4.8290   -0.6010 ha        1 19M      0.203000
     55 H23         3.3010   -5.8860   -1.5440 ha        1 19M      0.115000
     56 H21        -0.1080   -6.3720    0.7900 ha        1 19M      0.131333
     57 H22         2.1820   -6.8950    0.3010 ha        1 19M      0.131333
     58 H16        -2.4630   -0.6870   -2.3780 hn        1 19M      0.209000
     59 H8         -2.7730   -0.3750    0.2440 h1        1 19M      0.124000
     60 H9         -4.1840    0.7020   -1.4450 hc        1 19M      0.090500
     61 H10        -4.9290   -0.7150   -1.6310 hc        1 19M      0.090500
     62 H15        -5.6090   -1.7670    0.8010 ha        1 19M      0.131333
     63 H11        -5.3480    2.2430   -0.0570 ha        1 19M      0.120000
     64 H14        -6.9490   -1.2650    2.6940 ha        1 19M      0.131333
     65 H12        -6.7250    2.7490    1.8020 ha        1 19M      0.131333
     66 H13        -7.5060    0.9900    3.1930 ha        1 19M      0.131333
@<TRIPOS>BOND
     1    1    2 1   
     2    1    5 1   
     3    2   42 1   
     4    2   43 1   
     5    3    4 1   
     6    4    5 1   
     7    6    9 1   
     8    6   12 1   
     9    7    9 1   
    10    7   44 1   
    11    8   14 1   
    12    9   10 1   
    13   11   13 1   
    14   13   45 1   
    15   15   16 1   
    16   15   46 1   
    17   16   17 1   
    18   16   47 1   
    19   16   48 1   
    20   17   18 1   
    21   19   20 1   
    22   19   49 1   
    23   20   21 1   
    24   20   23 1   
    25   20   50 1   
    26   21   22 1   
    27   21   30 1   
    28   23   24 1   
    29   23   51 1   
    30   23   52 1   
    31   24   25 1   
    32   24   26 1   
    33   25   27 1   
    34   25   53 1   
    35   26   54 1   
    36   27   55 1   
    37   28   29 1   
    38   28   56 1   
    39   29   57 1   
    40   30   31 1   
    41   30   58 1   
    42   31   32 1   
    43   31   34 1   
    44   31   59 1   
    45   32   33 1   
    46   32   41 1   
    47   34   35 1   
    48   34   60 1   
    49   34   61 1   
    50   35   37 1   
    51   36   38 1   
    52   36   62 1   
    53   37   63 1   
    54   38   64 1   
    55   39   40 1   
    56   39   65 1   
    57   40   66 1   
@<TRIPOS>SUBSTRUCTURE
     1 19M         1 TEMP              0 ****  ****    0 ROOT
