@<TRIPOS>MOLECULE
19M
   66    69     1     0     0
SMALL
bcc


@<TRIPOS>ATOM
      1 C1         -8.2070    1.3480    0.8050 cc        1 19M      0.857100
      2 N1         -8.4670    2.0070    2.0280 nh        1 19M     -0.893800
      3 O1         -9.9110    0.3900   -2.0970 o         1 19M     -0.500100
      4 C2         -8.9670    0.5840   -1.3200 c         1 19M      0.619000
      5 N2         -9.2080    1.1160   -0.0420 nd        1 19M     -0.746100
      6 C3         -7.5440    0.2610   -1.6870 ca        1 19M      0.201500
      7 N3         -6.8540    1.0140    0.5510 na        1 19M     -0.834900
      8 O2         -3.3160   -1.4920   -3.4330 o         1 19M     -0.594100
      9 C4         -6.5120    0.5180   -0.7110 ca        1 19M      0.543900
     10 N4         -5.1890    0.2680   -0.9850 nb        1 19M     -0.663000
     11 C5         -4.9200   -0.2440   -2.1980 ca        1 19M      0.308500
     12 N5         -7.2390   -0.2550   -2.9010 nb        1 19M     -0.555000
     13 C6         -5.9490   -0.5110   -3.1540 ca        1 19M      0.293900
     14 C7         -3.5010   -0.5920   -2.5900 c         1 19M      0.562600
     15 N6         -2.4810    0.1690   -2.0670 n         1 19M     -0.517900
     16 C8         -1.1050   -0.2140   -2.2500 c3        1 19M      0.000000
     17 C9         -0.3030   -0.2020   -0.9340 c         1 19M      0.636100
     18 O3         -0.7640    0.3430    0.0940 o         1 19M     -0.637100
     19 N7          0.9120   -0.8360   -0.9610 n         1 19M     -0.528900
     20 C10         1.8690   -0.7140    0.1210 c3        1 19M      0.014700
     21 C18         3.3110   -0.5140   -0.4320 c         1 19M      0.635100
     22 O4          3.5150   -0.4960   -1.6660 o         1 19M     -0.640100
     23 C11         1.8680   -1.9400    1.0640 c3        1 19M     -0.060100
     24 C12         1.7800   -1.5210    2.4910 ca        1 19M     -0.093300
     25 C13         2.8230   -1.8270    3.3750 ca        1 19M     -0.125500
     26 C17         0.6480   -0.8440    2.9610 ca        1 19M     -0.125500
     27 C14         2.7190   -1.4700    4.7200 ca        1 19M     -0.144000
     28 C16         0.5520   -0.4900    4.3060 ca        1 19M     -0.144000
     29 C15         1.5860   -0.8060    5.1880 ca        1 19M     -0.143000
     30 N8          4.2860   -0.2740    0.5130 n         1 19M     -0.478900
     31 C19         5.6730   -0.6120    0.2260 c3        1 19M     -0.064300
     32 C27         6.0940   -2.0020    0.8370 c         1 19M      0.906600
     33 O6          5.2250   -2.6640    1.4750 o         1 19M     -0.831800
     34 C20         6.6480    0.4450    0.7600 c3        1 19M     -0.038100
     35 C21         6.5840    1.7370    0.0280 ca        1 19M     -0.042300
     36 C22         6.9880    1.8100   -1.3120 ca        1 19M     -0.128000
     37 C26         6.1430    2.9020    0.6680 ca        1 19M     -0.128000
     38 C23         6.9520    3.0240   -1.9950 ca        1 19M     -0.136500
     39 C25         6.1090    4.1160   -0.0170 ca        1 19M     -0.136500
     40 C24         6.5150    4.1800   -1.3490 ca        1 19M     -0.154000
     41 O5          7.2790   -2.3670    0.6350 o         1 19M     -0.831800
     42 H2         -9.4380    2.1300    2.2290 hn        1 19M      0.424300
     43 H3         -7.9250    1.7050    2.8070 hn        1 19M      0.424300
     44 H4         -6.1280    1.2770    1.1820 hn        1 19M      0.469800
     45 H1         -5.6960   -0.9530   -4.1360 h4        1 19M      0.068100
     46 H26        -2.6590    0.7360   -1.2630 hn        1 19M      0.343500
     47 H5         -1.0500   -1.2310   -2.7350 h1        1 19M      0.086700
     48 H6         -0.6200    0.5360   -2.9410 h1        1 19M      0.086700
     49 H25         1.2900   -1.1260   -1.8380 hn        1 19M      0.332500
     50 H17         1.5940    0.2080    0.7220 h1        1 19M      0.094700
     51 H18         0.9950   -2.6080    0.8370 hc        1 19M      0.083700
     52 H19         2.8020   -2.5500    0.9010 hc        1 19M      0.083700
     53 H24         3.7310   -2.3420    2.9980 ha        1 19M      0.176500
     54 H20        -0.1590   -0.5800    2.2570 ha        1 19M      0.176500
     55 H23         3.5410   -1.7130    5.4090 ha        1 19M      0.121500
     56 H21        -0.3380    0.0420    4.6690 ha        1 19M      0.121500
     57 H22         1.5080   -0.5280    6.2480 ha        1 19M      0.114000
     58 H16         4.0310   -0.5340    1.4500 hn        1 19M      0.304500
     59 H8          5.8020   -0.6900   -0.8930 h1        1 19M      0.078700
     60 H9          6.4680    0.6090    1.8550 hc        1 19M      0.065200
     61 H10         7.6780    0.0010    0.6490 hc        1 19M      0.065200
     62 H15         7.3260    0.8950   -1.8230 ha        1 19M      0.134500
     63 H11         5.8140    2.8550    1.7160 ha        1 19M      0.134500
     64 H14         7.2670    3.0690   -3.0480 ha        1 19M      0.115500
     65 H12         5.7580    5.0230    0.4940 ha        1 19M      0.115500
     66 H13         6.4860    5.1360   -1.8890 ha        1 19M      0.113000
@<TRIPOS>BOND
     1    1    2 1   
     2    1    5 2   
     3    1    7 1   
     4    2   42 1   
     5    2   43 1   
     6    3    4 2   
     7    4    5 1   
     8    4    6 1   
     9    6    9 ar  
    10    6   12 ar  
    11    7    9 1   
    12    7   44 1   
    13    8   14 2   
    14    9   10 ar  
    15   10   11 ar  
    16   11   13 ar  
    17   11   14 1   
    18   12   13 ar  
    19   13   45 1   
    20   14   15 1   
    21   15   16 1   
    22   15   46 1   
    23   16   17 1   
    24   16   47 1   
    25   16   48 1   
    26   17   18 2   
    27   17   19 1   
    28   19   20 1   
    29   19   49 1   
    30   20   21 1   
    31   20   23 1   
    32   20   50 1   
    33   21   22 2   
    34   21   30 1   
    35   23   24 1   
    36   23   51 1   
    37   23   52 1   
    38   24   25 ar  
    39   24   26 ar  
    40   25   27 ar  
    41   25   53 1   
    42   26   28 ar  
    43   26   54 1   
    44   27   29 ar  
    45   27   55 1   
    46   28   29 ar  
    47   28   56 1   
    48   29   57 1   
    49   30   31 1   
    50   30   58 1   
    51   31   32 1   
    52   31   34 1   
    53   31   59 1   
    54   32   33 1   
    55   32   41 1   
    56   34   35 1   
    57   34   60 1   
    58   34   61 1   
    59   35   36 ar  
    60   35   37 ar  
    61   36   38 ar  
    62   36   62 1   
    63   37   39 ar  
    64   37   63 1   
    65   38   40 ar  
    66   38   64 1   
    67   39   40 ar  
    68   39   65 1   
    69   40   66 1   
@<TRIPOS>SUBSTRUCTURE
     1 19M         1 TEMP              0 ****  ****    0 ROOT
