@<TRIPOS>MOLECULE
19N
   29    28     1     0     0
SMALL
bcc


@<TRIPOS>ATOM
      1 N1          0.1430   -0.7420    0.2490 nh        1 19N     -0.933800
      2 C1          1.3430    0.0610    0.0950 c2        1 19N      0.738100
      3 N2          1.7500    0.9110    1.0110 n2        1 19N     -0.867100
      4 N3          2.0410   -0.0950   -1.1370 nh        1 19N     -0.800200
      5 C2          3.4050    0.4000   -1.2400 c3        1 19N      0.178800
      6 C3          4.0420    0.0400   -2.5820 c3        1 19N     -0.086400
      7 C4          5.5390    0.2800   -2.5500 c3        1 19N     -0.076400
      8 C5          6.1440    0.0280   -3.9220 c3        1 19N     -0.034400
      9 C6          7.6470   -0.1180   -3.8730 c3        1 19N     -0.038700
     10 N4          8.3470    0.5970   -4.9040 n3        1 19N     -0.886800
     11 P           8.0080   -1.9360   -4.0460 p5        1 19N      1.203700
     12 O1          7.7470   -2.4170   -2.6370 o         1 19N     -0.945500
     13 O3          7.0440   -2.4720   -5.0760 o         1 19N     -0.945500
     14 O2          9.4630   -1.9350   -4.4680 o         1 19N     -0.945500
     15 H1         -0.6480   -0.1800    0.4820 hn        1 19N      0.366800
     16 H2         -0.0640   -1.3230   -0.5360 hn        1 19N      0.366800
     17 H3          1.1310    1.0110    1.7860 hn        1 19N      0.366400
     18 H4          1.9640   -1.0220   -1.5130 hn        1 19N      0.392800
     19 H5          4.0480   -0.0070   -0.4060 h1        1 19N      0.048700
     20 H6          3.3730    1.5200   -1.1270 h1        1 19N      0.048700
     21 H7          3.5720    0.6500   -3.3960 hc        1 19N      0.039200
     22 H8          3.8690   -1.0420   -2.8300 hc        1 19N      0.039200
     23 H9          6.0110   -0.4130   -1.8020 hc        1 19N      0.037700
     24 H10         5.7450    1.3310   -2.2210 hc        1 19N      0.037700
     25 H11         5.8140    0.8610   -4.6010 hc        1 19N      0.032700
     26 H12         5.7270   -0.9310   -4.3500 hc        1 19N      0.032700
     27 H13         8.0210    0.1450   -2.8490 h1        1 19N      0.004700
     28 H14         9.0700   -0.0150   -5.2610 hn        1 19N      0.312300
     29 H15         8.8080    1.4020   -4.5140 hn        1 19N      0.312300
@<TRIPOS>BOND
     1    1    2 1   
     2    1   15 1   
     3    1   16 1   
     4    2    3 2   
     5    2    4 1   
     6    3   17 1   
     7    4    5 1   
     8    4   18 1   
     9    5    6 1   
    10    5   19 1   
    11    5   20 1   
    12    6    7 1   
    13    6   21 1   
    14    6   22 1   
    15    7    8 1   
    16    7   23 1   
    17    7   24 1   
    18    8    9 1   
    19    8   25 1   
    20    8   26 1   
    21    9   10 1   
    22    9   11 1   
    23    9   27 1   
    24   10   28 1   
    25   10   29 1   
    26   11   12 1   
    27   11   13 1   
    28   11   14 1   
@<TRIPOS>SUBSTRUCTURE
     1 19N         1 TEMP              0 ****  ****    0 ROOT
