@<TRIPOS>MOLECULE
19N
   29    28     1     0     0
SMALL
bcc


@<TRIPOS>ATOM
      1 N1         -3.2140   -1.2740   -1.5460 nh        1 19N     -0.918800
      2 C1         -3.5810   -0.3360   -0.4820 c2        1 19N      0.761100
      3 N2         -4.7520   -0.3950    0.1240 n2        1 19N     -0.943100
      4 N3         -2.6490    0.6870   -0.1840 nh        1 19N     -0.844200
      5 C2         -2.7120    1.3300    1.1020 c3        1 19N      0.220800
      6 C3         -1.4340    2.0910    1.4680 c3        1 19N     -0.083400
      7 C4         -0.2180    1.1880    1.5610 c3        1 19N     -0.075400
      8 C5          0.7240    1.3470    0.3780 c3        1 19N     -0.023400
      9 C6          1.5840    0.1240    0.1570 c3        1 19N     -0.069700
     10 N4          3.0030    0.3970   -0.0280 n3        1 19N     -0.899800
     11 P           1.0200   -0.6710   -1.3740 p5        1 19N      1.225700
     12 O1         -0.4790   -0.8580   -1.1710 o         1 19N     -0.950833
     13 O3          1.3670    0.3430   -2.4340 o         1 19N     -0.950833
     14 O2          1.8260   -1.9440   -1.3990 o         1 19N     -0.950833
     15 H1         -2.3850   -1.7810   -1.2410 hn        1 19N      0.396800
     16 H2         -2.9160   -0.7510   -2.3530 hn        1 19N      0.396800
     17 H3         -5.3430   -1.1140   -0.2330 hn        1 19N      0.355400
     18 H4         -1.6960    0.4520   -0.4950 hn        1 19N      0.505800
     19 H5         -3.5740    2.0590    1.0910 h1        1 19N      0.007200
     20 H6         -2.9250    0.5900    1.9290 h1        1 19N      0.007200
     21 H7         -1.2520    2.9070    0.7210 hc        1 19N      0.016700
     22 H8         -1.6210    2.5850    2.4580 hc        1 19N      0.016700
     23 H9          0.3410    1.4190    2.5060 hc        1 19N      0.028200
     24 H10        -0.5500    0.1180    1.6350 hc        1 19N      0.028200
     25 H11         0.1350    1.5220   -0.5660 hc        1 19N      0.024200
     26 H12         1.3340    2.2770    0.5490 hc        1 19N      0.024200
     27 H13         1.4830   -0.5910    1.0100 h1        1 19N      0.032700
     28 H14         3.4060   -0.4920   -0.2900 hn        1 19N      0.329800
     29 H15         3.0650    0.9740   -0.8550 hn        1 19N      0.329800
@<TRIPOS>BOND
     1    1    2 1   
     2    1   15 1   
     3    1   16 1   
     4    2    3 2   
     5    2    4 1   
     6    3   17 1   
     7    4    5 1   
     8    4   18 1   
     9    5    6 1   
    10    5   19 1   
    11    5   20 1   
    12    6    7 1   
    13    6   21 1   
    14    6   22 1   
    15    7    8 1   
    16    7   23 1   
    17    7   24 1   
    18    8    9 1   
    19    8   25 1   
    20    8   26 1   
    21    9   10 1   
    22    9   11 1   
    23    9   27 1   
    24   10   28 1   
    25   10   29 1   
    26   11   12 1   
    27   11   13 1   
    28   11   14 1   
@<TRIPOS>SUBSTRUCTURE
     1 19N         1 TEMP              0 ****  ****    0 ROOT
