@<TRIPOS>MOLECULE
19N
   32    31     1     0     0
SMALL
bcc


@<TRIPOS>ATOM
      1 N1          0.0000    0.0000    0.0000 nz        1 19N      0.242400
      2 C1          1.3740    0.0000    0.0000 c2        1 19N     -0.263900
      3 N2          2.0260    0.0000    1.1290 n2        1 19N     -0.654100
      4 N3          2.0630    0.0000   -1.1900 ny        1 19N      0.270000
      5 C2          3.5270    0.0000   -1.1890 c3        1 19N     -0.037200
      6 C3          4.0380    0.0010   -2.6320 c3        1 19N     -0.028400
      7 C4          5.5680    0.0000   -2.6310 c3        1 19N     -0.045400
      8 C5          6.0780    0.0010   -4.0740 c3        1 19N      0.017600
      9 C6          7.6090    0.0000   -4.0730 c3        1 19N     -0.156700
     10 N4          8.0990    0.0000   -5.4580 nz        1 19N      0.142400
     11 P           8.2160   -1.4890   -3.2130 p5        1 19N      0.543700
     12 O1          7.7890   -1.4230   -1.6620 o         1 19N     -0.466167
     13 O3          7.6250   -2.6940   -3.8370 o         1 19N     -0.466167
     14 O2          9.8210   -1.5560   -3.3260 o         1 19N     -0.466167
     15 H1         -0.3340   -0.8180    0.4710 hn        1 19N      0.188133
     16 H2         -0.3340    0.8160    0.4730 hn        1 19N      0.188133
     17 H3          1.5260   -0.0000    1.9960 hn        1 19N      0.351400
     18 H4          1.7720    0.8140   -1.6950 hn        1 19N      0.169800
     19 H5          3.8880    0.8850   -0.6780 hx        1 19N      0.101200
     20 H6          3.8890   -0.8840   -0.6780 hx        1 19N      0.101200
     21 H7          3.6770   -0.8840   -3.1430 hc        1 19N      0.019200
     22 H8          3.6770    0.8850   -3.1430 hc        1 19N      0.019200
     23 H9          5.9290   -0.8840   -2.1200 hc        1 19N      0.068700
     24 H10         5.9300    0.8850   -2.1200 hc        1 19N      0.068700
     25 H11         5.7170   -0.8840   -4.5840 hc        1 19N      0.013700
     26 H12         5.7170    0.8850   -4.5840 hc        1 19N      0.013700
     27 H13         7.9700    0.8850   -3.5620 hx        1 19N      0.094700
     28 H14         9.0990    0.0350   -5.4580 hn        1 19N      0.204467
     29 H15         7.7940   -0.8340   -5.9200 hn        1 19N      0.204467
     30 H131       -0.3340    0.0020   -0.9430 hn        1 19N      0.188133
     31 H32         1.7720   -0.8140   -1.6950 hn        1 19N      0.169800
     32 H43         7.7380    0.8000   -5.9400 hn        1 19N      0.204467
@<TRIPOS>BOND
     1    1    2 1   
     2    1   15 1   
     3    1   16 1   
     4    1   30 1   
     5    2    3 2   
     6    2    4 1   
     7    3   17 1   
     8    4    5 1   
     9    4   18 1   
    10    4   31 1   
    11    5    6 1   
    12    5   19 1   
    13    5   20 1   
    14    6    7 1   
    15    6   21 1   
    16    6   22 1   
    17    7    8 1   
    18    7   23 1   
    19    7   24 1   
    20    8    9 1   
    21    8   25 1   
    22    8   26 1   
    23    9   10 1   
    24    9   11 1   
    25    9   27 1   
    26   10   28 1   
    27   10   29 1   
    28   10   32 1   
    29   11   12 1   
    30   11   13 1   
    31   11   14 1   
@<TRIPOS>SUBSTRUCTURE
     1 19N         1 TEMP              0 ****  ****    0 ROOT
