@<TRIPOS>MOLECULE
19N
   29    25     1     0     0
SMALL
bcc


@<TRIPOS>ATOM
      1 N1         -4.4070    1.1450    2.8690 n3        1 19N     -0.372000
      2 C1         -2.9890    1.1460    2.8430 c1        1 19N      0.147000
      3 N2         -2.3150    1.1630    3.9620 n1        1 19N     -0.337000
      4 N3         -2.3020    1.1300    1.6010 n2        1 19N     -0.286000
      5 C2         -1.1900    0.2630    1.4160 c3        1 19N     -0.057000
      6 C3         -0.5100    0.5880    0.1040 c3        1 19N     -0.171000
      7 C4          0.5280   -0.4680   -0.2020 c3        1 19N     -0.145000
      8 C5          1.3420   -0.0430   -1.4040 c3        1 19N     -0.140000
      9 C6          2.3140   -1.1410   -1.7690 c3        1 19N     -0.667000
     10 N4          3.5470   -0.9260   -1.0940 n3        1 19N     -0.334000
     11 P           2.5950   -1.1290   -3.5620 p3        1 19N      2.561000
     12 O1          1.2970   -1.4210   -4.2770 os        1 19N     -1.267000
     13 O3          3.6150   -2.1830   -3.9180 o         1 19N     -1.270500
     14 O2          3.1060    0.2290   -3.9820 o         1 19N     -1.270500
     15 H1         -4.8500    0.9370    3.6410 hn        1 19N      0.164000
     16 H2         -4.8780    1.3730    2.1190 hn        1 19N      0.164000
     17 H3         -2.7570    1.1730    4.7620 DU        1 19N      0.123000
     18 H4         -2.5860    1.6600    0.9160 hn        1 19N      0.186000
     19 H5         -0.5550    0.3850    2.1510 h1        1 19N      0.087500
     20 H6         -1.4990   -0.6670    1.4010 h1        1 19N      0.087500
     21 H7         -1.1760    0.6080   -0.6120 hc        1 19N      0.077000
     22 H8         -0.0760    1.4620    0.1700 hc        1 19N      0.077000
     23 H9          1.1190   -0.5780    0.5690 hc        1 19N      0.062500
     24 H10         0.0820   -1.3180   -0.3950 hc        1 19N      0.062500
     25 H11         1.8370    0.7730   -1.1900 hc        1 19N      0.101000
     26 H12         0.7440    0.1280   -2.1590 hc        1 19N      0.101000
     27 H13         1.9430   -2.0050   -1.5030 h1        1 19N      0.067000
     28 H14         4.1540   -0.5610   -1.6760 hn        1 19N      0.123000
     29 H15         3.8670   -1.7240   -0.7800 hn        1 19N      0.123000
@<TRIPOS>BOND
     1    1    2 1   
     2    1   15 1   
     3    1   16 1   
     4    2    3 1   
     5    4    5 1   
     6    4   18 1   
     7    5    6 1   
     8    5   19 1   
     9    5   20 1   
    10    6    7 1   
    11    6   21 1   
    12    6   22 1   
    13    7    8 1   
    14    7   23 1   
    15    7   24 1   
    16    8    9 1   
    17    8   25 1   
    18    8   26 1   
    19    9   10 1   
    20    9   11 1   
    21    9   27 1   
    22   10   28 1   
    23   10   29 1   
    24   11   13 1   
    25   11   14 1   
@<TRIPOS>SUBSTRUCTURE
     1 19N         1 TEMP              0 ****  ****    0 ROOT
