@<TRIPOS>MOLECULE
19P
   59    63     1     0     0
SMALL
bcc


@<TRIPOS>ATOM
      1 C1         -3.0080    1.0770   -0.2550 cp        1 19P      0.491800
      2 C2         -4.3450    0.6810   -0.6050 ca        1 19P     -0.238300
      3 C3         -4.6630   -0.6480   -0.6710 ca        1 19P     -0.123300
      4 C4         -3.6600   -1.6370   -0.3860 ca        1 19P      0.289300
      5 C5         -2.3470   -1.1420   -0.0380 ca        1 19P      0.316300
      6 N6         -2.0450    0.1960    0.0140 nb        1 19P     -0.665000
      7 N7         -3.9870   -2.9710   -0.4600 nb        1 19P     -0.651000
      8 C8         -3.0610   -3.8770   -0.1990 ca        1 19P      0.440200
      9 C9         -1.7340   -3.5190    0.1620 ca        1 19P     -0.150700
     10 C10        -1.3640   -2.1400    0.2520 ca        1 19P     -0.021700
     11 C11        -2.7070    2.5150   -0.2020 cp        1 19P     -0.279800
     12 C12        -3.6560    3.4230    0.3230 ca        1 19P      0.421200
     13 N13        -3.4650    4.7470    0.3940 nb        1 19P     -0.669000
     14 C14        -2.2860    5.2460   -0.0650 ca        1 19P      0.425600
     15 C15        -1.2780    4.4120   -0.5970 ca        1 19P     -0.255300
     16 C16        -1.4910    3.0360   -0.6610 ca        1 19P     -0.054000
     17 C17        -2.0530    6.7200   -0.0020 c3        1 19P     -0.152400
     18 N18        -0.6330   -4.3140    0.5350 n         1 19P     -0.320000
     19 C19         0.4720   -3.4160    0.7470 c         1 19P      0.767500
     20 N20        -0.0250   -2.0640    0.6820 n         1 19P     -0.313000
     21 C21         0.8320   -0.9030    0.5350 c3        1 19P      0.114700
     22 C22         2.0650   -0.9490    1.4520 c3        1 19P     -0.121900
     23 C23         2.8350    0.3680    1.3250 c3        1 19P      0.085000
     24 N24         3.2070    0.7040   -0.0300 n         1 19P     -0.453800
     25 C25         2.1110    0.6380   -0.9790 c3        1 19P      0.085000
     26 C26         1.3040   -0.6590   -0.9080 c3        1 19P     -0.121900
     27 O27         1.6210   -3.7750    1.0500 o         1 19P     -0.616500
     28 C28        -0.4470   -5.6680    0.1190 c3        1 19P      0.079300
     29 C29         4.5130    0.6750   -0.4920 c         1 19P      0.624100
     30 O30         4.7640    0.8140   -1.7090 o         1 19P     -0.614100
     31 C31         5.6960    0.5720    0.4810 c3        1 19P      0.086100
     32 O32         6.8490    0.1640   -0.2270 oh        1 19P     -0.586800
     33 C33         5.9230    1.9070    1.1650 c3        1 19P     -0.127100
     34 H1         -5.0920    1.4570   -0.8270 ha        1 19P      0.153000
     35 H2         -5.6780   -0.9790   -0.9430 ha        1 19P      0.161000
     36 H3         -3.3610   -4.9380   -0.2680 h4        1 19P      0.035100
     37 H4         -4.6240    3.0610    0.7190 h4        1 19P      0.026100
     38 H5         -0.3350    4.8470   -0.9550 ha        1 19P      0.147000
     39 H6         -0.7140    2.3710   -1.0680 ha        1 19P      0.149000
     40 H7         -2.1230    7.0820    1.0550 hc        1 19P      0.056700
     41 H8         -1.0400    6.9700   -0.4000 hc        1 19P      0.056700
     42 H9         -2.8210    7.2620   -0.6080 hc        1 19P      0.056700
     43 H10         0.2110   -0.0130    0.8610 h1        1 19P      0.095700
     44 H11         1.7520   -1.0770    2.5200 hc        1 19P      0.070700
     45 H12         2.7240   -1.8150    1.1810 hc        1 19P      0.070700
     46 H13         2.1830    1.2080    1.7080 h1        1 19P      0.061700
     47 H14         3.7430    0.3180    1.9870 h1        1 19P      0.061700
     48 H15         1.4230    1.5060   -0.7580 h1        1 19P      0.061700
     49 H16         2.5130    0.7620   -2.0250 h1        1 19P      0.061700
     50 H17         1.9260   -1.5210   -1.2610 hc        1 19P      0.070700
     51 H18         0.4230   -0.5580   -1.5930 hc        1 19P      0.070700
     52 H19        -0.3970   -5.7610   -1.0000 h1        1 19P      0.057700
     53 H20         0.5120   -6.0480    0.5640 h1        1 19P      0.057700
     54 H21        -1.3080   -6.2800    0.4970 h1        1 19P      0.057700
     55 H22         5.5370   -0.2540    1.2320 h1        1 19P      0.089700
     56 H23         6.9000    0.6820   -1.0440 ho        1 19P      0.426000
     57 H24         6.0920    2.7090    0.4070 hc        1 19P      0.052033
     58 H25         5.0400    2.1800    1.7910 hc        1 19P      0.052033
     59 H26         6.8270    1.8410    1.8170 hc        1 19P      0.052033
@<TRIPOS>BOND
     1    1    2 ar  
     2    1    6 ar  
     3    1   11 1   
     4    2    3 ar  
     5    2   34 1   
     6    3    4 ar  
     7    3   35 1   
     8    4    5 ar  
     9    4    7 ar  
    10    5    6 ar  
    11    5   10 ar  
    12    7    8 ar  
    13    8    9 ar  
    14    8   36 1   
    15    9   10 ar  
    16    9   18 1   
    17   10   20 1   
    18   11   12 ar  
    19   11   16 ar  
    20   12   13 ar  
    21   12   37 1   
    22   13   14 ar  
    23   14   15 ar  
    24   14   17 1   
    25   15   16 ar  
    26   15   38 1   
    27   16   39 1   
    28   17   40 1   
    29   17   41 1   
    30   17   42 1   
    31   18   19 1   
    32   18   28 1   
    33   19   20 1   
    34   19   27 2   
    35   20   21 1   
    36   21   22 1   
    37   21   26 1   
    38   21   43 1   
    39   22   23 1   
    40   22   44 1   
    41   22   45 1   
    42   23   24 1   
    43   23   46 1   
    44   23   47 1   
    45   24   25 1   
    46   24   29 1   
    47   25   26 1   
    48   25   48 1   
    49   25   49 1   
    50   26   50 1   
    51   26   51 1   
    52   28   52 1   
    53   28   53 1   
    54   28   54 1   
    55   29   30 2   
    56   29   31 1   
    57   31   32 1   
    58   31   33 1   
    59   31   55 1   
    60   32   56 1   
    61   33   57 1   
    62   33   58 1   
    63   33   59 1   
@<TRIPOS>SUBSTRUCTURE
     1 19P         1 TEMP              0 ****  ****    0 ROOT
