@<TRIPOS>MOLECULE
19P
   59    63     1     0     0
SMALL
bcc


@<TRIPOS>ATOM
      1 C1          0.0120    0.0190   -0.0640 cp        1 19P      0.491800
      2 C2          1.4390   -0.1530   -0.0250 ca        1 19P     -0.238300
      3 C3          2.0800   -0.2160    1.1820 ca        1 19P     -0.123300
      4 C4          1.3240   -0.1100    2.3990 ca        1 19P      0.290300
      5 C5         -0.1040    0.0640    2.2580 ca        1 19P      0.314300
      6 N6         -0.7300    0.1250    1.0380 nb        1 19P     -0.666000
      7 N7          1.9790   -0.1750    3.6070 nb        1 19P     -0.653000
      8 C8          1.2800   -0.0700    4.7250 ca        1 19P      0.440200
      9 C9         -0.1280    0.1060    4.7210 ca        1 19P     -0.152700
     10 C10        -0.8410    0.1720    3.4810 ca        1 19P     -0.012700
     11 C11        -0.6390    0.0830   -1.3810 cp        1 19P     -0.280800
     12 C12        -0.2130   -0.7660   -2.4280 ca        1 19P      0.420200
     13 N13        -0.7460   -0.7610   -3.6580 nb        1 19P     -0.670000
     14 C14        -1.7560    0.1130   -3.9110 ca        1 19P      0.425600
     15 C15        -2.2490    0.9930   -2.9220 ca        1 19P     -0.255300
     16 C16        -1.6860    0.9740   -1.6470 ca        1 19P     -0.054000
     17 C17        -2.3610    0.1410   -5.2770 c3        1 19P     -0.152400
     18 N18        -1.0370    0.2980    5.7800 n         1 19P     -0.322000
     19 C19        -2.3480    0.3680    5.1960 c         1 19P      0.768500
     20 N20        -2.1990    0.3890    3.7630 n         1 19P     -0.322000
     21 C21        -3.3250    0.2060    2.8700 c3        1 19P      0.117700
     22 C22        -4.0330   -1.1480    3.0600 c3        1 19P     -0.123900
     23 C23        -5.1700   -1.2830    2.0450 c3        1 19P      0.086500
     24 N24        -6.1110   -0.1880    2.0650 n         1 19P     -0.453800
     25 C25        -5.4980    1.1250    2.0110 c3        1 19P      0.086500
     26 C26        -4.3690    1.3270    3.0220 c3        1 19P     -0.123900
     27 O27        -3.4090    0.4810    5.8310 o         1 19P     -0.615500
     28 C28        -0.8160   -0.1430    7.1200 c3        1 19P      0.082300
     29 C29        -7.4230   -0.3160    2.4950 c         1 19P      0.626100
     30 O30        -8.1520    0.6890    2.6320 o         1 19P     -0.612100
     31 C31        -8.0500   -1.6990    2.7230 c3        1 19P      0.086100
     32 O32        -9.2070   -1.5620    3.5240 oh        1 19P     -0.587800
     33 C33        -8.3860   -2.3410    1.3890 c3        1 19P     -0.127100
     34 H1          1.9950   -0.2200   -0.9710 ha        1 19P      0.153000
     35 H2          3.1740   -0.3430    1.2410 ha        1 19P      0.161000
     36 H3          1.8420   -0.1220    5.6750 h4        1 19P      0.035100
     37 H4          0.5980   -1.5000   -2.2650 h4        1 19P      0.025100
     38 H5         -3.0680    1.6850   -3.1590 ha        1 19P      0.147000
     39 H6         -2.0590    1.6500   -0.8630 ha        1 19P      0.152000
     40 H7         -1.5920    0.4370   -6.0350 hc        1 19P      0.056700
     41 H8         -2.7530   -0.8690   -5.5530 hc        1 19P      0.056700
     42 H9         -3.2010    0.8760   -5.3140 hc        1 19P      0.056700
     43 H10        -2.9300    0.2490    1.8120 h1        1 19P      0.099700
     44 H11        -4.4290   -1.2240    4.1060 hc        1 19P      0.070450
     45 H12        -3.3150   -1.9910    2.8940 hc        1 19P      0.070450
     46 H13        -5.6920   -2.2630    2.2180 h1        1 19P      0.061450
     47 H14        -4.7210   -1.3160    1.0080 h1        1 19P      0.061450
     48 H15        -6.2850    1.9130    2.1840 h1        1 19P      0.061450
     49 H16        -5.0870    1.2590    0.9690 h1        1 19P      0.061450
     50 H17        -4.7750    1.3350    4.0670 hc        1 19P      0.070450
     51 H18        -3.8970    2.3240    2.8250 hc        1 19P      0.070450
     52 H19        -0.6780   -1.2570    7.1770 h1        1 19P      0.057367
     53 H20         0.1080    0.3580    7.5160 h1        1 19P      0.057367
     54 H21        -1.7030    0.1510    7.7440 h1        1 19P      0.057367
     55 H22        -7.3760   -2.3590    3.3390 h1        1 19P      0.086700
     56 H23        -9.7150   -0.8060    3.1920 ho        1 19P      0.427000
     57 H24        -8.9060   -3.3130    1.5670 hc        1 19P      0.051367
     58 H25        -9.0660   -1.6800    0.8000 hc        1 19P      0.051367
     59 H26        -7.4570   -2.5240    0.7990 hc        1 19P      0.051367
@<TRIPOS>BOND
     1    1    2 ar  
     2    1    6 ar  
     3    1   11 1   
     4    2    3 ar  
     5    2   34 1   
     6    3    4 ar  
     7    3   35 1   
     8    4    5 ar  
     9    4    7 ar  
    10    5    6 ar  
    11    5   10 ar  
    12    7    8 ar  
    13    8    9 ar  
    14    8   36 1   
    15    9   10 ar  
    16    9   18 1   
    17   10   20 1   
    18   11   12 ar  
    19   11   16 ar  
    20   12   13 ar  
    21   12   37 1   
    22   13   14 ar  
    23   14   15 ar  
    24   14   17 1   
    25   15   16 ar  
    26   15   38 1   
    27   16   39 1   
    28   17   40 1   
    29   17   41 1   
    30   17   42 1   
    31   18   19 1   
    32   18   28 1   
    33   19   20 1   
    34   19   27 2   
    35   20   21 1   
    36   21   22 1   
    37   21   26 1   
    38   21   43 1   
    39   22   23 1   
    40   22   44 1   
    41   22   45 1   
    42   23   24 1   
    43   23   46 1   
    44   23   47 1   
    45   24   25 1   
    46   24   29 1   
    47   25   26 1   
    48   25   48 1   
    49   25   49 1   
    50   26   50 1   
    51   26   51 1   
    52   28   52 1   
    53   28   53 1   
    54   28   54 1   
    55   29   30 2   
    56   29   31 1   
    57   31   32 1   
    58   31   33 1   
    59   31   55 1   
    60   32   56 1   
    61   33   57 1   
    62   33   58 1   
    63   33   59 1   
@<TRIPOS>SUBSTRUCTURE
     1 19P         1 TEMP              0 ****  ****    0 ROOT
