@<TRIPOS>MOLECULE
19P
   59    63     1     0     0
SMALL
bcc


@<TRIPOS>ATOM
      1 C1         -0.0300    0.2940   -0.0010 cp        1 19P      0.491800
      2 C2          1.3390    0.7310    0.0480 ca        1 19P     -0.238300
      3 C3          1.9720    0.8390    1.2550 ca        1 19P     -0.123300
      4 C4          1.2680    0.5100    2.4630 ca        1 19P      0.289300
      5 C5         -0.1020    0.0750    2.3120 ca        1 19P      0.316300
      6 N6         -0.7250   -0.0180    1.0930 nb        1 19P     -0.665000
      7 N7          1.9120    0.6250    3.6730 nb        1 19P     -0.651000
      8 C8          1.2590    0.3230    4.7820 ca        1 19P      0.440200
      9 C9         -0.0890   -0.1230    4.7670 ca        1 19P     -0.150700
     10 C10        -0.7860   -0.2580    3.5250 ca        1 19P     -0.021700
     11 C11        -0.6770    0.2000   -1.3190 cp        1 19P     -0.279800
     12 C12         0.0470   -0.2810   -2.4340 ca        1 19P      0.421200
     13 N13        -0.4640   -0.3850   -3.6690 nb        1 19P     -0.669000
     14 C14        -1.7560   -0.0070   -3.8570 ca        1 19P      0.425600
     15 C15        -2.5560    0.4760   -2.7990 ca        1 19P     -0.255300
     16 C16        -2.0100    0.5760   -1.5200 ca        1 19P     -0.054000
     17 C17        -2.3450   -0.1090   -5.2270 c3        1 19P     -0.152400
     18 N18        -0.9320   -0.5490    5.8120 n         1 19P     -0.320000
     19 C19        -2.2100   -0.8430    5.2190 c         1 19P      0.767500
     20 N20        -2.0710   -0.7700    3.7860 n         1 19P     -0.313000
     21 C21        -3.1980   -0.6920    2.8770 c3        1 19P      0.114700
     22 C22        -4.3210   -1.6820    3.2280 c3        1 19P     -0.121900
     23 C23        -5.4020   -1.6220    2.1460 c3        1 19P      0.085000
     24 N24        -5.9300   -0.2970    1.9150 n         1 19P     -0.453800
     25 C25        -4.9150    0.7170    1.7050 c3        1 19P      0.085000
     26 C26        -3.8060    0.7150    2.7590 c3        1 19P     -0.121900
     27 O27        -3.2120   -1.2080    5.8550 o         1 19P     -0.616500
     28 C28        -0.8000   -0.1230    7.1700 c3        1 19P      0.079300
     29 C29        -7.2140    0.0850    2.2710 c         1 19P      0.624100
     30 O30        -7.5670    1.2820    2.2010 o         1 19P     -0.614100
     31 C31        -8.2700   -0.9570    2.6670 c3        1 19P      0.086100
     32 O32        -9.3260   -0.3140    3.3520 oh        1 19P     -0.586800
     33 C33        -8.7800   -1.6740    1.4300 c3        1 19P     -0.127100
     34 H1          1.8520    0.9860   -0.8910 ha        1 19P      0.153000
     35 H2          3.0190    1.1770    1.3220 ha        1 19P      0.161000
     36 H3          1.8100    0.4270    5.7350 h4        1 19P      0.035100
     37 H4          1.0970   -0.6110   -2.3260 h4        1 19P      0.026100
     38 H5         -3.5980    0.7690   -2.9840 ha        1 19P      0.147000
     39 H6         -2.6220    0.9460   -0.6810 ha        1 19P      0.149000
     40 H7         -3.4110    0.2240   -5.2160 hc        1 19P      0.056700
     41 H8         -2.3020   -1.1650   -5.5930 hc        1 19P      0.056700
     42 H9         -1.7750    0.5330   -5.9440 hc        1 19P      0.056700
     43 H10        -2.8000   -0.9930    1.8590 h1        1 19P      0.096700
     44 H11        -4.7590   -1.4390    4.2320 hc        1 19P      0.070700
     45 H12        -3.9190   -2.7270    3.2730 hc        1 19P      0.070700
     46 H13        -4.9570   -1.9770    1.1700 h1        1 19P      0.061700
     47 H14        -6.2250   -2.3370    2.4210 h1        1 19P      0.061700
     48 H15        -4.4520    0.5250    0.6930 h1        1 19P      0.061700
     49 H16        -5.3990    1.7350    1.6860 h1        1 19P      0.061700
     50 H17        -3.0230    1.4510    2.4410 hc        1 19P      0.070700
     51 H18        -4.2140    1.0430    3.7490 hc        1 19P      0.070700
     52 H19         0.2090   -0.4390    7.5480 h1        1 19P      0.057700
     53 H20        -1.6040   -0.6200    7.7780 h1        1 19P      0.057700
     54 H21        -0.8950    0.9920    7.2720 h1        1 19P      0.057700
     55 H22        -7.8620   -1.6840    3.4250 h1        1 19P      0.089700
     56 H23        -9.5560    0.4910    2.8640 ho        1 19P      0.426000
     57 H24        -9.1920   -0.9390    0.6970 hc        1 19P      0.052033
     58 H25        -7.9570   -2.2480    0.9440 hc        1 19P      0.052033
     59 H26        -9.5970   -2.3780    1.7210 hc        1 19P      0.052033
@<TRIPOS>BOND
     1    1    2 ar  
     2    1    6 ar  
     3    1   11 1   
     4    2    3 ar  
     5    2   34 1   
     6    3    4 ar  
     7    3   35 1   
     8    4    5 ar  
     9    4    7 ar  
    10    5    6 ar  
    11    5   10 ar  
    12    7    8 ar  
    13    8    9 ar  
    14    8   36 1   
    15    9   10 ar  
    16    9   18 1   
    17   10   20 1   
    18   11   12 ar  
    19   11   16 ar  
    20   12   13 ar  
    21   12   37 1   
    22   13   14 ar  
    23   14   15 ar  
    24   14   17 1   
    25   15   16 ar  
    26   15   38 1   
    27   16   39 1   
    28   17   40 1   
    29   17   41 1   
    30   17   42 1   
    31   18   19 1   
    32   18   28 1   
    33   19   20 1   
    34   19   27 2   
    35   20   21 1   
    36   21   22 1   
    37   21   26 1   
    38   21   43 1   
    39   22   23 1   
    40   22   44 1   
    41   22   45 1   
    42   23   24 1   
    43   23   46 1   
    44   23   47 1   
    45   24   25 1   
    46   24   29 1   
    47   25   26 1   
    48   25   48 1   
    49   25   49 1   
    50   26   50 1   
    51   26   51 1   
    52   28   52 1   
    53   28   53 1   
    54   28   54 1   
    55   29   30 2   
    56   29   31 1   
    57   31   32 1   
    58   31   33 1   
    59   31   55 1   
    60   32   56 1   
    61   33   57 1   
    62   33   58 1   
    63   33   59 1   
@<TRIPOS>SUBSTRUCTURE
     1 19P         1 TEMP              0 ****  ****    0 ROOT
