@<TRIPOS>MOLECULE
19P
   59    55     1     0     0
SMALL
bcc


@<TRIPOS>ATOM
      1 C1          2.9740    0.0480   -1.6510 c1        1 19P      0.057000
      2 C2          4.3670   -0.0670   -1.5990 c1        1 19P     -0.115500
      3 C3          5.0060   -0.1250   -0.3850 c1        1 19P     -0.115500
      4 C4          4.2640   -0.0680    0.7980 c1        1 19P     -0.039000
      5 C5          2.8890    0.0450    0.7440 c1        1 19P     -0.011000
      6 N6          2.2440    0.1030   -0.4890 n1        1 19P     -0.139000
      7 N7          4.9180   -0.1180    2.0410 n2        1 19P     -0.126000
      8 C8          4.1930   -0.0540    3.2020 c1        1 19P     -0.025000
      9 C9          2.7890    0.0620    3.1520 c1        1 19P     -0.079000
     10 C10         2.1440    0.1110    1.9330 c2        1 19P      0.053000
     11 C11         2.4380    0.0320   -3.0880 c1        1 19P     -0.108000
     12 C12         2.1750    1.2290   -3.7460 c1        1 19P     -0.027000
     13 N13         1.7110    1.2160   -5.0270 n1        1 19P     -0.147000
     14 C14         1.5030    0.0250   -5.6700 c1        1 19P      0.006000
     15 C15         1.7640   -1.1700   -5.0170 c1        1 19P     -0.188000
     16 C16         2.2300   -1.1590   -3.7290 c1        1 19P     -0.071000
     17 C17         1.0430    0.0150   -7.1070 c3        1 19P     -0.176000
     18 N18         1.7810    0.0610    4.1930 n         1 19P     -0.223000
     19 C19         0.5190    0.1110    3.5740 c2        1 19P      0.356000
     20 N20         0.7190    0.0910    2.1790 n         1 19P     -0.215000
     21 C21        -0.3410   -0.0190    1.1450 c3        1 19P      0.034000
     22 C22        -1.0150   -1.3300    1.2850 c3        1 19P     -0.203000
     23 C23        -2.2400   -1.4490    0.3800 c3        1 19P     -0.035500
     24 N24        -3.1540   -0.3180    0.5330 n3        1 19P     -0.321000
     25 C25        -2.5130    0.9830    0.3990 c3        1 19P     -0.035500
     26 C26        -1.2940    1.1220    1.3030 c3        1 19P     -0.203000
     27 O27        -0.5580    0.0920    4.1420 o         1 19P     -0.340000
     28 C28         2.0260   -0.0910    5.6100 c3        1 19P     -0.076000
     29 C29        -4.5780   -0.4790    0.7950 c1        1 19P      0.263000
     30 O30        -5.0520   -1.5910    0.8960 o         1 19P     -0.344000
     31 C31        -5.5020    0.7420    0.7670 c2        1 19P      0.027000
     32 O32        -5.8550    1.0320   -0.5570 oh        1 19P     -0.310000
     33 C33        -6.7520    0.4490    1.5710 c3        1 19P     -0.202000
     34 H1          4.8840   -0.1070   -2.4240 ha        1 19P      0.155500
     35 H2          5.9830   -0.2060   -0.3480 ha        1 19P      0.155500
     36 H3          4.6430   -0.1620    4.0630 ha        1 19P      0.172000
     37 H4          2.3230    2.0790   -3.2890 ha        1 19P      0.172000
     38 H5          1.6160   -2.0150   -5.4720 ha        1 19P      0.146000
     39 H6          2.4130   -1.9950   -3.2710 ha        1 19P      0.142000
     40 H7          0.2180   -0.5020   -7.1820 hc        1 19P      0.096000
     41 H8          0.8800    0.9350   -7.4040 hc        1 19P      0.096000
     42 H9          1.7300   -0.3880   -7.6640 hc        1 19P      0.096000
     43 H10         0.0700    0.0320    0.2640 h1        1 19P      0.140000
     44 H11        -0.3820   -2.0370    1.0560 hc        1 19P      0.109000
     45 H12        -1.2980   -1.4450    2.2220 hc        1 19P      0.109000
     46 H13        -1.9450   -1.4940   -0.5480 h1        1 19P      0.101250
     47 H14        -2.7170   -2.2740    0.6000 h1        1 19P      0.101250
     48 H15        -3.1580    1.6790    0.6300 h1        1 19P      0.101250
     49 H16        -2.2330    1.1060   -0.5320 h1        1 19P      0.101250
     50 H17        -1.5910    1.1590    2.2290 hc        1 19P      0.109000
     51 H18        -0.8290    1.9580    1.0830 hc        1 19P      0.109000
     52 H19         2.3660   -0.9960    5.7880 h1        1 19P      0.096667
     53 H20         2.6940    0.5750    5.9020 h1        1 19P      0.096667
     54 H21         1.1880    0.0470    6.1030 h1        1 19P      0.096667
     55 H22        -5.0390    1.5070    1.1530 h4        1 19P      0.084000
     56 H23        -5.5900    1.8570   -0.7620 ho        1 19P      0.205000
     57 H24        -7.5380    0.7840    1.0880 hc        1 19P      0.096333
     58 H25        -6.6920    0.8910    2.4380 hc        1 19P      0.096333
     59 H26        -6.8370   -0.5170    1.7020 hc        1 19P      0.096333
@<TRIPOS>BOND
     1    1    6 1   
     2    1   11 1   
     3    2    3 1   
     4    2   34 1   
     5    3   35 1   
     6    4    5 1   
     7    4    7 1   
     8    5   10 1   
     9    7    8 1   
    10    8   36 1   
    11    9   10 1   
    12    9   18 1   
    13   10   20 1   
    14   11   16 1   
    15   12   13 1   
    16   12   37 1   
    17   14   15 1   
    18   14   17 1   
    19   15   38 1   
    20   16   39 1   
    21   17   40 1   
    22   17   41 1   
    23   17   42 1   
    24   18   19 1   
    25   18   28 1   
    26   19   20 1   
    27   19   27 1   
    28   20   21 1   
    29   21   22 1   
    30   21   26 1   
    31   21   43 1   
    32   22   23 1   
    33   22   44 1   
    34   22   45 1   
    35   23   24 1   
    36   23   46 1   
    37   23   47 1   
    38   24   25 1   
    39   24   29 1   
    40   25   26 1   
    41   25   48 1   
    42   25   49 1   
    43   26   50 1   
    44   26   51 1   
    45   28   52 1   
    46   28   53 1   
    47   28   54 1   
    48   29   30 1   
    49   31   32 1   
    50   31   33 1   
    51   31   55 1   
    52   32   56 1   
    53   33   57 1   
    54   33   58 1   
    55   33   59 1   
@<TRIPOS>SUBSTRUCTURE
     1 19P         1 TEMP              0 ****  ****    0 ROOT
