@<TRIPOS>MOLECULE
19P
   59    63     1     0     0
SMALL
bcc


@<TRIPOS>ATOM
      1 C1          0.0180    0.0040   -0.0540 cp        1 19P      0.491800
      2 C2          1.4430   -0.1840   -0.0130 ca        1 19P     -0.238300
      3 C3          2.0810   -0.2600    1.1940 ca        1 19P     -0.123300
      4 C4          1.3230   -0.1530    2.4100 ca        1 19P      0.290300
      5 C5         -0.1030    0.0370    2.2680 ca        1 19P      0.314300
      6 N6         -0.7250    0.1110    1.0470 nb        1 19P     -0.666000
      7 N7          1.9750   -0.2320    3.6190 nb        1 19P     -0.653000
      8 C8          1.2750   -0.1250    4.7360 ca        1 19P      0.440200
      9 C9         -0.1320    0.0660    4.7310 ca        1 19P     -0.152700
     10 C10        -0.8410    0.1460    3.4890 ca        1 19P     -0.012700
     11 C11        -0.6290    0.0820   -1.3720 cp        1 19P     -0.280800
     12 C12        -0.2100   -0.7660   -2.4230 ca        1 19P      0.420200
     13 N13        -0.7400   -0.7490   -3.6550 nb        1 19P     -0.670000
     14 C14        -1.7400    0.1380   -3.9050 ca        1 19P      0.425600
     15 C15        -2.2250    1.0180   -2.9130 ca        1 19P     -0.255300
     16 C16        -1.6660    0.9860   -1.6360 ca        1 19P     -0.054000
     17 C17        -2.3410    0.1800   -5.2720 c3        1 19P     -0.152400
     18 N18        -1.0410    0.2610    5.7890 n         1 19P     -0.322000
     19 C19        -2.3490    0.3470    5.2020 c         1 19P      0.768500
     20 N20        -2.1980    0.3760    3.7700 n         1 19P     -0.321000
     21 C21        -3.3240    0.2070    2.8730 c3        1 19P      0.116700
     22 C22        -4.0420   -1.1430    3.0540 c3        1 19P     -0.123900
     23 C23        -5.1780   -1.2620    2.0360 c3        1 19P      0.086500
     24 N24        -6.1110   -0.1600    2.0610 n         1 19P     -0.453800
     25 C25        -5.4870    1.1480    2.0150 c3        1 19P      0.086500
     26 C26        -4.3580    1.3360    3.0290 c3        1 19P     -0.123900
     27 O27        -3.4100    0.4680    5.8350 o         1 19P     -0.615500
     28 C28        -0.8270   -0.1910    7.1270 c3        1 19P      0.082300
     29 C29        -7.4240   -0.2810    2.4890 c         1 19P      0.626100
     30 O30        -8.1460    0.7300    2.6300 o         1 19P     -0.612100
     31 C31        -8.0630   -1.6590    2.7080 c3        1 19P      0.086100
     32 O32        -9.2200   -1.5180    3.5080 oh        1 19P     -0.587800
     33 C33        -8.4020   -2.2910    1.3700 c3        1 19P     -0.127100
     34 H1          2.0000   -0.2510   -0.9590 ha        1 19P      0.153000
     35 H2          3.1730   -0.3990    1.2550 ha        1 19P      0.161000
     36 H3          1.8340   -0.1880    5.6880 h4        1 19P      0.035100
     37 H4          0.5930   -1.5100   -2.2620 h4        1 19P      0.025100
     38 H5         -3.0370    1.7200   -3.1470 ha        1 19P      0.147000
     39 H6         -2.0330    1.6620   -0.8490 ha        1 19P      0.152000
     40 H7         -1.5660    0.4610   -6.0280 hc        1 19P      0.056700
     41 H8         -2.7530   -0.8220   -5.5500 hc        1 19P      0.056700
     42 H9         -3.1670    0.9310   -5.3090 hc        1 19P      0.056700
     43 H10        -2.9260    0.2530    1.8160 h1        1 19P      0.099700
     44 H11        -4.4410   -1.2210    4.0990 hc        1 19P      0.070450
     45 H12        -3.3310   -1.9910    2.8840 hc        1 19P      0.070450
     46 H13        -4.7280   -1.2920    1.0000 h1        1 19P      0.061450
     47 H14        -5.7080   -2.2400    2.2020 h1        1 19P      0.061450
     48 H15        -6.2690    1.9420    2.1920 h1        1 19P      0.061450
     49 H16        -5.0720    1.2850    0.9750 h1        1 19P      0.061450
     50 H17        -3.8780    2.3300    2.8400 hc        1 19P      0.070450
     51 H18        -4.7660    1.3400    4.0750 hc        1 19P      0.070450
     52 H19        -1.7130    0.1090    7.7500 h1        1 19P      0.057367
     53 H20        -0.7010   -1.3060    7.1770 h1        1 19P      0.057367
     54 H21         0.1000    0.2990    7.5280 h1        1 19P      0.057367
     55 H22        -7.3940   -2.3280    3.3200 h1        1 19P      0.086700
     56 H23        -9.7210   -0.7560    3.1800 ho        1 19P      0.427000
     57 H24        -7.4740   -2.4770    0.7800 hc        1 19P      0.051367
     58 H25        -8.9300   -3.2600    1.5410 hc        1 19P      0.051367
     59 H26        -9.0760   -1.6210    0.7840 hc        1 19P      0.051367
@<TRIPOS>BOND
     1    1    2 ar  
     2    1    6 ar  
     3    1   11 1   
     4    2    3 ar  
     5    2   34 1   
     6    3    4 ar  
     7    3   35 1   
     8    4    5 ar  
     9    4    7 ar  
    10    5    6 ar  
    11    5   10 ar  
    12    7    8 ar  
    13    8    9 ar  
    14    8   36 1   
    15    9   10 ar  
    16    9   18 1   
    17   10   20 1   
    18   11   12 ar  
    19   11   16 ar  
    20   12   13 ar  
    21   12   37 1   
    22   13   14 ar  
    23   14   15 ar  
    24   14   17 1   
    25   15   16 ar  
    26   15   38 1   
    27   16   39 1   
    28   17   40 1   
    29   17   41 1   
    30   17   42 1   
    31   18   19 1   
    32   18   28 1   
    33   19   20 1   
    34   19   27 2   
    35   20   21 1   
    36   21   22 1   
    37   21   26 1   
    38   21   43 1   
    39   22   23 1   
    40   22   44 1   
    41   22   45 1   
    42   23   24 1   
    43   23   46 1   
    44   23   47 1   
    45   24   25 1   
    46   24   29 1   
    47   25   26 1   
    48   25   48 1   
    49   25   49 1   
    50   26   50 1   
    51   26   51 1   
    52   28   52 1   
    53   28   53 1   
    54   28   54 1   
    55   29   30 2   
    56   29   31 1   
    57   31   32 1   
    58   31   33 1   
    59   31   55 1   
    60   32   56 1   
    61   33   57 1   
    62   33   58 1   
    63   33   59 1   
@<TRIPOS>SUBSTRUCTURE
     1 19P         1 TEMP              0 ****  ****    0 ROOT
