@<TRIPOS>MOLECULE
19Q
   42    44     1     0     0
SMALL
bcc


@<TRIPOS>ATOM
      1 C1         -0.3780    0.1730   -0.0770 cc        1 19Q     -0.398000
      2 C2          0.8550    0.8450   -0.2530 cd        1 19Q     -0.007100
      3 N3          1.3300    1.3080    0.9470 na        1 19Q     -0.214100
      4 C4         -0.6870    0.2270    1.3420 ca        1 19Q      0.366800
      5 C5          0.4170    0.9520    1.9610 ca        1 19Q      0.282500
      6 N6          0.4730    1.1970    3.3070 nb        1 19Q     -0.590000
      7 C7         -0.5670    0.7130    3.9850 ca        1 19Q      0.309900
      8 C8         -1.6710   -0.0160    3.3880 ca        1 19Q      0.379300
      9 N9         -1.7250   -0.2600    2.0620 nb        1 19Q     -0.597000
     10 C10        -1.2380   -0.4330   -1.0450 c         1 19Q      0.615300
     11 N11        -0.5520   -0.9120   -2.3250 n4        1 19Q     -0.682800
     12 O12        -2.4370   -0.6670   -1.0030 o         1 19Q     -0.418100
     13 C13        -1.0160   -0.1570   -3.5420 c3        1 19Q      0.137500
     14 C14        -0.5950    1.3040   -3.4740 c3        1 19Q     -0.129100
     15 C15        -0.4730   -0.8400   -4.8360 c3        1 19Q      0.139800
     16 C16        -1.0540   -2.2410   -4.9900 c3        1 19Q     -0.139600
     17 C17        -0.8170    0.0090   -6.0510 c3        1 19Q     -0.139600
     18 O18         0.9400   -0.9210   -4.6460 oh        1 19Q     -0.634800
     19 C19        -2.7650   -0.5070    4.2500 cx        1 19Q     -0.210000
     20 C20        -2.4690   -0.9830    5.6540 cx        1 19Q     -0.110400
     21 C21        -3.2060    0.3020    5.4490 cx        1 19Q     -0.110400
     22 H1          1.4030    1.0380   -1.1840 h4        1 19Q      0.185000
     23 H2          2.1640    1.8280    1.0940 hn        1 19Q      0.341700
     24 H3         -0.5530    0.8960    5.0770 h4        1 19Q      0.059100
     25 H4          0.4660   -0.8210   -2.2530 hn        1 19Q      0.456800
     26 H5         -2.1460   -0.2300   -3.5530 hx        1 19Q      0.119700
     27 H6          0.4990    1.4100   -3.6770 hc        1 19Q      0.075700
     28 H7         -0.8350    1.7540   -2.4780 hc        1 19Q      0.075700
     29 H8         -1.1600    1.8760   -4.2530 hc        1 19Q      0.075700
     30 H9         -0.5700   -2.9590   -4.2850 hc        1 19Q      0.066200
     31 H10        -0.8680   -2.6170   -6.0270 hc        1 19Q      0.066200
     32 H11        -2.1570   -2.2310   -4.8160 hc        1 19Q      0.066200
     33 H12        -0.2150    0.9500   -6.0540 hc        1 19Q      0.066200
     34 H13        -1.9030    0.2640   -6.0520 hc        1 19Q      0.066200
     35 H14        -0.5840   -0.5560   -6.9870 hc        1 19Q      0.066200
     36 H15         1.3330   -1.1750   -5.4920 ho        1 19Q      0.445000
     37 H16        -3.5570   -1.0500    3.6880 hc        1 19Q      0.117700
     38 H17        -1.4300   -0.9580    6.0280 hc        1 19Q      0.085450
     39 H18        -3.0160   -1.8690    6.0260 hc        1 19Q      0.085450
     40 H19        -4.2880    0.3490    5.6710 hc        1 19Q      0.085450
     41 H20        -2.7020    1.2600    5.6730 hc        1 19Q      0.085450
     42 H112       -0.7780   -1.9050   -2.4630 hn        1 19Q      0.456800
@<TRIPOS>BOND
     1    1    2 2   
     2    1    4 1   
     3    1   10 1   
     4    2    3 1   
     5    2   22 1   
     6    3    5 1   
     7    3   23 1   
     8    4    5 ar  
     9    4    9 ar  
    10    5    6 ar  
    11    6    7 ar  
    12    7    8 ar  
    13    7   24 1   
    14    8    9 ar  
    15    8   19 1   
    16   10   11 1   
    17   10   12 2   
    18   11   13 1   
    19   11   25 1   
    20   11   42 1   
    21   13   14 1   
    22   13   15 1   
    23   13   26 1   
    24   14   27 1   
    25   14   28 1   
    26   14   29 1   
    27   15   16 1   
    28   15   17 1   
    29   15   18 1   
    30   16   30 1   
    31   16   31 1   
    32   16   32 1   
    33   17   33 1   
    34   17   34 1   
    35   17   35 1   
    36   18   36 1   
    37   19   20 1   
    38   19   21 1   
    39   19   37 1   
    40   20   21 1   
    41   20   38 1   
    42   20   39 1   
    43   21   40 1   
    44   21   41 1   
@<TRIPOS>SUBSTRUCTURE
     1 19Q         1 TEMP              0 ****  ****    0 ROOT
