@<TRIPOS>MOLECULE
19Q
   42    44     1     0     0
SMALL
bcc


@<TRIPOS>ATOM
      1 C1         -0.3700    0.1520   -0.0730 cc        1 19Q     -0.398000
      2 C2          0.8820    0.7890   -0.2420 cd        1 19Q     -0.007100
      3 N3          1.3670    1.2310    0.9630 na        1 19Q     -0.214100
      4 C4         -0.6810    0.2060    1.3450 ca        1 19Q      0.366800
      5 C5          0.4410    0.8950    1.9720 ca        1 19Q      0.282500
      6 N6          0.5000    1.1300    3.3190 nb        1 19Q     -0.590000
      7 C7         -0.5550    0.6720    3.9910 ca        1 19Q      0.309900
      8 C8         -1.6790   -0.0210    3.3870 ca        1 19Q      0.379300
      9 N9         -1.7350   -0.2540    2.0590 nb        1 19Q     -0.597000
     10 C10        -1.2440   -0.4230   -1.0480 c         1 19Q      0.615300
     11 N11        -0.5690   -0.9120   -2.3290 n4        1 19Q     -0.682800
     12 O12        -2.4500   -0.6230   -1.0100 o         1 19Q     -0.418100
     13 C13        -1.0080   -0.1350   -3.5420 c3        1 19Q      0.137500
     14 C14        -0.5460    1.3130   -3.4620 c3        1 19Q     -0.129100
     15 C15        -0.4820   -0.8240   -4.8400 c3        1 19Q      0.139800
     16 C16        -1.1020   -2.2070   -5.0050 c3        1 19Q     -0.139600
     17 C17        -0.7980    0.0430   -6.0490 c3        1 19Q     -0.139600
     18 O18         0.9280   -0.9470   -4.6470 oh        1 19Q     -0.634800
     19 C19        -2.7900   -0.4840    4.2430 cx        1 19Q     -0.210000
     20 C20        -2.5110   -0.9770    5.6440 cx        1 19Q     -0.110400
     21 C21        -3.2100    0.3300    5.4450 cx        1 19Q     -0.110400
     22 H1          1.4390    0.9720   -1.1690 h4        1 19Q      0.185000
     23 H2          2.2160    1.7240    1.1150 hn        1 19Q      0.341700
     24 H3         -0.5400    0.8480    5.0850 h4        1 19Q      0.059100
     25 H4         -0.8240   -1.8970   -2.4750 hn        1 19Q      0.456800
     26 H5         -2.1400   -0.1750   -3.5560 hx        1 19Q      0.119700
     27 H6         -1.0920    1.9060   -4.2390 hc        1 19Q      0.075700
     28 H7          0.5510    1.3890   -3.6620 hc        1 19Q      0.075700
     29 H8         -0.7750    1.7620   -2.4640 hc        1 19Q      0.075700
     30 H9         -2.2040   -2.1670   -4.8340 hc        1 19Q      0.066200
     31 H10        -0.9240   -2.5810   -6.0440 hc        1 19Q      0.066200
     32 H11        -0.6400   -2.9440   -4.3040 hc        1 19Q      0.066200
     33 H12        -0.1700    0.9660   -6.0440 hc        1 19Q      0.066200
     34 H13        -1.8770    0.3290   -6.0510 hc        1 19Q      0.066200
     35 H14        -0.5790   -0.5220   -6.9880 hc        1 19Q      0.066200
     36 H15         1.3150   -1.2060   -5.4940 ho        1 19Q      0.445000
     37 H16        -3.5950   -1.0000    3.6750 hc        1 19Q      0.117700
     38 H17        -3.0860   -1.8490    6.0090 hc        1 19Q      0.085450
     39 H18        -1.4730   -0.9860    6.0220 hc        1 19Q      0.085450
     40 H19        -2.6780    1.2700    5.6770 hc        1 19Q      0.085450
     41 H20        -4.2910    0.4070    5.6640 hc        1 19Q      0.085450
     42 H112        0.4510   -0.8510   -2.2540 hn        1 19Q      0.456800
@<TRIPOS>BOND
     1    1    2 2   
     2    1    4 1   
     3    1   10 1   
     4    2    3 1   
     5    2   22 1   
     6    3    5 1   
     7    3   23 1   
     8    4    5 ar  
     9    4    9 ar  
    10    5    6 ar  
    11    6    7 ar  
    12    7    8 ar  
    13    7   24 1   
    14    8    9 ar  
    15    8   19 1   
    16   10   11 1   
    17   10   12 2   
    18   11   13 1   
    19   11   25 1   
    20   11   42 1   
    21   13   14 1   
    22   13   15 1   
    23   13   26 1   
    24   14   27 1   
    25   14   28 1   
    26   14   29 1   
    27   15   16 1   
    28   15   17 1   
    29   15   18 1   
    30   16   30 1   
    31   16   31 1   
    32   16   32 1   
    33   17   33 1   
    34   17   34 1   
    35   17   35 1   
    36   18   36 1   
    37   19   20 1   
    38   19   21 1   
    39   19   37 1   
    40   20   21 1   
    41   20   38 1   
    42   20   39 1   
    43   21   40 1   
    44   21   41 1   
@<TRIPOS>SUBSTRUCTURE
     1 19Q         1 TEMP              0 ****  ****    0 ROOT
