@<TRIPOS>MOLECULE
19Q
   41    36     1     0     0
SMALL
bcc


@<TRIPOS>ATOM
      1 C1          1.8290   -0.1840    0.4760 c1        1 19Q     -0.191000
      2 C2          3.2140   -0.1780    0.4520 c1        1 19Q      0.017000
      3 N3          3.6610    0.0030    1.7350 n2        1 19Q     -0.188000
      4 C4          1.4250   -0.0040    1.7870 c1        1 19Q     -0.032000
      5 C5          2.5520    0.1120    2.5660 c1        1 19Q     -0.032000
      6 N6          2.4350    0.3050    3.9140 n1        1 19Q     -0.097000
      7 C7          1.2170    0.3810    4.4790 c1        1 19Q     -0.108000
      8 C8          0.0740    0.2640    3.6910 c1        1 19Q     -0.025000
      9 N9          0.1890    0.0740    2.3620 n1        1 19Q     -0.084000
     10 C10         1.6740   -0.3900   -1.0360 c1        1 19Q      0.382000
     11 N11         0.3590   -0.4780   -1.6210 n2        1 19Q     -0.363000
     12 O12         2.6640   -0.5040   -1.7400 o         1 19Q     -0.408000
     13 C13         0.1830   -0.2390   -3.0120 c3        1 19Q      0.002000
     14 C14         0.7040   -1.4230   -3.7980 c3        1 19Q     -0.231000
     15 C15        -1.3020   -0.0410   -3.3120 c3        1 19Q      0.066000
     16 C16        -1.7990    1.2360   -2.6190 c3        1 19Q     -0.221000
     17 C17        -1.5060    0.0880   -4.8300 c3        1 19Q     -0.221000
     18 O18        -2.0350   -1.1570   -2.8300 oh        1 19Q     -0.325000
     19 C19        -1.4080    0.0680    4.0370 cx        1 19Q     -0.123000
     20 C20        -1.7440    0.0570    5.5210 cx        1 19Q     -0.202500
     21 C21        -2.1030    1.2650    4.6690 cx        1 19Q     -0.202500
     22 H1          3.7770   -0.2980   -0.3430 DU        1 19Q      0.233000
     23 H2          4.5400    0.0460    2.0000 DU        1 19Q      0.233000
     24 H3          1.1330    0.5200    5.4470 ha        1 19Q      0.172000
     25 H4         -0.3530   -0.7460   -1.1090 hn        1 19Q      0.257000
     26 H5          0.6790    0.5690   -3.2710 h1        1 19Q      0.125000
     27 H6          0.2090   -2.2320   -3.5380 hc        1 19Q      0.081333
     28 H7          0.5810   -1.2580   -4.7580 hc        1 19Q      0.081333
     29 H8          1.6600   -1.5470   -3.6060 hc        1 19Q      0.081333
     30 H9         -1.3110    2.0130   -2.9730 hc        1 19Q      0.085667
     31 H10        -1.6430    1.1660   -1.6530 hc        1 19Q      0.085667
     32 H11        -2.7630    1.3480   -2.7880 hc        1 19Q      0.085667
     33 H12        -0.8960    0.7720   -5.1860 hc        1 19Q      0.085667
     34 H13        -1.3170   -0.7740   -5.2610 hc        1 19Q      0.085667
     35 H14        -2.4370    0.3500   -5.0160 hc        1 19Q      0.085667
     36 H15        -2.0960   -1.7730   -3.4720 ho        1 19Q      0.199000
     37 H16        -1.9710   -0.5000    3.4700 hc        1 19Q      0.148000
     38 H17        -0.9830    0.1760    6.1310 hc        1 19Q      0.115500
     39 H18        -2.4950   -0.5170    5.7840 hc        1 19Q      0.115500
     40 H19        -3.0540    1.3670    4.4540 hc        1 19Q      0.115500
     41 H20        -1.5430    2.0620    4.8010 hc        1 19Q      0.115500
@<TRIPOS>BOND
     1    1    2 1   
     2    1    4 1   
     3    2    3 1   
     4    3    5 1   
     5    4    9 1   
     6    5    6 1   
     7    7    8 1   
     8    7   24 1   
     9    8   19 1   
    10   10   12 1   
    11   11   13 1   
    12   11   25 1   
    13   13   14 1   
    14   13   15 1   
    15   13   26 1   
    16   14   27 1   
    17   14   28 1   
    18   14   29 1   
    19   15   16 1   
    20   15   17 1   
    21   15   18 1   
    22   16   30 1   
    23   16   31 1   
    24   16   32 1   
    25   17   33 1   
    26   17   34 1   
    27   17   35 1   
    28   18   36 1   
    29   19   20 1   
    30   19   21 1   
    31   19   37 1   
    32   20   21 1   
    33   20   38 1   
    34   20   39 1   
    35   21   40 1   
    36   21   41 1   
@<TRIPOS>SUBSTRUCTURE
     1 19Q         1 TEMP              0 ****  ****    0 ROOT
