@<TRIPOS>MOLECULE
19Q
   41    43     1     0     0
SMALL
bcc


@<TRIPOS>ATOM
      1 C1         -0.0530   -1.3830    1.6800 cc        1 19Q     -0.325000
      2 C2          0.3230   -2.4680    2.4850 cd        1 19Q     -0.007100
      3 N3          1.6630   -2.7790    2.3070 na        1 19Q     -0.273100
      4 C4          1.1240   -0.9790    0.9380 ca        1 19Q      0.340800
      5 C5          2.1980   -1.8900    1.3630 ca        1 19Q      0.295500
      6 N6          3.4670   -1.8120    0.8690 nb        1 19Q     -0.621000
      7 C7          3.6410   -0.8380   -0.0300 ca        1 19Q      0.291900
      8 C8          2.6040    0.0660   -0.4620 ca        1 19Q      0.333300
      9 N9          1.3470   -0.0090    0.0250 nb        1 19Q     -0.618000
     10 C10        -1.4210   -0.8480    1.6670 c         1 19Q      0.707300
     11 N11        -1.6880    0.2500    0.8790 n         1 19Q     -0.558900
     12 O12        -2.3190   -1.4000    2.3470 o         1 19Q     -0.639100
     13 C13        -2.9810    0.8970    0.8660 c3        1 19Q      0.075700
     14 C14        -2.9010    2.3420    1.3640 c3        1 19Q     -0.111100
     15 C15        -3.6350    0.8690   -0.5550 c3        1 19Q      0.140800
     16 C16        -3.8620   -0.5680   -1.0090 c3        1 19Q     -0.105100
     17 C17        -4.9640    1.6170   -0.5290 c3        1 19Q     -0.105100
     18 O18        -2.8160    1.5710   -1.4880 oh        1 19Q     -0.601800
     19 C19         2.9180    1.1070   -1.4650 cx        1 19Q     -0.180000
     20 C20         4.2760    1.7670   -1.4730 cx        1 19Q     -0.122900
     21 C21         3.9040    0.8200   -2.5720 cx        1 19Q     -0.122900
     22 H1         -0.3120   -3.0310    3.1780 h4        1 19Q      0.199000
     23 H2          2.1650   -3.5000    2.7590 hn        1 19Q      0.318700
     24 H3          4.6600   -0.7510   -0.4470 h4        1 19Q      0.036100
     25 H4         -0.9490    0.7330    0.4270 hn        1 19Q      0.329500
     26 H5         -3.6690    0.3140    1.5520 h1        1 19Q      0.089700
     27 H6         -3.9300    2.7100    1.5910 hc        1 19Q      0.045700
     28 H7         -2.2920    2.4140    2.2970 hc        1 19Q      0.045700
     29 H8         -2.4480    2.9970    0.5810 hc        1 19Q      0.045700
     30 H9         -4.5010   -1.1030   -0.2680 hc        1 19Q      0.046367
     31 H10        -4.3710   -0.5740   -2.0020 hc        1 19Q      0.046367
     32 H11        -2.8940   -1.1160   -1.1080 hc        1 19Q      0.046367
     33 H12        -4.7860    2.7170   -0.4700 hc        1 19Q      0.046367
     34 H13        -5.5340    1.4060   -1.4660 hc        1 19Q      0.046367
     35 H14        -5.5660    1.2870    0.3490 hc        1 19Q      0.046367
     36 H15        -2.0730    0.9970   -1.7080 ho        1 19Q      0.403000
     37 H16         2.0450    1.7470   -1.7210 hc        1 19Q      0.105700
     38 H17         4.3270    2.8500   -1.6860 hc        1 19Q      0.077200
     39 H18         5.0310    1.4610   -0.7270 hc        1 19Q      0.077200
     40 H19         4.3910   -0.1710   -2.6190 hc        1 19Q      0.077200
     41 H20         3.6870    1.2180   -3.5790 hc        1 19Q      0.077200
@<TRIPOS>BOND
     1    1    2 2   
     2    1    4 1   
     3    1   10 1   
     4    2    3 1   
     5    2   22 1   
     6    3    5 1   
     7    3   23 1   
     8    4    5 ar  
     9    4    9 ar  
    10    5    6 ar  
    11    6    7 ar  
    12    7    8 ar  
    13    7   24 1   
    14    8    9 ar  
    15    8   19 1   
    16   10   11 1   
    17   10   12 2   
    18   11   13 1   
    19   11   25 1   
    20   13   14 1   
    21   13   15 1   
    22   13   26 1   
    23   14   27 1   
    24   14   28 1   
    25   14   29 1   
    26   15   16 1   
    27   15   17 1   
    28   15   18 1   
    29   16   30 1   
    30   16   31 1   
    31   16   32 1   
    32   17   33 1   
    33   17   34 1   
    34   17   35 1   
    35   18   36 1   
    36   19   20 1   
    37   19   21 1   
    38   19   37 1   
    39   20   21 1   
    40   20   38 1   
    41   20   39 1   
    42   21   40 1   
    43   21   41 1   
@<TRIPOS>SUBSTRUCTURE
     1 19Q         1 TEMP              0 ****  ****    0 ROOT
