@<TRIPOS>MOLECULE
19Q
   42    44     1     0     0
SMALL
bcc


@<TRIPOS>ATOM
      1 C1         -0.3700    0.1560   -0.0770 cc        1 19Q     -0.398000
      2 C2          0.8790    0.7980   -0.2520 cd        1 19Q     -0.007100
      3 N3          1.3670    1.2450    0.9500 na        1 19Q     -0.214100
      4 C4         -0.6750    0.2120    1.3430 ca        1 19Q      0.366800
      5 C5          0.4470    0.9070    1.9640 ca        1 19Q      0.282500
      6 N6          0.5100    1.1450    3.3100 nb        1 19Q     -0.590000
      7 C7         -0.5400    0.6840    3.9880 ca        1 19Q      0.309900
      8 C8         -1.6630   -0.0150    3.3890 ca        1 19Q      0.379300
      9 N9         -1.7240   -0.2520    2.0620 nb        1 19Q     -0.597000
     10 C10        -1.2460   -0.4250   -1.0460 c         1 19Q      0.615300
     11 N11        -0.5730   -0.9150   -2.3290 ny        1 19Q     -0.682800
     12 O12        -2.4500   -0.6300   -1.0030 o         1 19Q     -0.418100
     13 C13        -1.0200   -0.1420   -3.5420 c3        1 19Q      0.137500
     14 C14        -0.5630    1.3070   -3.4670 c3        1 19Q     -0.129100
     15 C15        -0.4960   -0.8330   -4.8400 c3        1 19Q      0.139800
     16 C16        -1.1120   -2.2190   -5.0000 c3        1 19Q     -0.139600
     17 C17        -0.8200    0.0310   -6.0500 c3        1 19Q     -0.139600
     18 O18         0.9150   -0.9500   -4.6530 oh        1 19Q     -0.634800
     19 C19        -2.7680   -0.4810    4.2510 cx        1 19Q     -0.210000
     20 C20        -2.4820   -0.9690    5.6530 cx        1 19Q     -0.110400
     21 C21        -3.1870    0.3340    5.4530 cx        1 19Q     -0.110400
     22 H1          1.4310    0.9810   -1.1820 h4        1 19Q      0.185000
     23 H2          2.2140    1.7430    1.0970 hn        1 19Q      0.341700
     24 H3         -0.5210    0.8630    5.0800 h4        1 19Q      0.059100
     25 H4          0.4460   -0.8500   -2.2580 hn        1 19Q      0.456800
     26 H5         -2.1520   -0.1870   -3.5510 hx        1 19Q      0.119700
     27 H6          0.5330    1.3870   -3.6710 hc        1 19Q      0.075700
     28 H7         -0.7900    1.7580   -2.4690 hc        1 19Q      0.075700
     29 H8         -1.1140    1.8960   -4.2430 hc        1 19Q      0.075700
     30 H9         -0.9360   -2.5940   -6.0380 hc        1 19Q      0.066200
     31 H10        -0.6450   -2.9520   -4.2990 hc        1 19Q      0.066200
     32 H11        -2.2130   -2.1820   -4.8240 hc        1 19Q      0.066200
     33 H12        -1.9000    0.3120   -6.0490 hc        1 19Q      0.066200
     34 H13        -0.1950    0.9560   -6.0490 hc        1 19Q      0.066200
     35 H14        -0.6030   -0.5360   -6.9890 hc        1 19Q      0.066200
     36 H15         1.3000   -1.2100   -5.5000 ho        1 19Q      0.445000
     37 H16        -3.5740   -1.0030    3.6880 hc        1 19Q      0.117700
     38 H17        -1.4420   -0.9720    6.0260 hc        1 19Q      0.085450
     39 H18        -3.0500   -1.8430    6.0220 hc        1 19Q      0.085450
     40 H19        -4.2680    0.4070    5.6760 hc        1 19Q      0.085450
     41 H20        -2.6590    1.2780    5.6810 hc        1 19Q      0.085450
     42 H112       -0.8250   -1.9010   -2.4710 hn        1 19Q      0.456800
@<TRIPOS>BOND
     1    1    2 2   
     2    1    4 1   
     3    1   10 1   
     4    2    3 1   
     5    2   22 1   
     6    3    5 1   
     7    3   23 1   
     8    4    5 ar  
     9    4    9 ar  
    10    5    6 ar  
    11    6    7 ar  
    12    7    8 ar  
    13    7   24 1   
    14    8    9 ar  
    15    8   19 1   
    16   10   11 1   
    17   10   12 2   
    18   11   13 1   
    19   11   25 1   
    20   11   42 1   
    21   13   14 1   
    22   13   15 1   
    23   13   26 1   
    24   14   27 1   
    25   14   28 1   
    26   14   29 1   
    27   15   16 1   
    28   15   17 1   
    29   15   18 1   
    30   16   30 1   
    31   16   31 1   
    32   16   32 1   
    33   17   33 1   
    34   17   34 1   
    35   17   35 1   
    36   18   36 1   
    37   19   20 1   
    38   19   21 1   
    39   19   37 1   
    40   20   21 1   
    41   20   38 1   
    42   20   39 1   
    43   21   40 1   
    44   21   41 1   
@<TRIPOS>SUBSTRUCTURE
     1 19Q         1 TEMP              0 ****  ****    0 ROOT
