@<TRIPOS>MOLECULE
19R
   42    44     1     0     0
SMALL
bcc


@<TRIPOS>ATOM
      1 C1          0.1400   -0.6970    0.0280 ca        1 19R      0.309900
      2 C2          1.3960    0.0250   -0.0600 ca        1 19R      0.379300
      3 N3          2.1480    0.2740    1.0330 nb        1 19R     -0.597000
      4 N4         -0.3830   -1.1690    1.1600 nb        1 19R     -0.590000
      5 C5          0.3820   -0.9180    2.2670 ca        1 19R      0.282500
      6 C6          1.6490   -0.2000    2.1980 ca        1 19R      0.366800
      7 C7          2.1430   -0.1370    3.5640 cc        1 19R     -0.398000
      8 C8          1.1890   -0.7970    4.3740 cd        1 19R     -0.007100
      9 N9          0.1450   -1.2620    3.6140 na        1 19R     -0.214100
     10 C10         3.3890    0.4660    3.9210 c         1 19R      0.615300
     11 O11         4.3820    0.6920    3.2450 o         1 19R     -0.418100
     12 C12         1.8670    0.5010   -1.3760 cx        1 19R     -0.210000
     13 N13         3.4920    0.9540    5.3660 n4        1 19R     -0.682800
     14 C14         1.5990   -0.3180   -2.6180 cx        1 19R     -0.110400
     15 C15         0.8720    0.9730   -2.4120 cx        1 19R     -0.110400
     16 C16         4.5300    0.1980    6.1540 c3        1 19R      0.137500
     17 C17         4.7620    0.8880    7.5340 c3        1 19R      0.139800
     18 C18         5.6970    0.0400    8.3840 c3        1 19R     -0.139600
     19 C19         5.3420    2.2860    7.3470 c3        1 19R     -0.139600
     20 O20         3.4660    0.9790    8.1260 oh        1 19R     -0.634800
     21 C21         4.1310   -1.2600    6.3290 c3        1 19R     -0.129100
     22 H1         -0.4530   -0.8850   -0.8880 h4        1 19R      0.059100
     23 H2          1.2180   -0.9810    5.4550 h4        1 19R      0.185000
     24 H3         -0.6410   -1.7740    3.9380 hn        1 19R      0.341700
     25 H4          2.8400    1.0400   -1.3260 hc        1 19R      0.117700
     26 H5          2.5920    0.8700    5.8480 hn        1 19R      0.456800
     27 H6          1.0480   -1.2710   -2.5320 hc        1 19R      0.085450
     28 H7          2.3970   -0.3760   -3.3810 hc        1 19R      0.085450
     29 H8          1.1430    1.8520   -3.0250 hc        1 19R      0.085450
     30 H9         -0.2070    0.9560   -2.1760 hc        1 19R      0.085450
     31 H10         5.4920    0.2630    5.5610 hx        1 19R      0.119700
     32 H11         5.1850   -0.8970    8.7130 hc        1 19R      0.066200
     33 H12         6.6160   -0.2220    7.8090 hc        1 19R      0.066200
     34 H13         6.0000    0.6090    9.2970 hc        1 19R      0.066200
     35 H14         6.1830    2.2680    6.6130 hc        1 19R      0.066200
     36 H15         4.5600    3.0060    7.0050 hc        1 19R      0.066200
     37 H16         5.7380    2.6660    8.3220 hc        1 19R      0.066200
     38 H17         3.5850    1.2380    9.0490 ho        1 19R      0.445000
     39 H18         5.0210   -1.8330    6.6910 hc        1 19R      0.075700
     40 H19         3.3120   -1.3580    7.0830 hc        1 19R      0.075700
     41 H20         3.8020   -1.7140    5.3610 hc        1 19R      0.075700
     42 H132        3.7620    1.9450    5.3560 hn        1 19R      0.456800
@<TRIPOS>BOND
     1    1    2 ar  
     2    1    4 ar  
     3    1   22 1   
     4    2    3 ar  
     5    2   12 1   
     6    3    6 ar  
     7    4    5 ar  
     8    5    6 ar  
     9    5    9 1   
    10    6    7 1   
    11    7    8 2   
    12    7   10 1   
    13    8    9 1   
    14    8   23 1   
    15    9   24 1   
    16   10   11 2   
    17   10   13 1   
    18   12   14 1   
    19   12   15 1   
    20   12   25 1   
    21   13   16 1   
    22   13   26 1   
    23   13   42 1   
    24   14   15 1   
    25   14   27 1   
    26   14   28 1   
    27   15   29 1   
    28   15   30 1   
    29   16   17 1   
    30   16   21 1   
    31   16   31 1   
    32   17   18 1   
    33   17   19 1   
    34   17   20 1   
    35   18   32 1   
    36   18   33 1   
    37   18   34 1   
    38   19   35 1   
    39   19   36 1   
    40   19   37 1   
    41   20   38 1   
    42   21   39 1   
    43   21   40 1   
    44   21   41 1   
@<TRIPOS>SUBSTRUCTURE
     1 19R         1 TEMP              0 ****  ****    0 ROOT
