@<TRIPOS>MOLECULE
19R
   41    43     1     0     0
SMALL
bcc


@<TRIPOS>ATOM
      1 C1          4.1160   -0.8330    0.0750 ca        1 19R      0.295900
      2 C2          3.4870    0.4620   -0.0080 ca        1 19R      0.321300
      3 N3          2.1580    0.5990   -0.2090 nb        1 19R     -0.573000
      4 N4          3.4690   -1.9980   -0.0300 nb        1 19R     -0.629000
      5 C5          2.1250   -1.8650   -0.2340 ca        1 19R      0.296500
      6 C6          1.4660   -0.5540   -0.3320 ca        1 19R      0.347800
      7 C7          0.0610   -0.8360   -0.5480 cc        1 19R     -0.304000
      8 C8         -0.0840   -2.2250   -0.5670 cd        1 19R     -0.053100
      9 N9          1.1420   -2.8550   -0.3780 na        1 19R     -0.274100
     10 C10        -1.0000    0.1640   -0.7510 c         1 19R      0.701300
     11 O11        -0.8710    1.1350   -1.5190 o         1 19R     -0.581100
     12 C12         4.3130    1.6810    0.1310 cx        1 19R     -0.174000
     13 N13        -2.1910   -0.0780   -0.0790 n         1 19R     -0.562900
     14 C14         5.4930    1.6950    1.0710 cx        1 19R     -0.125400
     15 C15         5.7220    1.7080   -0.4100 cx        1 19R     -0.125400
     16 C16        -3.2580    0.8970   -0.0510 c3        1 19R      0.114700
     17 C17        -4.6580    0.2070   -0.1140 c3        1 19R      0.139800
     18 C18        -5.7620    1.2580   -0.0800 c3        1 19R     -0.122100
     19 C19        -4.7920   -0.6340   -1.3780 c3        1 19R     -0.122100
     20 O20        -4.7480   -0.6300    1.0410 oh        1 19R     -0.606800
     21 C21        -3.1890    1.8190    1.1690 c3        1 19R     -0.118100
     22 H1          5.2060   -0.9090    0.2380 h4        1 19R      0.033100
     23 H2         -0.9940   -2.8140   -0.7130 h4        1 19R      0.180000
     24 H3          1.3100   -3.8270   -0.3900 hn        1 19R      0.315700
     25 H4          3.7220    2.6200    0.0460 hc        1 19R      0.109700
     26 H5         -2.2040   -0.7520    0.6510 hn        1 19R      0.312500
     27 H6          5.6840    2.6120    1.6550 hc        1 19R      0.075200
     28 H7          5.7370    0.7840    1.6470 hc        1 19R      0.075200
     29 H8          6.1300    0.8070   -0.9020 hc        1 19R      0.075200
     30 H9          6.0760    2.6350   -0.8940 hc        1 19R      0.075200
     31 H10        -3.1660    1.5300   -0.9850 h1        1 19R      0.086700
     32 H11        -5.5480    2.0640   -0.8210 hc        1 19R      0.045533
     33 H12        -6.7450    0.7910   -0.3310 hc        1 19R      0.045533
     34 H13        -5.8370    1.7060    0.9400 hc        1 19R      0.045533
     35 H14        -4.1070   -1.5140   -1.3370 hc        1 19R      0.045533
     36 H15        -5.8380   -1.0110   -1.4820 hc        1 19R      0.045533
     37 H16        -4.5400   -0.0190   -2.2730 hc        1 19R      0.045533
     38 H17        -5.6160   -1.0490    1.0110 ho        1 19R      0.401000
     39 H18        -3.4920    1.2700    2.0920 hc        1 19R      0.046700
     40 H19        -2.1550    2.2180    1.3030 hc        1 19R      0.046700
     41 H20        -3.8780    2.6840    1.0200 hc        1 19R      0.046700
@<TRIPOS>BOND
     1    1    2 ar  
     2    1    4 ar  
     3    1   22 1   
     4    2    3 ar  
     5    2   12 1   
     6    3    6 ar  
     7    4    5 ar  
     8    5    6 ar  
     9    5    9 1   
    10    6    7 1   
    11    7    8 2   
    12    7   10 1   
    13    8    9 1   
    14    8   23 1   
    15    9   24 1   
    16   10   11 2   
    17   10   13 1   
    18   12   14 1   
    19   12   15 1   
    20   12   25 1   
    21   13   16 1   
    22   13   26 1   
    23   14   15 1   
    24   14   27 1   
    25   14   28 1   
    26   15   29 1   
    27   15   30 1   
    28   16   17 1   
    29   16   21 1   
    30   16   31 1   
    31   17   18 1   
    32   17   19 1   
    33   17   20 1   
    34   18   32 1   
    35   18   33 1   
    36   18   34 1   
    37   19   35 1   
    38   19   36 1   
    39   19   37 1   
    40   20   38 1   
    41   21   39 1   
    42   21   40 1   
    43   21   41 1   
@<TRIPOS>SUBSTRUCTURE
     1 19R         1 TEMP              0 ****  ****    0 ROOT
