@<TRIPOS>MOLECULE
19R
   42    44     1     0     0
SMALL
bcc


@<TRIPOS>ATOM
      1 C1          0.1080   -0.6980    0.0510 ca        1 19R      0.309900
      2 C2          1.3710    0.0120   -0.0490 ca        1 19R      0.379300
      3 N3          2.1320    0.2600    1.0360 nb        1 19R     -0.597000
      4 N4         -0.4100   -1.1590    1.1900 nb        1 19R     -0.590000
      5 C5          0.3640   -0.9080    2.2900 ca        1 19R      0.282500
      6 C6          1.6370   -0.2020    2.2080 ca        1 19R      0.366800
      7 C7          2.1410   -0.1350    3.5700 cc        1 19R     -0.398000
      8 C8          1.1870   -0.7820    4.3910 cd        1 19R     -0.007100
      9 N9          0.1340   -1.2420    3.6410 na        1 19R     -0.214100
     10 C10         3.3950    0.4590    3.9150 c         1 19R      0.615300
     11 O11         4.3870    0.6680    3.2320 o         1 19R     -0.418100
     12 C12         1.8370    0.4760   -1.3720 cx        1 19R     -0.210000
     13 N13         3.5110    0.9580    5.3550 ny        1 19R     -0.682800
     14 C14         1.5520   -0.3470   -2.6070 cx        1 19R     -0.110400
     15 C15         0.8390    0.9510   -2.4030 cx        1 19R     -0.110400
     16 C16         4.5460    0.1990    6.1440 c3        1 19R      0.137500
     17 C17         4.7930    0.9000    7.5160 c3        1 19R      0.139800
     18 C18         5.7230    0.0490    8.3690 c3        1 19R     -0.139600
     19 C19         5.3870    2.2890    7.3130 c3        1 19R     -0.139600
     20 O20         3.5010    1.0090    8.1140 oh        1 19R     -0.634800
     21 C21         4.1330   -1.2540    6.3350 c3        1 19R     -0.129100
     22 H1         -0.4920   -0.8860   -0.8600 h4        1 19R      0.059100
     23 H2          1.2220   -0.9590    5.4730 h4        1 19R      0.185000
     24 H3         -0.6550   -1.7450    3.9730 hn        1 19R      0.341700
     25 H4          2.8140    1.0060   -1.3310 hc        1 19R      0.117700
     26 H5          2.6130    0.8870    5.8430 hn        1 19R      0.457300
     27 H6          0.9930   -1.2950   -2.5110 hc        1 19R      0.085450
     28 H7          2.3450   -0.4160   -3.3750 hc        1 19R      0.085450
     29 H8         -0.2390    0.9460   -2.1590 hc        1 19R      0.085450
     30 H9          1.1120    1.8240   -3.0230 hc        1 19R      0.085450
     31 H10         5.5050    0.2480    5.5450 hx        1 19R      0.119700
     32 H11         6.0380    0.6240    9.2750 hc        1 19R      0.066200
     33 H12         6.6360   -0.2280    7.7910 hc        1 19R      0.066200
     34 H13         5.2030   -0.8790    8.7100 hc        1 19R      0.066200
     35 H14         5.7920    2.6740    8.2810 hc        1 19R      0.066200
     36 H15         6.2230    2.2560    6.5740 hc        1 19R      0.066200
     37 H16         4.6100    3.0140    6.9680 hc        1 19R      0.066200
     38 H17         3.6280    1.2760    9.0340 ho        1 19R      0.445000
     39 H18         3.7930   -1.7130    5.3740 hc        1 19R      0.075700
     40 H19         5.0190   -1.8330    6.6980 hc        1 19R      0.075700
     41 H20         3.3170   -1.3360    7.0960 hc        1 19R      0.075700
     42 H132        3.7910    1.9460    5.3350 hn        1 19R      0.457300
@<TRIPOS>BOND
     1    1    2 ar  
     2    1    4 ar  
     3    1   22 1   
     4    2    3 ar  
     5    2   12 1   
     6    3    6 ar  
     7    4    5 ar  
     8    5    6 ar  
     9    5    9 1   
    10    6    7 1   
    11    7    8 2   
    12    7   10 1   
    13    8    9 1   
    14    8   23 1   
    15    9   24 1   
    16   10   11 2   
    17   10   13 1   
    18   12   14 1   
    19   12   15 1   
    20   12   25 1   
    21   13   16 1   
    22   13   26 1   
    23   13   42 1   
    24   14   15 1   
    25   14   27 1   
    26   14   28 1   
    27   15   29 1   
    28   15   30 1   
    29   16   17 1   
    30   16   21 1   
    31   16   31 1   
    32   17   18 1   
    33   17   19 1   
    34   17   20 1   
    35   18   32 1   
    36   18   33 1   
    37   18   34 1   
    38   19   35 1   
    39   19   36 1   
    40   19   37 1   
    41   20   38 1   
    42   21   39 1   
    43   21   40 1   
    44   21   41 1   
@<TRIPOS>SUBSTRUCTURE
     1 19R         1 TEMP              0 ****  ****    0 ROOT
