@<TRIPOS>MOLECULE
19R
   42    44     1     0     0
SMALL
bcc


@<TRIPOS>ATOM
      1 C1          0.1490   -0.7230    0.0260 ca        1 19R      0.309900
      2 C2          1.3850    0.0340   -0.0560 ca        1 19R      0.379300
      3 N3          2.1350    0.2880    1.0370 nb        1 19R     -0.597000
      4 N4         -0.3550   -1.2250    1.1530 nb        1 19R     -0.590000
      5 C5          0.4070   -0.9690    2.2610 ca        1 19R      0.282500
      6 C6          1.6540   -0.2160    2.1970 ca        1 19R      0.366800
      7 C7          2.1520   -0.1590    3.5620 cc        1 19R     -0.398000
      8 C8          1.2200   -0.8560    4.3660 cd        1 19R     -0.007100
      9 N9          0.1860   -1.3370    3.6040 na        1 19R     -0.214100
     10 C10         3.3830    0.4730    3.9230 c         1 19R      0.615300
     11 O11         4.3680    0.7330    3.2460 o         1 19R     -0.418100
     12 C12         1.8370    0.5410   -1.3680 cx        1 19R     -0.210000
     13 N13         3.4770    0.9470    5.3730 n4        1 19R     -0.682800
     14 C14         1.5860   -0.2670   -2.6200 cx        1 19R     -0.110400
     15 C15         0.8250    1.0000   -2.3920 cx        1 19R     -0.110400
     16 C16         4.5370    0.2100    6.1490 c3        1 19R      0.137500
     17 C17         4.7560    0.8910    7.5360 c3        1 19R      0.139800
     18 C18         5.7150    0.0590    8.3740 c3        1 19R     -0.139600
     19 C19         5.2980    2.3060    7.3630 c3        1 19R     -0.139600
     20 O20         3.4600    0.9410    8.1330 oh        1 19R     -0.634800
     21 C21         4.1780   -1.2600    6.3090 c3        1 19R     -0.129100
     22 H1         -0.4420   -0.9140   -0.8900 h4        1 19R      0.059100
     23 H2          1.2580   -1.0530    5.4450 h4        1 19R      0.185000
     24 H3         -0.5850   -1.8760    3.9240 hn        1 19R      0.341700
     25 H4          2.7950    1.1050   -1.3140 hc        1 19R      0.117700
     26 H5          2.5810    0.8330    5.8570 hn        1 19R      0.456800
     27 H6          1.0610   -1.2360   -2.5450 hc        1 19R      0.085450
     28 H7          2.3820   -0.2920   -3.3870 hc        1 19R      0.085450
     29 H8          1.0690    1.8950   -2.9940 hc        1 19R      0.085450
     30 H9         -0.2520    0.9510   -2.1520 hc        1 19R      0.085450
     31 H10         5.4960    0.3080    5.5540 hx        1 19R      0.119700
     32 H11         6.0070    0.6260    9.2920 hc        1 19R      0.066200
     33 H12         6.6390   -0.1730    7.7930 hc        1 19R      0.066200
     34 H13         5.2290   -0.8950    8.6940 hc        1 19R      0.066200
     35 H14         5.6870    2.6860    8.3400 hc        1 19R      0.066200
     36 H15         4.4960    3.0080    7.0310 hc        1 19R      0.066200
     37 H16         6.1360    2.3190    6.6260 hc        1 19R      0.066200
     38 H17         3.5750    1.1920    9.0580 ho        1 19R      0.445000
     39 H18         5.0840   -1.8130    6.6620 hc        1 19R      0.075700
     40 H19         3.3650   -1.3880    7.0650 hc        1 19R      0.075700
     41 H20         3.8580   -1.7120    5.3370 hc        1 19R      0.075700
     42 H132        3.7200    1.9450    5.3740 hn        1 19R      0.456800
@<TRIPOS>BOND
     1    1    2 ar  
     2    1    4 ar  
     3    1   22 1   
     4    2    3 ar  
     5    2   12 1   
     6    3    6 ar  
     7    4    5 ar  
     8    5    6 ar  
     9    5    9 1   
    10    6    7 1   
    11    7    8 2   
    12    7   10 1   
    13    8    9 1   
    14    8   23 1   
    15    9   24 1   
    16   10   11 2   
    17   10   13 1   
    18   12   14 1   
    19   12   15 1   
    20   12   25 1   
    21   13   16 1   
    22   13   26 1   
    23   13   42 1   
    24   14   15 1   
    25   14   27 1   
    26   14   28 1   
    27   15   29 1   
    28   15   30 1   
    29   16   17 1   
    30   16   21 1   
    31   16   31 1   
    32   17   18 1   
    33   17   19 1   
    34   17   20 1   
    35   18   32 1   
    36   18   33 1   
    37   18   34 1   
    38   19   35 1   
    39   19   36 1   
    40   19   37 1   
    41   20   38 1   
    42   21   39 1   
    43   21   40 1   
    44   21   41 1   
@<TRIPOS>SUBSTRUCTURE
     1 19R         1 TEMP              0 ****  ****    0 ROOT
