@<TRIPOS>MOLECULE
19R
   41    33     1     0     0
SMALL
bcc


@<TRIPOS>ATOM
      1 C1         -3.7050    1.5240   -2.7870 c1        1 19R     -0.099000
      2 C2         -2.6290    0.6720   -3.0250 c1        1 19R     -0.034000
      3 N3         -1.7740    0.3710   -2.0290 n1        1 19R     -0.057000
      4 N4         -3.8900    2.0490   -1.5590 n1        1 19R     -0.102000
      5 C5         -3.0230    1.7450   -0.5480 c1        1 19R     -0.028000
      6 C6         -1.9610    0.9030   -0.7830 c1        1 19R     -0.028000
      7 C7         -1.2560    0.7650    0.4010 c1        1 19R     -0.179000
      8 C8         -1.8900    1.5280    1.3670 c1        1 19R     -0.022000
      9 N9         -2.9780    2.1310    0.7860 n1        1 19R     -0.187000
     10 C10        -0.2170   -0.2850    0.8170 c1        1 19R      0.371000
     11 O11        -0.4290   -1.4670    0.6080 o         1 19R     -0.344000
     12 C12        -2.8280    0.1610   -4.4580 cu        1 19R     -0.138000
     13 N13         0.9860    0.1230    1.4980 n2        1 19R     -0.361000
     14 C14        -1.6490   -0.5860   -5.0630 cx        1 19R     -0.188000
     15 C15        -2.8860   -1.3510   -4.6180 cx        1 19R     -0.188000
     16 C16         1.7610   -0.8380    2.2100 c3        1 19R      0.030000
     17 C17         3.1990   -0.3470    2.3250 c3        1 19R      0.050000
     18 C18         4.1020   -1.5050    2.7950 c3        1 19R     -0.244000
     19 C19         3.6800    0.1550    0.9540 c3        1 19R     -0.244000
     20 O20         3.2620    0.7150    3.2670 oh        1 19R     -0.336000
     21 C21         1.1810   -1.0300    3.5950 c3        1 19R     -0.217000
     22 H1         -4.3280    1.7430   -3.5140 ha        1 19R      0.170000
     23 H2         -1.6230    1.6040    2.3080 DU        1 19R      0.224500
     24 H3         -3.5710    2.6920    1.2060 DU        1 19R      0.224500
     25 H4         -3.3740    0.6780   -5.0900 ha        1 19R      0.122000
     26 H5          1.2350    1.0060    1.5000 hn        1 19R      0.222000
     27 H6         -1.5340   -0.4870   -6.0340 hc        1 19R      0.119000
     28 H7         -0.8610   -0.6770   -4.4850 hc        1 19R      0.119000
     29 H8         -3.4650   -1.6810   -5.3400 hc        1 19R      0.119000
     30 H9         -2.7910   -1.8710   -3.7920 hc        1 19R      0.119000
     31 H10         1.7450   -1.6940    1.7270 h1        1 19R      0.127000
     32 H11         4.0970   -2.2200    2.1180 hc        1 19R      0.087500
     33 H12         5.0210   -1.1760    2.9170 hc        1 19R      0.087500
     34 H13         3.7640   -1.8600    3.6480 hc        1 19R      0.087500
     35 H14         3.3770   -0.4640    0.2540 hc        1 19R      0.087500
     36 H15         3.3090    1.0500    0.7840 hc        1 19R      0.087500
     37 H16         4.6630    0.2020    0.9490 hc        1 19R      0.087500
     38 H17         4.1150    0.9380    3.4060 ho        1 19R      0.201000
     39 H18         1.6890   -1.7260    4.0700 hc        1 19R      0.084000
     40 H19         1.2370   -0.1850    4.0940 hc        1 19R      0.084000
     41 H20         0.2410   -1.3040    3.5200 hc        1 19R      0.084000
@<TRIPOS>BOND
     1    1    4 1   
     2    1   22 1   
     3    2    3 1   
     4    5    6 1   
     5    7    8 1   
     6    8    9 1   
     7   10   11 1   
     8   12   14 1   
     9   12   15 1   
    10   12   25 1   
    11   13   16 1   
    12   13   26 1   
    13   14   15 1   
    14   14   27 1   
    15   14   28 1   
    16   15   29 1   
    17   15   30 1   
    18   16   17 1   
    19   16   21 1   
    20   16   31 1   
    21   17   18 1   
    22   17   19 1   
    23   17   20 1   
    24   18   32 1   
    25   18   33 1   
    26   18   34 1   
    27   19   35 1   
    28   19   36 1   
    29   19   37 1   
    30   20   38 1   
    31   21   39 1   
    32   21   40 1   
    33   21   41 1   
@<TRIPOS>SUBSTRUCTURE
     1 19R         1 TEMP              0 ****  ****    0 ROOT
