@<TRIPOS>MOLECULE
19S
   48    51     1     0     0
SMALL
bcc


@<TRIPOS>ATOM
      1 N1          4.5650    0.0400    0.4560 n         1 19S     -0.446800
      2 C2          5.5390    0.6610   -0.4260 c3        1 19S      0.080000
      3 C3          5.7110   -0.0650   -1.7610 c3        1 19S     -0.103900
      4 C4          5.9660   -1.5430   -1.5570 c3        1 19S     -0.078400
      5 C5          4.9140   -2.1630   -0.6610 c3        1 19S     -0.103900
      6 C6          4.7840   -1.3770    0.6470 c3        1 19S      0.080000
      7 N7         -4.5220    1.5770   -1.0180 nb        1 19S     -0.627000
      8 C8         -4.4590   -0.7450   -0.2110 ca        1 19S      0.322300
      9 C9         -5.1280    0.4200   -0.7350 ca        1 19S      0.294900
     10 N10        -3.1310   -0.7570    0.0360 nb        1 19S     -0.572000
     11 C11        -2.4770    0.3920   -0.2460 ca        1 19S      0.352800
     12 C12        -3.1790    1.5710   -0.7720 ca        1 19S      0.294500
     13 N13        -2.2370    2.5970   -0.9390 na        1 19S     -0.271100
     14 C14        -0.9940    2.1130   -0.5500 cc        1 19S     -0.049100
     15 C15        -1.0870    0.7830   -0.1250 cd        1 19S     -0.309000
     16 N17         0.9290    0.5300    1.1980 n         1 19S     -0.544900
     17 O18         0.1490   -1.2570   -0.0230 o         1 19S     -0.578100
     18 C19         2.2200   -0.0640    1.4510 c3        1 19S      0.033700
     19 C20        -5.2420   -1.9690    0.0680 cx        1 19S     -0.175000
     20 C21        -6.6580   -1.8620    0.5790 cx        1 19S     -0.125400
     21 C22        -6.4060   -2.3430   -0.8170 cx        1 19S     -0.125400
     22 C23         3.3420    0.6620    0.6610 c         1 19S      0.628100
     23 C24         2.5990   -0.0150    2.9330 c3        1 19S     -0.100100
     24 O25         3.1690    1.8430    0.2860 o         1 19S     -0.631100
     25 H1          5.2420    1.7310   -0.6190 h1        1 19S      0.058700
     26 H2          6.5260    0.6610    0.1200 h1        1 19S      0.058700
     27 H3          4.7940    0.0770   -2.3900 hc        1 19S      0.053200
     28 H4          6.5720    0.4010   -2.3060 hc        1 19S      0.053200
     29 H5          5.9730   -2.0660   -2.5480 hc        1 19S      0.043200
     30 H6          6.9790   -1.6860   -1.0950 hc        1 19S      0.043200
     31 H7          3.9270   -2.1870   -1.1920 hc        1 19S      0.053200
     32 H8          5.1940   -3.2190   -0.4130 hc        1 19S      0.053200
     33 H9          5.7510   -1.4820    1.2230 h1        1 19S      0.058700
     34 H10         3.9700   -1.8320    1.2730 h1        1 19S      0.058700
     35 H12        -2.4290    3.4920   -1.3090 hn        1 19S      0.317700
     36 H13        -0.1040    2.7490   -0.6150 h4        1 19S      0.187000
     37 H14         0.8920    1.5200    1.2980 hn        1 19S      0.310500
     38 H15         2.1560   -1.1430    1.1140 h1        1 19S      0.103700
     39 H16        -4.6220   -2.8020    0.4660 hc        1 19S      0.110700
     40 H17        -6.9900   -2.5830    1.3470 hc        1 19S      0.075200
     41 H18        -7.1040   -0.8640    0.7350 hc        1 19S      0.075200
     42 H19        -6.6700   -1.6910   -1.6690 hc        1 19S      0.075200
     43 H20        -6.5550   -3.4100   -1.0570 hc        1 19S      0.075200
     44 H21         1.8260   -0.5390    3.5450 hc        1 19S      0.051033
     45 H22         3.5810   -0.5250    3.0790 hc        1 19S      0.051033
     46 H23         2.6850    1.0390    3.2890 hc        1 19S      0.051033
     47 C16         0.0240   -0.0670    0.3190 c         1 19S      0.702300
     48 H11        -6.2160    0.3940   -0.9260 h4        1 19S      0.034100
@<TRIPOS>BOND
     1    1    2 1   
     2    1    6 1   
     3    1   22 1   
     4    2    3 1   
     5    2   25 1   
     6    2   26 1   
     7    3    4 1   
     8    3   27 1   
     9    3   28 1   
    10    4    5 1   
    11    4   29 1   
    12    4   30 1   
    13    5    6 1   
    14    5   31 1   
    15    5   32 1   
    16    6   33 1   
    17    6   34 1   
    18    7    9 ar  
    19    7   12 ar  
    20    8    9 ar  
    21    8   10 ar  
    22    8   19 1   
    23    9   48 1   
    24   10   11 ar  
    25   11   12 ar  
    26   11   15 1   
    27   12   13 1   
    28   13   14 1   
    29   13   35 1   
    30   14   15 2   
    31   14   36 1   
    32   15   47 1   
    33   16   18 1   
    34   16   37 1   
    35   16   47 1   
    36   17   47 2   
    37   18   22 1   
    38   18   23 1   
    39   18   38 1   
    40   19   20 1   
    41   19   21 1   
    42   19   39 1   
    43   20   21 1   
    44   20   40 1   
    45   20   41 1   
    46   21   42 1   
    47   21   43 1   
    48   22   24 2   
    49   23   44 1   
    50   23   45 1   
    51   23   46 1   
@<TRIPOS>SUBSTRUCTURE
     1 19S         1 TEMP              0 ****  ****    0 ROOT
