@<TRIPOS>MOLECULE
19S
   48    42     1     0     0
SMALL
bcc


@<TRIPOS>ATOM
      1 N1          2.9180    1.8530    2.0910 n         1 19S     -0.307000
      2 C2          4.3750    1.8690    2.1910 c3        1 19S     -0.037000
      3 C3          4.8740    1.1980    3.4630 c3        1 19S     -0.183500
      4 C4          4.2020    1.7290    4.6820 c3        1 19S     -0.156000
      5 C5          2.7170    1.7040    4.5570 c3        1 19S     -0.183500
      6 C6          2.2360    2.3710    3.2750 c3        1 19S     -0.037000
      7 N7         -2.7570   -4.1550   -2.3890 n1        1 19S     -0.096000
      8 C8         -3.5590   -2.2420   -3.5400 c1        1 19S     -0.023000
      9 C9         -3.4780   -3.6250   -3.3950 c2        1 19S     -0.108000
     10 N10        -2.9170   -1.4350   -2.6740 n1        1 19S     -0.080000
     11 C11        -2.1850   -1.9730   -1.6540 c1        1 19S     -0.030000
     12 C12        -2.1040   -3.3380   -1.5110 c1        1 19S     -0.030000
     13 N13        -1.2980   -3.6080   -0.4130 n1        1 19S     -0.187000
     14 C14        -0.8850   -2.4110    0.1160 c1        1 19S      0.020000
     15 C15        -1.4300   -1.3940   -0.6480 c1        1 19S     -0.192000
     16 C16        -1.0530   -0.1490    0.1600 c1        1 19S      0.382000
     17 N17         0.2020    0.5110   -0.0800 n2        1 19S     -0.342000
     18 O18        -1.8280    0.2970    0.9880 o         1 19S     -0.404000
     19 C19         0.6960    1.4610    0.8570 c3        1 19S      0.010000
     20 C20        -4.0600   -1.2720   -4.6150 cu        1 19S     -0.123000
     21 C21        -4.2800   -1.8730   -5.9960 cx        1 19S     -0.202500
     22 C22        -5.4740   -1.5190   -5.1210 cx        1 19S     -0.202500
     23 C23         2.2120    1.3680    0.9220 c2        1 19S      0.271000
     24 C24         0.2940    2.8580    0.4220 c3        1 19S     -0.219000
     25 O25         2.8380    0.9470   -0.0370 o         1 19S     -0.371000
     26 H1          4.6850    2.8030    2.1810 h1        1 19S      0.097750
     27 H2          4.7530    1.4000    1.4140 h1        1 19S      0.097750
     28 H3          5.8440    1.3480    3.5430 hc        1 19S      0.091500
     29 H4          4.7050    0.2310    3.4010 hc        1 19S      0.091500
     30 H5          4.4660    1.1830    5.4570 hc        1 19S      0.081000
     31 H6          4.4940    2.6570    4.8300 hc        1 19S      0.081000
     32 H7          2.3240    2.1740    5.3280 hc        1 19S      0.091500
     33 H8          2.4120    0.7690    4.5630 hc        1 19S      0.091500
     34 H9          1.2720    2.2170    3.1800 h1        1 19S      0.097750
     35 H10         2.3990    3.3400    3.3390 h1        1 19S      0.097750
     36 H11        -3.9460   -4.2130   -4.0260 h4        1 19S      0.172000
     37 H12        -1.0790   -4.4410   -0.0970 DU        1 19S      0.233000
     38 H13        -0.3070   -2.2960    0.9000 DU        1 19S      0.233000
     39 H14         0.6720    0.3370   -0.8480 hn        1 19S      0.257000
     40 H15         0.3180    1.2730    1.7440 h1        1 19S      0.140000
     41 H16        -3.7700   -0.3340   -4.6000 ha        1 19S      0.148000
     42 H17        -4.0830   -2.8310   -6.0810 hc        1 19S      0.115750
     43 H18        -4.1140   -1.2710   -6.7550 hc        1 19S      0.115750
     44 H19        -5.9760   -0.7180   -5.3900 hc        1 19S      0.115750
     45 H20        -5.9450   -2.2790   -4.7160 hc        1 19S      0.115750
     46 H21        -0.2410    3.2810    1.1310 hc        1 19S      0.090000
     47 H22         1.1000    3.3940    0.2550 hc        1 19S      0.090000
     48 H23        -0.2400    2.8030   -0.4020 hc        1 19S      0.090000
@<TRIPOS>BOND
     1    1    2 1   
     2    1    6 1   
     3    1   23 1   
     4    2    3 1   
     5    2   26 1   
     6    2   27 1   
     7    3    4 1   
     8    3   28 1   
     9    3   29 1   
    10    4    5 1   
    11    4   30 1   
    12    4   31 1   
    13    5    6 1   
    14    5   32 1   
    15    5   33 1   
    16    6   34 1   
    17    6   35 1   
    18    7    9 1   
    19    8    9 1   
    20    8   10 1   
    21    9   36 1   
    22   11   12 1   
    23   13   14 1   
    24   14   15 1   
    25   16   18 1   
    26   17   19 1   
    27   17   39 1   
    28   19   23 1   
    29   19   24 1   
    30   19   40 1   
    31   20   21 1   
    32   20   22 1   
    33   20   41 1   
    34   21   22 1   
    35   21   42 1   
    36   21   43 1   
    37   22   44 1   
    38   22   45 1   
    39   23   25 1   
    40   24   46 1   
    41   24   47 1   
    42   24   48 1   
@<TRIPOS>SUBSTRUCTURE
     1 19S         1 TEMP              0 ****  ****    0 ROOT
