@<TRIPOS>MOLECULE
19S
   49    49     1     0     0
SMALL
bcc


@<TRIPOS>ATOM
      1 N1         -0.7820   -0.5800    1.4330 n2        1 19S     -0.716900
      2 C2          0.5910   -0.1940    1.2270 c3        1 19S      0.103800
      3 C3          1.3180    0.3610    2.4520 c3        1 19S     -0.104400
      4 C4          0.4240    1.2890    3.2480 c3        1 19S     -0.085400
      5 C5         -0.8850    0.6160    3.6130 c3        1 19S     -0.182700
      6 C6         -1.4210   -0.2100    2.4870 c2        1 19S      0.493200
      7 N7         -6.9710   -5.7610   -1.2290 n1        1 19S     -0.746400
      8 C8         -7.3420   -4.6810    1.0030 c3        1 19S     -0.055400
      9 C9         -7.7780   -5.5370   -0.1610 c1        1 19S      0.385700
     10 N10        -6.0800   -3.9550    0.9140 n2        1 19S     -0.463900
     11 C11        -5.4340   -4.0750   -0.1970 cc        1 19S      0.326300
     12 C12        -5.8620   -5.0340   -1.3040 cc        1 19S      0.419300
     13 N13        -4.8770   -4.9650   -2.3080 na        1 19S     -0.289300
     14 C14        -3.9040   -4.0560   -1.9350 cd        1 19S      0.072900
     15 C15        -4.1700   -3.4890   -0.6880 cc        1 19S     -0.390800
     16 N17        -2.0780   -2.1350   -0.4810 n4        1 19S     -0.803400
     17 O18        -3.7620   -1.9030    1.0680 o         1 19S     -0.434100
     18 C19        -1.5740   -1.0130   -4.1800 c1        1 19S     -0.069100
     19 C20        -7.4540   -5.4890    2.3180 c3        1 19S      0.008800
     20 C21        -9.8270   -6.1890    2.0180 c2        1 19S     -0.178000
     21 C22        -8.8630   -5.6410    2.7550 c2        1 19S     -0.210200
     22 C23        -1.2690   -2.0010   -3.5800 c1        1 19S     -0.144400
     23 C24        -1.9640    0.1710   -4.8710 c3        1 19S     -0.031000
     24 O25        -0.9430   -3.1020   -2.9090 oh        1 19S     -0.447600
     25 H1         -0.2080   -3.5190   -3.4030 ho        1 19S      0.466000
     26 H2          0.6070    0.5780    0.4050 h1        1 19S      0.061200
     27 H3          1.1410   -1.1050    0.8540 h1        1 19S      0.061200
     28 H4          1.6550   -0.4870    3.1040 hc        1 19S      0.063700
     29 H5          2.2330    0.9100    2.1130 hc        1 19S      0.063700
     30 H6          0.9530    1.6110    4.1830 hc        1 19S      0.062200
     31 H7          0.2160    2.2140    2.6480 hc        1 19S      0.062200
     32 H8         -1.6470    1.3880    3.9000 hc        1 19S      0.083700
     33 H9         -0.7420   -0.0600    4.5010 hc        1 19S      0.083700
     34 H10        -2.4790   -0.5420    2.5830 h4        1 19S      0.036800
     35 H13        -3.0510   -3.8610   -2.6070 h4        1 19S      0.200000
     36 H14        -2.1670   -1.6060   -1.3510 hn        1 19S      0.475133
     37 H15        -1.5600   -1.5290    0.2480 hn        1 19S      0.475133
     38 H16        -6.9900   -6.4990    2.1570 hc        1 19S      0.063700
     39 H17        -6.8670   -4.9690    3.1220 hc        1 19S      0.063700
     40 H18       -10.8520   -6.3070    2.3980 ha        1 19S      0.133000
     41 H19        -9.6590   -6.5460    0.9900 ha        1 19S      0.133000
     42 H20        -9.0630   -5.2850    3.7800 ha        1 19S      0.129000
     43 H21        -3.0700    0.1780   -5.0550 hc        1 19S      0.078367
     44 H22        -1.6910    1.0850   -4.2820 hc        1 19S      0.078367
     45 H23        -1.4400    0.2210   -5.8640 hc        1 19S      0.078367
     46 H11        -8.1430   -3.8630    1.0500 h1        1 19S      0.164700
     47 H172       -1.5310   -2.9730   -0.6780 hn        1 19S      0.475133
     48 C16        -3.4380   -2.5000    0.0470 c         1 19S      0.604300
     49 H12        -4.8920   -5.4910   -3.1510 hn        1 19S      0.346700
@<TRIPOS>BOND
     1    1    2 1   
     2    1    6 2   
     3    2    3 1   
     4    2   26 1   
     5    2   27 1   
     6    3    4 1   
     7    3   28 1   
     8    3   29 1   
     9    4    5 1   
    10    4   30 1   
    11    4   31 1   
    12    5    6 1   
    13    5   32 1   
    14    5   33 1   
    15    6   34 1   
    16    7    9 3   
    17    7   12 1   
    18    8    9 1   
    19    8   10 1   
    20    8   19 1   
    21    8   46 1   
    22   10   11 2   
    23   11   12 1   
    24   11   15 1   
    25   12   13 2   
    26   13   14 1   
    27   13   49 1   
    28   14   15 2   
    29   14   35 1   
    30   15   48 1   
    31   16   36 1   
    32   16   37 1   
    33   16   47 1   
    34   16   48 1   
    35   17   48 2   
    36   18   22 3   
    37   18   23 1   
    38   19   21 1   
    39   19   38 1   
    40   19   39 1   
    41   20   21 2   
    42   20   40 1   
    43   20   41 1   
    44   21   42 1   
    45   22   24 1   
    46   23   43 1   
    47   23   44 1   
    48   23   45 1   
    49   24   25 1   
@<TRIPOS>SUBSTRUCTURE
     1 19S         1 TEMP              0 ****  ****    0 ROOT
