@<TRIPOS>MOLECULE
19S
   49    49     1     0     0
SMALL
bcc


@<TRIPOS>ATOM
      1 N1         -2.0320    1.0900    0.3270 ne        1 19S     -0.698100
      2 C2          2.8140   -1.0690    1.0310 c3        1 19S     -0.096100
      3 C3          2.6140    0.2430    1.7440 c3        1 19S     -0.081400
      4 C4          1.5020    1.0770    1.1420 c3        1 19S     -0.075400
      5 C5          0.1330    0.5300    1.4970 c3        1 19S     -0.201700
      6 C6         -0.9510    1.4000    0.9530 c2        1 19S      0.572200
      7 N7         -5.7190   -7.2700   -1.6610 n1        1 19S     -1.131500
      8 C8         -7.2890   -5.4500    0.4540 ce        1 19S      0.566500
      9 C9         -6.2260   -8.3440   -1.6120 c1        1 19S      0.561800
     10 N10        -6.3220   -4.6530    0.1130 nf        1 19S     -0.656300
     11 C11        -5.4250   -4.8850   -0.9070 cd        1 19S      0.179600
     12 C12        -5.1420   -6.0360   -1.7020 cc        1 19S      0.518600
     13 N13        -4.0850   -5.7150   -2.5980 na        1 19S     -0.217300
     14 C14        -3.7020   -4.4210   -2.3960 cd        1 19S      0.301500
     15 C15        -4.4890   -3.8570   -1.3610 cd        1 19S     -0.318600
     16 N17        -5.0690   -2.0120    0.1430 nv        1 19S     -0.778600
     17 O18        -3.4090   -1.8070   -1.5400 os        1 19S     -0.313900
     18 C19        -3.1830   -0.3970   -1.2860 c3        1 19S      0.071100
     19 C20        -8.1840   -5.1280    1.5610 ce        1 19S     -0.298600
     20 C21       -10.1260   -5.6800    3.0050 c3        1 19S     -0.090900
     21 C22        -9.1940   -5.9480    1.8960 c2        1 19S     -0.059200
     22 C23        -2.4810   -0.2130    0.0650 c         1 19S      0.669500
     23 C24        -2.3220    0.0460   -2.4540 c3        1 19S     -0.097100
     24 O25        -2.4770   -1.1550    0.8780 o         1 19S     -0.572100
     25 H1          1.9020   -1.7100    1.1080 hc        1 19S      0.036700
     26 H2          3.0370   -0.9020   -0.0500 hc        1 19S      0.036700
     27 H3          3.6700   -1.6250    1.4850 hc        1 19S      0.036700
     28 H4          2.3980    0.0550    2.8290 hc        1 19S      0.051700
     29 H5          3.5670    0.8360    1.6960 hc        1 19S      0.051700
     30 H6          1.6180    1.1080    0.0270 hc        1 19S      0.048200
     31 H7          1.5890    2.1310    1.5190 hc        1 19S      0.048200
     32 H8          0.0120    0.5070    2.6170 hc        1 19S      0.084200
     33 H9          0.0320   -0.5290    1.1360 hc        1 19S      0.084200
     34 H10        -0.7990    2.4970    1.0960 h4        1 19S      0.041800
     35 H13        -2.8990   -3.9430   -2.9710 h4        1 19S      0.077800
     36 H14        -4.8370   -1.1300    0.5490 hn        1 19S      0.490800
     37 H15        -5.7310   -2.5940    0.6280 hn        1 19S      0.490800
     38 H16        -8.0010   -4.1920    2.1160 ha        1 19S      0.147000
     39 H17        -9.8970   -4.7190    3.5280 hc        1 19S      0.064700
     40 H18       -11.1750   -5.6320    2.6160 hc        1 19S      0.064700
     41 H19       -10.0730   -6.5120    3.7540 hc        1 19S      0.064700
     42 H20        -9.3770   -6.8870    1.3420 ha        1 19S      0.132000
     43 H21        -2.8060   -0.2480   -3.4170 hc        1 19S      0.076700
     44 H22        -2.2180    1.1590   -2.4250 hc        1 19S      0.076700
     45 H23        -1.3110   -0.4230   -2.4040 hc        1 19S      0.076700
     46 H11        -7.5170   -6.4120   -0.0560 h4        1 19S     -0.010200
     47 H172       -4.1670    0.1490   -1.2860 h1        1 19S      0.097700
     48 C16        -4.3450   -2.5220   -0.8550 c2        1 19S      0.539100
     49 H12        -3.6920   -6.3430   -3.2590 hn        1 19S      0.333700
@<TRIPOS>BOND
     1    1    6 2   
     2    1   22 1   
     3    2    3 1   
     4    2   25 1   
     5    2   26 1   
     6    2   27 1   
     7    3    4 1   
     8    3   28 1   
     9    3   29 1   
    10    4    5 1   
    11    4   30 1   
    12    4   31 1   
    13    5    6 1   
    14    5   32 1   
    15    5   33 1   
    16    6   34 1   
    17    7    9 3   
    18    7   12 1   
    19    8   10 2   
    20    8   19 1   
    21    8   46 1   
    22   10   11 1   
    23   11   12 2   
    24   11   15 1   
    25   12   13 1   
    26   13   14 2   
    27   13   49 1   
    28   14   15 1   
    29   14   35 1   
    30   15   48 2   
    31   16   36 1   
    32   16   37 1   
    33   16   48 1   
    34   17   18 1   
    35   17   48 1   
    36   18   22 1   
    37   18   23 1   
    38   18   47 1   
    39   19   21 2   
    40   19   38 1   
    41   20   21 1   
    42   20   39 1   
    43   20   40 1   
    44   20   41 1   
    45   21   42 1   
    46   22   24 2   
    47   23   43 1   
    48   23   44 1   
    49   23   45 1   
@<TRIPOS>SUBSTRUCTURE
     1 19S         1 TEMP              0 ****  ****    0 ROOT
