@<TRIPOS>MOLECULE
19S
   49    49     1     0     0
SMALL
bcc


@<TRIPOS>ATOM
      1 N1         -1.4250    0.0190    1.2890 ne        1 19S     -0.710100
      2 C2          3.4850    1.4550   -0.4700 c3        1 19S     -0.098100
      3 C3          3.2490    1.6900    0.9990 c3        1 19S     -0.082400
      4 C4          1.7810    1.8420    1.3420 c3        1 19S     -0.077400
      5 C5          1.0560    0.5110    1.3040 c3        1 19S     -0.210700
      6 C6         -0.3730    0.6580    1.6920 c2        1 19S      0.603200
      7 N7         -6.8710   -7.4090   -0.3920 n1        1 19S     -0.746400
      8 C8         -8.4220   -5.4450   -0.2590 c3        1 19S     -0.056400
      9 C9         -8.1370   -6.9230   -0.3890 c1        1 19S      0.392700
     10 N10        -7.3090   -4.5030   -0.2700 n2        1 19S     -0.465900
     11 C11        -6.1380   -5.0160   -0.4480 cc        1 19S      0.326300
     12 C12        -5.8870   -6.5210   -0.4770 cc        1 19S      0.422300
     13 N13        -4.4950   -6.7000   -0.5820 na        1 19S     -0.291300
     14 C14        -3.8740   -5.4640   -0.6370 cd        1 19S      0.069900
     15 C15        -4.7920   -4.4190   -0.5580 cc        1 19S     -0.379800
     16 N17        -3.2820   -2.5310   -0.1300 n         1 19S     -0.358500
     17 O18        -5.3640   -2.1400   -1.0460 o         1 19S     -0.442100
     18 C19        -2.7920   -1.3120   -0.2400 ce        1 19S      0.365600
     19 C20        -9.3780   -5.1980    0.9280 c3        1 19S      0.003800
     20 C21       -11.8490   -5.3770    0.9200 c2        1 19S     -0.196000
     21 C22       -10.6540   -5.9260    0.7160 c2        1 19S     -0.191200
     22 C23        -1.4010   -1.0420    0.3770 c         1 19S      0.565200
     23 C24        -3.4440   -0.1730   -0.9160 c3        1 19S     -0.206400
     24 O25        -0.4830   -1.8150    0.0740 o         1 19S     -0.503100
     25 H1          3.0200    0.4960   -0.8040 hc        1 19S      0.039367
     26 H2          4.5820    1.4000   -0.6760 hc        1 19S      0.039367
     27 H3          3.0550    2.2870   -1.0790 hc        1 19S      0.039367
     28 H4          3.6900    0.8470    1.5940 hc        1 19S      0.054700
     29 H5          3.7820    2.6290    1.3110 hc        1 19S      0.054700
     30 H6          1.2990    2.5550    0.6220 hc        1 19S      0.052200
     31 H7          1.6880    2.2860    2.3690 hc        1 19S      0.052200
     32 H8          1.5310   -0.2020    2.0390 hc        1 19S      0.095200
     33 H9          1.1610    0.0400    0.2870 hc        1 19S      0.095200
     34 H10        -0.5940    1.4500    2.4500 h4        1 19S      0.055800
     35 H13        -2.7800   -5.4110   -0.7440 h4        1 19S      0.191000
     36 H14        -0.3370   -4.2400    0.1530 ha        1 19S      0.002500
     37 H15        -2.7260   -3.2280    0.3500 hn        1 19S      0.362500
     38 H16        -8.8900   -5.5660    1.8700 hc        1 19S      0.062700
     39 H17        -9.5570   -4.0960    1.0420 hc        1 19S      0.062700
     40 H18       -11.9850   -4.3350    1.2380 ha        1 19S      0.119500
     41 H19       -12.7790   -5.9450    0.7830 ha        1 19S      0.119500
     42 H20       -10.5410   -6.9760    0.3900 ha        1 19S      0.156000
     43 H21        -4.2280    0.2540   -0.2250 hc        1 19S      0.125700
     44 H22        -2.7000    0.6300   -1.1490 hc        1 19S      0.125700
     45 H23        -3.9730   -0.4780   -1.8600 hc        1 19S      0.125700
     46 H11        -9.0140   -5.2080   -1.2120 h1        1 19S      0.165700
     47 H172       -0.9940   -4.4070    0.1220 ha        1 19S      0.002500
     48 C16        -4.5870   -2.9960   -0.6360 c         1 19S      0.718300
     49 H12        -4.0420   -7.5830   -0.6380 hn        1 19S      0.347700
@<TRIPOS>BOND
     1    1    6 2   
     2    1   22 1   
     3    2    3 1   
     4    2   25 1   
     5    2   26 1   
     6    2   27 1   
     7    3    4 1   
     8    3   28 1   
     9    3   29 1   
    10    4    5 1   
    11    4   30 1   
    12    4   31 1   
    13    5    6 1   
    14    5   32 1   
    15    5   33 1   
    16    6   34 1   
    17    7    9 3   
    18    7   12 1   
    19    8    9 1   
    20    8   10 1   
    21    8   19 1   
    22    8   46 1   
    23   10   11 2   
    24   11   12 1   
    25   11   15 1   
    26   12   13 2   
    27   13   14 1   
    28   13   49 1   
    29   14   15 2   
    30   14   35 1   
    31   15   48 1   
    32   16   18 2   
    33   16   37 1   
    34   16   48 1   
    35   17   48 2   
    36   18   22 1   
    37   18   23 1   
    38   19   21 1   
    39   19   38 1   
    40   19   39 1   
    41   20   21 2   
    42   20   40 1   
    43   20   41 1   
    44   21   42 1   
    45   22   24 2   
    46   23   43 1   
    47   23   44 1   
    48   23   45 1   
    49   36   47 1   
@<TRIPOS>SUBSTRUCTURE
     1 19S         1 TEMP              0 ****  ****    0 ROOT
