@<TRIPOS>MOLECULE
19T
   44    45     1     0     0
SMALL
bcc


@<TRIPOS>ATOM
      1 C2          0.1350    0.5280   -0.0050 c2        1 19T      0.116000
      2 C4          2.0580    0.3440    1.2770 c2        1 19T      0.057000
      3 C5          1.3110   -0.1750    2.3600 c2        1 19T     -0.210000
      4 C9         -1.8840    1.2700   -3.2380 c2        1 19T     -0.530000
      5 O26        -7.4010   -0.7090    4.7630 os        1 19T     -0.292000
      6 C24        -6.9530    0.3970    5.4530 cu        1 19T      0.282000
      7 O25        -6.6860    0.5730    6.6170 o         1 19T     -0.230000
      8 C20        -5.1880   -2.0220    2.5180 c3        1 19T     -0.116000
      9 C19        -4.6030   -0.7040    2.5410 c1        1 19T     -0.093000
     10 C18        -3.2440   -0.4180    2.4420 c2        1 19T     -0.259000
     11 C21        -4.2570   -3.1860    2.4360 c2        1 19T     -0.496000
     12 C22        -2.9460   -3.1660    2.4920 c1        1 19T      0.110000
     13 C17        -2.2660   -0.9970    3.2150 c2        1 19T      0.049000
     14 C6         -0.1150   -0.2780    2.1710 c2        1 19T      0.176000
     15 C14         1.9780   -0.6020    3.6150 c3        1 19T     -0.119000
     16 C15         1.8930    0.4420    4.7050 c3        1 19T     -0.215000
     17 C13         3.5380    0.5240    1.4110 c3        1 19T     -0.183000
     18 N3          1.4860    0.6940    0.0970 n2        1 19T     -0.176000
     19 N7         -0.6940    0.0640    0.9820 n2        1 19T     -0.234000
     20 C7         -0.5100    0.8740   -1.2740 c2        1 19T     -0.444000
     21 C11         0.2300    1.6820   -2.3120 c3        1 19T     -0.156000
     22 C10        -0.6800    1.8730   -3.4490 c1        1 19T     -0.138000
     23 S8         -1.9650    0.4960   -1.7310 ss        1 19T      0.908000
     24 H2         -5.8630   -2.1180    3.4230 hc        1 19T      0.151500
     25 H3         -6.3020    0.5030    3.3150 h1        1 19T      0.166000
     26 H4         -8.0770    1.0340    3.6400 h1        1 19T      0.166000
     27 H5         -5.8730   -2.0480    1.6160 hc        1 19T      0.151500
     28 H6         -4.7710   -4.1580    2.3000 ha        1 19T      0.192000
     29 H7         -2.5620   -1.6110    4.1000 h4        1 19T      0.153000
     30 H8         -3.0060    0.3790    1.7110 ha        1 19T      0.192000
     31 H9          1.5450   -1.5740    3.9800 hc        1 19T      0.092500
     32 H10         3.0630   -0.8240    3.4120 hc        1 19T      0.092500
     33 H11         0.8330    0.6830    4.9560 hc        1 19T      0.081000
     34 H12         2.3990    0.0690    5.6280 hc        1 19T      0.081000
     35 H13         2.3960    1.3850    4.3810 hc        1 19T      0.081000
     36 H14         3.7620    1.0740    2.3590 hc        1 19T      0.103000
     37 H15         3.9700    1.1010    0.5560 hc        1 19T      0.103000
     38 H16         4.0320   -0.4790    1.4420 hc        1 19T      0.103000
     39 H17         1.1650    1.1490   -2.6440 hc        1 19T      0.173000
     40 H18         0.5560    2.6740   -1.8930 hc        1 19T      0.173000
     41 N16        -0.9140   -0.7240    3.2300 nh        1 19T     -0.246000
     42 H162       -0.4120   -1.0490    4.0300 hn        1 19T      0.249000
     43 CL1        -3.1960    1.2340   -4.2760 cl        1 19T      0.036000
     44 C23        -7.1580    0.5590    4.0290 cx        1 19T     -0.102000
@<TRIPOS>BOND
     1    1   18 1   
     2    1   19 1   
     3    1   20 1   
     4    2    3 1   
     5    2   17 1   
     6    2   18 1   
     7    3   14 1   
     8    3   15 1   
     9    4   22 1   
    10    4   23 1   
    11    4   43 1   
    12    5    6 1   
    13    5   44 1   
    14    6    7 1   
    15    6   44 1   
    16    8    9 1   
    17    8   11 1   
    18    8   24 1   
    19    8   27 1   
    20    9   10 1   
    21   10   13 1   
    22   10   30 1   
    23   11   12 1   
    24   11   28 1   
    25   13   29 1   
    26   13   41 1   
    27   14   19 1   
    28   14   41 1   
    29   15   16 1   
    30   15   31 1   
    31   15   32 1   
    32   16   33 1   
    33   16   34 1   
    34   16   35 1   
    35   17   36 1   
    36   17   37 1   
    37   17   38 1   
    38   20   21 1   
    39   20   23 1   
    40   21   22 1   
    41   21   39 1   
    42   21   40 1   
    43   25   44 1   
    44   26   44 1   
    45   41   42 1   
@<TRIPOS>SUBSTRUCTURE
     1 19T         1 TEMP              0 ****  ****    0 ROOT
