@<TRIPOS>MOLECULE
19T
   43    45     1     0     0
SMALL
bcc


@<TRIPOS>ATOM
      1 C2          2.4660    0.4440    0.2130 ca        1 19T      0.767500
      2 C4          3.1780    2.6450    0.3240 ca        1 19T      0.471600
      3 C5          1.8450    3.1010    0.2850 ca        1 19T     -0.385900
      4 C9          2.6880   -3.4190    0.1020 cc        1 19T     -0.070700
      5 O26        -7.0380   -0.7960    0.4150 o         1 19T     -0.837300
      6 C24        -5.8500   -1.2170    0.4380 c         1 19T      0.919600
      7 O25        -5.3340   -1.8610    1.3960 o         1 19T     -0.837300
      8 C20        -3.8270   -0.0720   -0.5610 ca        1 19T     -0.008300
      9 C19        -3.5590    1.0220   -1.3950 ca        1 19T     -0.131500
     10 C18        -2.4590    1.8420   -1.1690 ca        1 19T     -0.138500
     11 C21        -2.9700   -0.3150    0.5230 ca        1 19T     -0.131500
     12 C22        -1.8700    0.4970    0.7660 ca        1 19T     -0.138500
     13 C17        -1.5970    1.5890   -0.0820 ca        1 19T      0.069600
     14 C6          0.8120    2.0940    0.1840 ca        1 19T      0.703200
     15 C14         1.5190    4.5470    0.3640 c3        1 19T     -0.023100
     16 C15         1.2930    5.1650   -0.9970 c3        1 19T     -0.093100
     17 C13         4.2980    3.6360    0.4030 c3        1 19T     -0.150400
     18 N3          3.5060    1.3280    0.2920 nb        1 19T     -0.740000
     19 N7          1.1390    0.7630    0.1470 nb        1 19T     -0.758000
     20 C7          2.7760   -0.9900    0.1820 cc        1 19T     -0.202600
     21 C11         4.0490   -1.5450    0.2210 cd        1 19T     -0.113000
     22 C10         3.9990   -2.9630    0.1740 cd        1 19T     -0.175000
     23 S8          1.5880   -2.1650    0.0930 ss        1 19T      0.208200
     24 H2         -4.5980   -1.9600   -1.1610 hc        1 19T      0.040200
     25 H3         -5.6330   -0.5400   -1.6250 hc        1 19T      0.040200
     26 H4         -4.2320    1.2400   -2.2370 ha        1 19T      0.158000
     27 H5         -2.2760    2.6930   -1.8410 ha        1 19T      0.119500
     28 H6         -3.2240   -1.1520    1.2040 ha        1 19T      0.158000
     29 H7         -1.2160    0.2840    1.6240 ha        1 19T      0.119500
     30 H8         -0.6830    3.4130   -0.1340 hn        1 19T      0.421800
     31 H9          0.6140    4.7110    1.0100 hc        1 19T      0.047700
     32 H10         2.3550    5.0980    0.8770 hc        1 19T      0.047700
     33 H11         2.2170    5.0870   -1.6200 hc        1 19T      0.033033
     34 H12         0.4650    4.6530   -1.5420 hc        1 19T      0.033033
     35 H13         1.0290    6.2450   -0.8870 hc        1 19T      0.033033
     36 H14         4.2910    4.1230    1.4100 hc        1 19T      0.051367
     37 H15         5.2960    3.1560    0.2520 hc        1 19T      0.051367
     38 H16         4.1590    4.4200   -0.3820 hc        1 19T      0.051367
     39 H17         4.9780   -0.9740    0.2810 ha        1 19T      0.167000
     40 H18         4.8840   -3.6020    0.1940 ha        1 19T      0.154000
     41 N16        -0.5250    2.4820    0.1900 nh        1 19T     -0.709300
     42 CL1         2.2490   -5.0330    0.0310 cl        1 19T     -0.043400
     43 C23        -4.9800   -0.9620   -0.8200 c3        1 19T     -0.181100
@<TRIPOS>BOND
     1    1   18 ar  
     2    1   19 ar  
     3    1   20 1   
     4    2    3 ar  
     5    2   17 1   
     6    2   18 ar  
     7    3   14 ar  
     8    3   15 1   
     9    4   22 2   
    10    4   23 1   
    11    4   42 1   
    12    5    6 1   
    13    6    7 1   
    14    6   43 1   
    15    8    9 ar  
    16    8   11 ar  
    17    8   43 1   
    18    9   10 ar  
    19    9   26 1   
    20   10   13 ar  
    21   10   27 1   
    22   11   12 ar  
    23   11   28 1   
    24   12   13 ar  
    25   12   29 1   
    26   13   41 1   
    27   14   19 ar  
    28   14   41 1   
    29   15   16 1   
    30   15   31 1   
    31   15   32 1   
    32   16   33 1   
    33   16   34 1   
    34   16   35 1   
    35   17   36 1   
    36   17   37 1   
    37   17   38 1   
    38   20   21 2   
    39   20   23 1   
    40   21   22 1   
    41   21   39 1   
    42   22   40 1   
    43   24   43 1   
    44   25   43 1   
    45   30   41 1   
@<TRIPOS>SUBSTRUCTURE
     1 19T         1 TEMP              0 ****  ****    0 ROOT
