@<TRIPOS>MOLECULE
19T
   43    35     1     0     0
SMALL
bcc


@<TRIPOS>ATOM
      1 C2          0.8880    0.9390   -2.1530 c1        1 19T      0.132000
      2 C4          2.9070    0.9260   -0.9650 c1        1 19T      0.050000
      3 C5          2.2100    0.8250    0.2050 c2        1 19T     -0.249000
      4 C9         -0.9810    0.1350   -5.5630 c1        1 19T     -0.387500
      5 O26        -4.2860   -4.0880    4.1610 o         1 19T     -0.572500
      6 C24        -4.6190   -3.1520    3.3880 c1        1 19T      0.338000
      7 O25        -5.4480   -2.2850    3.7710 o         1 19T     -0.572500
      8 C23        -4.0750   -3.1070    1.9770 c2        1 19T     -0.216000
      9 C20        -2.9540   -2.0900    1.9010 c1        1 19T     -0.001000
     10 C19        -3.2420   -0.7640    1.6140 c1        1 19T     -0.131500
     11 C18        -2.2110    0.1490    1.4510 c1        1 19T     -0.131500
     12 C21        -1.6360   -2.5020    2.0240 c1        1 19T     -0.113000
     13 C22        -0.6060   -1.5890    1.8620 c1        1 19T     -0.164000
     14 C17        -0.8940   -0.2630    1.5750 c1        1 19T     -0.015000
     15 N16         0.1190    0.7180    1.4020 n3        1 19T     -0.228000
     16 C6          0.8460    0.7820    0.1840 c1        1 19T      0.183000
     17 C14         2.9990    0.8240    1.4970 c3        1 19T     -0.103000
     18 C15         3.3000    2.2500    1.9040 c3        1 19T     -0.213000
     19 C13         4.4200    0.9020   -0.9490 c2        1 19T     -0.175000
     20 N3          2.2500    0.9820   -2.1330 n2        1 19T     -0.215000
     21 N7          0.1920    0.8380   -0.9860 n1        1 19T     -0.235000
     22 C7          0.1520    0.9280   -3.4750 c1        1 19T     -0.387500
     23 C11        -0.0650    2.0730   -4.3390 c1        1 19T     -0.143000
     24 C10        -0.7850    1.5690   -5.6670 c1        1 19T     -0.143000
     25 S8         -0.4070   -0.3270   -4.1970 ss        1 19T      0.733000
     26 CL1        -1.9420   -0.6620   -6.7790 cl        1 19T      0.033000
     27 H2         -4.7890   -2.8510    1.3590 ha        1 19T      0.080500
     28 H3         -3.7310   -3.9890    1.7320 ha        1 19T      0.080500
     29 H4         -4.1700   -0.4740    1.5270 ha        1 19T      0.127000
     30 H5         -2.4140    1.0820    1.2500 ha        1 19T      0.127000
     31 H6         -1.4340   -3.4280    2.2580 ha        1 19T      0.194000
     32 H7          0.3220   -1.8790    1.9490 ha        1 19T      0.113000
     33 H8          0.2970    1.3120    2.0710 hn        1 19T      0.220000
     34 H9          3.8370    0.3380    1.3670 hc        1 19T      0.079500
     35 H10         2.4750    0.3890    2.1980 hc        1 19T      0.079500
     36 H11         4.2290    2.3120    2.2130 hc        1 19T      0.077000
     37 H12         2.6970    2.5170    2.6280 hc        1 19T      0.077000
     38 H13         3.1720    2.8440    1.1350 hc        1 19T      0.077000
     39 H14         4.7290    0.2000   -0.3390 ha        1 19T      0.091000
     40 H15         4.7540    0.7200   -1.8520 ha        1 19T      0.091000
     41 H16         4.7570    1.7710   -0.6450 ha        1 19T      0.091000
     42 H17         0.1870    2.9950   -4.1400 DU        1 19T      0.161500
     43 H18        -1.0490    2.1290   -6.4220 DU        1 19T      0.161500
@<TRIPOS>BOND
     1    1   20 1   
     2    1   21 1   
     3    2    3 1   
     4    2   20 1   
     5    3   16 1   
     6    3   17 1   
     7    4   24 1   
     8    4   25 1   
     9    5    6 1   
    10    6    7 1   
    11    8    9 1   
    12    8   27 1   
    13    8   28 1   
    14    9   12 1   
    15   10   11 1   
    16   10   29 1   
    17   11   30 1   
    18   12   31 1   
    19   13   14 1   
    20   13   32 1   
    21   14   15 1   
    22   15   16 1   
    23   15   33 1   
    24   17   18 1   
    25   17   34 1   
    26   17   35 1   
    27   18   36 1   
    28   18   37 1   
    29   18   38 1   
    30   19   39 1   
    31   19   40 1   
    32   19   41 1   
    33   22   23 1   
    34   22   25 1   
    35   23   24 1   
@<TRIPOS>SUBSTRUCTURE
     1 19T         1 TEMP              0 ****  ****    0 ROOT
