@<TRIPOS>MOLECULE
19T
   43    44     1     0     0
SMALL
bcc


@<TRIPOS>ATOM
      1 C2         -0.1820   -0.0450   -0.3800 c2        1 19T      0.089000
      2 C4          1.2610    0.7340    1.2500 c2        1 19T      0.043000
      3 C5          0.3340    0.4050    2.2550 c2        1 19T     -0.237000
      4 C9         -1.2140   -1.0290   -3.9950 c2        1 19T     -0.541000
      5 O26        -4.2390    1.3480    7.5200 o         1 19T     -0.343000
      6 C24        -4.3240    1.3810    6.3040 cu        1 19T      0.255000
      7 O25        -5.3900    1.7500    5.5160 os        1 19T     -0.341000
      8 C20        -4.7830   -3.3770    3.1470 c2        1 19T      0.021000
      9 C19        -4.9640   -2.1200    3.7860 c2        1 19T     -0.298500
     10 C18        -4.1230   -1.0770    3.5560 c1        1 19T     -0.200000
     11 C21        -3.7090   -3.6000    2.3120 c2        1 19T     -0.298500
     12 C22        -2.7380   -2.6180    2.0750 c1        1 19T     -0.200000
     13 C17        -3.0800   -1.2340    2.4930 c3        1 19T     -0.023000
     14 C6         -0.9370   -0.1550    1.8290 c2        1 19T      0.210000
     15 C14         0.6440    0.6060    3.6920 c3        1 19T     -0.108000
     16 C15         0.0560    1.8840    4.2430 c3        1 19T     -0.215000
     17 C13         2.5740    1.3510    1.6230 c3        1 19T     -0.173000
     18 N3          1.0270    0.5100   -0.0710 n2        1 19T     -0.218000
     19 N7         -1.1780   -0.3760    0.4890 n2        1 19T     -0.226000
     20 C7         -0.4630   -0.3310   -1.7940 c2        1 19T     -0.390000
     21 C11         0.3430    0.3230   -2.8880 c3        1 19T     -0.153000
     22 C10        -0.1910   -0.1590   -4.1730 c1        1 19T     -0.184000
     23 S8         -1.5730   -1.2950   -2.3450 ss        1 19T      0.908000
     24 H2         -5.4960   -4.1870    3.3720 ha        1 19T      0.098000
     25 H3         -3.5750    2.0510    4.3490 h4        1 19T      0.077000
     26 H4         -5.7840   -2.0130    4.5100 ha        1 19T      0.121500
     27 H5         -4.2020    0.1030    4.2450 DU        1 19T      0.330000
     28 H6         -3.5520   -4.5960    1.8720 ha        1 19T      0.121500
     29 H7         -3.6130   -0.8380    1.5490 h1        1 19T      0.164000
     30 H8         -1.7060   -0.2620    3.7070 hn        1 19T      0.237000
     31 H9          0.2760   -0.2700    4.2950 hc        1 19T      0.083500
     32 H10         1.7580    0.6240    3.8430 hc        1 19T      0.083500
     33 H11        -1.0580    1.8920    4.1520 hc        1 19T      0.078667
     34 H12         0.3190    1.9900    5.3230 hc        1 19T      0.078667
     35 H13         0.4570    2.7680    3.6910 hc        1 19T      0.078667
     36 H14         3.1340    1.7210    0.7290 hc        1 19T      0.090000
     37 H15         3.2070    0.5910    2.1450 hc        1 19T      0.090000
     38 H16         2.3970    2.2130    2.3130 hc        1 19T      0.090000
     39 H17         1.4320    0.0580   -2.7890 hc        1 19T      0.163000
     40 H18         0.2710    1.4420   -2.8180 hc        1 19T      0.163000
     41 N16        -1.9360   -0.3760    2.7440 nu        1 19T     -0.237000
     42 Cl1        -2.1030   -1.8190   -5.1780 cl        1 19T      0.004000
     43 C23        -4.1210    1.2620    4.8900 cu        1 19T     -0.291000
@<TRIPOS>BOND
     1    1   18 1   
     2    1   19 1   
     3    1   20 1   
     4    2    3 1   
     5    2   17 1   
     6    2   18 1   
     7    3   14 1   
     8    3   15 1   
     9    4   22 1   
    10    4   23 1   
    11    4   42 1   
    12    5    6 1   
    13    6    7 1   
    14    6   43 1   
    15    7   43 1   
    16    8    9 1   
    17    8   11 1   
    18    8   24 1   
    19    9   10 1   
    20    9   26 1   
    21   10   13 1   
    22   11   12 1   
    23   11   28 1   
    24   12   13 1   
    25   13   29 1   
    26   13   41 1   
    27   14   19 1   
    28   14   41 1   
    29   15   16 1   
    30   15   31 1   
    31   15   32 1   
    32   16   33 1   
    33   16   34 1   
    34   16   35 1   
    35   17   36 1   
    36   17   37 1   
    37   17   38 1   
    38   20   21 1   
    39   20   23 1   
    40   21   22 1   
    41   21   39 1   
    42   21   40 1   
    43   25   43 1   
    44   30   41 1   
@<TRIPOS>SUBSTRUCTURE
     1 19T         1 TEMP              0 ****  ****    0 ROOT
