@<TRIPOS>MOLECULE
19T
   43    44     1     0     0
SMALL
bcc


@<TRIPOS>ATOM
      1 C2         -0.2310   -0.1030   -0.3350 c2        1 19T      0.083000
      2 C4          1.2400    0.6420    1.2860 c2        1 19T      0.037000
      3 C5          0.3070    0.3440    2.2960 c2        1 19T     -0.220000
      4 C9         -1.2990   -1.0840   -3.9420 c2        1 19T     -0.535000
      5 O26        -2.6300    2.6190    5.8930 o         1 19T     -0.351000
      6 C24        -3.6210    2.0660    5.4460 cu        1 19T      0.253000
      7 O25        -4.6830    1.5090    6.1230 os        1 19T     -0.346000
      8 C20        -4.7700   -3.3810    3.3280 c2        1 19T      0.019000
      9 C19        -5.0190   -2.0850    3.8560 c2        1 19T     -0.297000
     10 C18        -4.2120   -1.0290    3.5680 c1        1 19T     -0.199000
     11 C21        -3.6670   -3.6260    2.5400 c2        1 19T     -0.297000
     12 C22        -2.7240   -2.6280    2.2590 c1        1 19T     -0.199000
     13 C17        -3.1190   -1.2280    2.5630 c3        1 19T     -0.027000
     14 C6         -0.9850   -0.1680    1.8760 c2        1 19T      0.206000
     15 C14         0.6420    0.5220    3.7310 c3        1 19T     -0.110000
     16 C15         0.1600    1.8400    4.2900 c3        1 19T     -0.218000
     17 C13         2.5730    1.2190    1.6520 c3        1 19T     -0.173000
     18 N3          0.9930    0.4220   -0.0340 n2        1 19T     -0.213000
     19 N7         -1.2330   -0.3980    0.5410 n2        1 19T     -0.227000
     20 C7         -0.5240   -0.3920   -1.7460 c2        1 19T     -0.380000
     21 C11         0.2980    0.2320   -2.8470 c3        1 19T     -0.152000
     22 C10        -0.2530   -0.2440   -4.1260 c1        1 19T     -0.188000
     23 S8         -1.6620   -1.3280   -2.2870 ss        1 19T      0.890000
     24 H2         -5.4580   -4.1990    3.6010 ha        1 19T      0.098000
     25 H3         -5.3760    2.0140    4.1190 h4        1 19T      0.079000
     26 H4         -5.8660   -1.9530    4.5440 ha        1 19T      0.120000
     27 H5         -4.4030    0.1940    4.1270 DU        1 19T      0.329000
     28 H6         -3.4620   -4.6450    2.1790 ha        1 19T      0.120000
     29 H7         -3.6260   -0.9130    1.5760 h1        1 19T      0.166000
     30 H8         -1.7590   -0.2110    3.7520 hn        1 19T      0.233000
     31 H9          0.2150   -0.3240    4.3380 hc        1 19T      0.081000
     32 H10         1.7560    0.4530    3.8670 hc        1 19T      0.081000
     33 H11        -0.9570    1.8990    4.3060 hc        1 19T      0.084333
     34 H12         0.5220    1.9620    5.3400 hc        1 19T      0.084333
     35 H13         0.5480    2.6900    3.6800 hc        1 19T      0.084333
     36 H14         3.1320    1.5870    0.7580 hc        1 19T      0.090333
     37 H15         3.1900    0.4340    2.1550 hc        1 19T      0.090333
     38 H16         2.4260    2.0740    2.3580 hc        1 19T      0.090333
     39 H17         0.2570    1.3520   -2.7840 hc        1 19T      0.163500
     40 H18         1.3790   -0.0620   -2.7480 hc        1 19T      0.163500
     41 N16        -2.0020   -0.3280    2.7920 nh        1 19T     -0.230000
     42 CL1        -2.2140   -1.8580   -5.1160 cl        1 19T      0.003000
     43 C23        -4.6030    1.4170    4.6280 cu        1 19T     -0.287000
@<TRIPOS>BOND
     1    1   18 1   
     2    1   19 1   
     3    1   20 1   
     4    2    3 1   
     5    2   17 1   
     6    2   18 1   
     7    3   14 1   
     8    3   15 1   
     9    4   22 1   
    10    4   23 1   
    11    4   42 1   
    12    5    6 1   
    13    6    7 1   
    14    6   43 1   
    15    7   43 1   
    16    8    9 1   
    17    8   11 1   
    18    8   24 1   
    19    9   10 1   
    20    9   26 1   
    21   10   13 1   
    22   11   12 1   
    23   11   28 1   
    24   12   13 1   
    25   13   29 1   
    26   13   41 1   
    27   14   19 1   
    28   14   41 1   
    29   15   16 1   
    30   15   31 1   
    31   15   32 1   
    32   16   33 1   
    33   16   34 1   
    34   16   35 1   
    35   17   36 1   
    36   17   37 1   
    37   17   38 1   
    38   20   21 1   
    39   20   23 1   
    40   21   22 1   
    41   21   39 1   
    42   21   40 1   
    43   25   43 1   
    44   30   41 1   
@<TRIPOS>SUBSTRUCTURE
     1 19T         1 TEMP              0 ****  ****    0 ROOT
