@<TRIPOS>MOLECULE
19U
   44    45     1     0     0
SMALL
bcc


@<TRIPOS>ATOM
      1 N          -4.2630    2.0060   -0.5370 n3        1 19U     -0.899800
      2 C15        -4.2940    0.6310   -0.0830 c3        1 19U      0.113500
      3 C14        -2.8750    0.1740    0.3220 c         1 19U      0.668100
      4 O32        -2.1610    0.9030    1.0460 o         1 19U     -0.633100
      5 C1         -5.2000    0.3290    1.1250 c3        1 19U     -0.121400
      6 C17        -6.6480    0.6160    0.8320 c3        1 19U     -0.096100
      7 N1         -2.3970   -1.0350   -0.1390 n         1 19U     -0.456800
      8 C12        -1.1340   -1.5940    0.3310 c3        1 19U      0.033700
      9 C7          0.0900   -1.0890   -0.4710 c         1 19U      0.651100
     10 O22         0.8880   -1.8890   -0.9990 o         1 19U     -0.622100
     11 C2         -1.2590   -3.1300    0.2280 c3        1 19U     -0.088400
     12 C3         -2.5220   -3.4060   -0.5790 c3        1 19U     -0.091400
     13 C4         -3.2290   -2.0530   -0.7560 c3        1 19U      0.089000
     14 N23         0.2600    0.2730   -0.5670 n         1 19U     -0.550900
     15 C24         1.4120    0.8540   -1.2020 c3        1 19U      0.132300
     16 C25         2.5680    1.1320   -0.2790 ca        1 19U     -0.110300
     17 C26         2.8940    2.4420    0.0770 ca        1 19U     -0.119000
     18 C27         3.9860    2.6890    0.9090 ca        1 19U     -0.126000
     19 C28         4.7550    1.6330    1.3950 ca        1 19U     -0.122000
     20 C29         4.4220    0.3220    1.0380 ca        1 19U      0.014400
     21 C30         3.3320    0.0640    0.2030 ca        1 19U     -0.108000
     22 CL21        5.3560   -0.9720    1.6280 cl        1 19U     -0.097400
     23 HN         -5.1910    2.3820   -0.5450 hn        1 19U      0.362800
     24 HNA        -3.6820    2.5670    0.0580 hn        1 19U      0.362800
     25 H15        -4.6680    0.0280   -0.9640 h1        1 19U      0.074700
     26 H1         -5.0810   -0.7540    1.3910 hc        1 19U      0.055200
     27 H1A        -4.8570    0.9300    2.0080 hc        1 19U      0.055200
     28 H17        -6.9670    0.1280   -0.1210 hc        1 19U      0.038700
     29 H17A       -7.2890    0.2250    1.6600 hc        1 19U      0.038700
     30 H17B       -6.8350    1.7140    0.7440 hc        1 19U      0.038700
     31 H12        -0.9600   -1.2810    1.4030 h1        1 19U      0.086700
     32 H2         -0.3580   -3.5720   -0.2660 hc        1 19U      0.076200
     33 H2A        -1.3410   -3.5620    1.2560 hc        1 19U      0.076200
     34 H3         -2.2680   -3.8390   -1.5770 hc        1 19U      0.058200
     35 H3A        -3.1900   -4.1280   -0.0490 hc        1 19U      0.058200
     36 H4         -4.2460   -2.0750   -0.2740 h1        1 19U      0.049200
     37 H4A        -3.3610   -1.8110   -1.8470 h1        1 19U      0.049200
     38 HN23       -0.2930    0.8710    0.0080 hn        1 19U      0.338500
     39 H24         1.7660    0.1520   -2.0140 h1        1 19U      0.069200
     40 H24A        1.0820    1.8190   -1.6850 h1        1 19U      0.069200
     41 H26         2.2910    3.2830   -0.2990 ha        1 19U      0.135000
     42 H27         4.2420    3.7220    1.1870 ha        1 19U      0.136000
     43 H28         5.6150    1.8300    2.0520 ha        1 19U      0.145000
     44 H30         3.0650   -0.9680   -0.0840 ha        1 19U      0.169000
@<TRIPOS>BOND
     1    1    2 1   
     2    1   23 1   
     3    1   24 1   
     4    2    3 1   
     5    2    5 1   
     6    2   25 1   
     7    3    4 2   
     8    3    7 1   
     9    5    6 1   
    10    5   26 1   
    11    5   27 1   
    12    6   28 1   
    13    6   29 1   
    14    6   30 1   
    15    7    8 1   
    16    7   13 1   
    17    8    9 1   
    18    8   11 1   
    19    8   31 1   
    20    9   10 2   
    21    9   14 1   
    22   11   12 1   
    23   11   32 1   
    24   11   33 1   
    25   12   13 1   
    26   12   34 1   
    27   12   35 1   
    28   13   36 1   
    29   13   37 1   
    30   14   15 1   
    31   14   38 1   
    32   15   16 1   
    33   15   39 1   
    34   15   40 1   
    35   16   17 ar  
    36   16   21 ar  
    37   17   18 ar  
    38   17   41 1   
    39   18   19 ar  
    40   18   42 1   
    41   19   20 ar  
    42   19   43 1   
    43   20   21 ar  
    44   20   22 1   
    45   21   44 1   
@<TRIPOS>SUBSTRUCTURE
     1 19U         1 TEMP              0 ****  ****    0 ROOT
