@<TRIPOS>MOLECULE
19U
   44    42     1     0     0
SMALL
bcc


@<TRIPOS>ATOM
      1 N          -3.1150    0.9290    1.6410 n3        1 19U     -0.364000
      2 C15        -1.7030    0.9430    1.6280 c3        1 19U     -0.014000
      3 C14        -1.2260    2.1830    0.9580 c1        1 19U      0.253000
      4 O32        -1.1280    3.2170    1.5980 o         1 19U     -0.349000
      5 C1         -1.1760    0.9070    3.0710 c3        1 19U     -0.139000
      6 C17        -2.2950    1.2480    4.0260 c3        1 19U     -0.214000
      7 N1         -1.0780    2.2120   -0.5020 n2        1 19U     -0.345000
      8 C12        -1.1590    1.1960   -1.3080 c3        1 19U      0.005000
      9 C7         -0.6690   -0.0440   -0.6130 c2        1 19U      0.282000
     10 O22        -1.4560   -0.7490    0.0050 o         1 19U     -0.372000
     11 C2         -0.2150    1.6890   -2.5550 c3        1 19U     -0.163000
     12 C3          0.0360    3.1550   -2.3400 c3        1 19U     -0.173000
     13 C4         -0.7890    3.5170   -1.4100 c3        1 19U     -0.035000
     14 N23         0.6930   -0.4740   -0.7930 n         1 19U     -0.352000
     15 C24         0.9950   -1.5690   -1.6900 c3        1 19U      0.004000
     16 C25         1.8430   -2.5980   -0.9620 c2        1 19U     -0.112000
     17 C26         1.3590   -3.9040   -0.7900 c2        1 19U     -0.116000
     18 C27         2.2020   -4.9000   -0.3110 c1        1 19U     -0.122000
     19 C28         3.5270   -4.6040   -0.0020 c1        1 19U     -0.117000
     20 C29         4.0110   -3.3070   -0.1720 c1        1 19U     -0.064000
     21 C30         3.1690   -2.3050   -0.6530 c1        1 19U     -0.115000
     22 CL21        5.6550   -2.9190    0.3020 cl        1 19U     -0.016000
     23 HN         -3.4340    1.6140    1.1100 hn        1 19U      0.170500
     24 HNA        -3.4140    0.1300    1.3190 hn        1 19U      0.170500
     25 H15        -1.3780    0.1730    1.1480 h1        1 19U      0.112000
     26 H1         -0.8310   -0.0040    3.2750 hc        1 19U      0.092500
     27 H1A        -0.4450    1.5670    3.1720 hc        1 19U      0.092500
     28 H17        -2.6180    2.1520    3.8400 hc        1 19U      0.079667
     29 H17A       -1.9630    1.2020    4.9450 hc        1 19U      0.079667
     30 H17B       -3.0290    0.6090    3.9120 hc        1 19U      0.079667
     31 H12        -2.0400    0.9140   -1.6140 h1        1 19U      0.112000
     32 H2         -0.6820    1.5480   -3.4070 hc        1 19U      0.103500
     33 H2A         0.6290    1.2010   -2.5500 hc        1 19U      0.103500
     34 H3         -0.1450    3.6580   -3.1740 hc        1 19U      0.096000
     35 H3A         0.9680    3.3030   -2.0470 hc        1 19U      0.096000
     36 H4         -1.6300    3.8400   -1.8140 h1        1 19U      0.099500
     37 H4A        -0.3860    4.2260   -0.8610 h1        1 19U      0.099500
     38 HN23        1.3560   -0.1010   -0.2950 hn        1 19U      0.233000
     39 H24         0.1520   -1.9900   -1.9930 h1        1 19U      0.112000
     40 H24A        1.4870   -1.2290   -2.4660 h1        1 19U      0.112000
     41 H26         0.4400   -4.1110   -1.0030 ha        1 19U      0.161000
     42 H27         1.8620   -5.8170   -0.1890 ha        1 19U      0.144000
     43 H28         4.1150   -5.3010    0.3330 ha        1 19U      0.149000
     44 H30         3.5060   -1.4050   -0.7700 ha        1 19U      0.145000
@<TRIPOS>BOND
     1    1    2 1   
     2    1   23 1   
     3    1   24 1   
     4    2    3 1   
     5    2    5 1   
     6    2   25 1   
     7    3    4 1   
     8    5    6 1   
     9    5   26 1   
    10    5   27 1   
    11    6   28 1   
    12    6   29 1   
    13    6   30 1   
    14    7    8 1   
    15    7   13 1   
    16    8    9 1   
    17    8   11 1   
    18    8   31 1   
    19    9   10 1   
    20    9   14 1   
    21   11   12 1   
    22   11   32 1   
    23   11   33 1   
    24   12   13 1   
    25   12   34 1   
    26   12   35 1   
    27   13   36 1   
    28   13   37 1   
    29   14   15 1   
    30   14   38 1   
    31   15   16 1   
    32   15   39 1   
    33   15   40 1   
    34   16   17 1   
    35   16   21 1   
    36   17   18 1   
    37   17   41 1   
    38   18   42 1   
    39   19   20 1   
    40   19   43 1   
    41   20   22 1   
    42   21   44 1   
@<TRIPOS>SUBSTRUCTURE
     1 19U         1 TEMP              0 ****  ****    0 ROOT
