@<TRIPOS>MOLECULE
19V
   87    93     1     0     0
SMALL
bcc


@<TRIPOS>ATOM
      1 C1          4.2480    0.0340    0.2170 c3        1 19V      0.097700
      2 C2          5.2590    0.9570    0.9380 c3        1 19V     -0.077700
      3 C3          6.1750    1.5640   -0.1180 c3        1 19V     -0.059900
      4 C4          5.3620    2.4140   -1.1010 c3        1 19V     -0.117000
      5 C5          4.3220    1.5220   -1.7830 c3        1 19V     -0.059900
      6 C6          3.3970    0.9120   -0.7350 c3        1 19V     -0.077700
      7 C8          2.6940    2.0220    0.0340 c3        1 19V     -0.074400
      8 C9          4.6460    3.5260   -0.3280 c3        1 19V     -0.063400
      9 C10         3.7260    2.9090    0.7200 c3        1 19V     -0.064700
     10 C11         6.3190    3.0190   -2.1310 c         1 19V      0.662100
     11 C15         2.0040   -4.7350    0.3450 ca        1 19V     -0.131000
     12 C16         1.2850   -3.7860    1.0990 ca        1 19V      0.071600
     13 C18         0.1450   -2.5910    3.3200 c3        1 19V      0.172800
     14 C20        -1.7070   -2.3750    1.6980 ca        1 19V      0.579200
     15 C21        -2.6690   -2.9650    0.8340 ca        1 19V     -0.223300
     16 C24        -2.6680   -0.2830    1.3630 ca        1 19V      0.398200
     17 C25        -5.3380    0.9570    0.7750 c3        1 19V      0.180300
     18 C26        -6.1700    2.0230    0.0340 c3        1 19V      0.168300
     19 C28        -5.4120   -0.4580   -1.1820 c3        1 19V      0.180300
     20 C31        -7.0230    3.5130   -2.5210 c3        1 19V     -0.100767
     21 C32        -8.7960    1.7930   -2.7070 c3        1 19V     -0.100767
     22 N7         -7.0030    1.4660   -1.0210 n3        1 19V     -0.727600
     23 C30        -8.6980    3.2560   -0.7150 c3        1 19V     -0.100767
     24 C27        -6.2390    0.6160   -1.9210 c3        1 19V      0.168300
     25 N6         -4.5790    0.1090   -0.1350 nh        1 19V     -0.621000
     26 C23        -3.6800   -0.7860    0.4920 ca        1 19V     -0.003700
     27 C22        -3.6470   -2.1740    0.2440 ca        1 19V     -0.129000
     28 N5         -1.7210   -1.0260    1.9370 nb        1 19V     -0.702000
     29 N3         -0.7760   -3.2270    2.3890 nh        1 19V     -0.582700
     30 C19         1.3350   -1.8730    2.6520 c3        1 19V      0.064000
     31 C17        -0.0410   -4.1200    1.5300 ca        1 19V      0.041600
     32 C14        -0.5780   -5.3760    1.2090 ca        1 19V     -0.099000
     33 C13         0.1480   -6.2830    0.4450 ca        1 19V     -0.152000
     34 C12         1.4320   -5.9590    0.0150 ca        1 19V     -0.110000
     35 N4          1.8520   -2.5480    1.4800 n         1 19V     -0.388000
     36 C33         2.8030   -1.8950    0.6560 c         1 19V      0.766100
     37 O2          3.1020   -2.3550   -0.4710 o         1 19V     -0.627100
     38 N1          3.4780   -0.7610    1.1540 n         1 19V     -0.529900
     39 C7          4.5510    2.0740    1.6920 c3        1 19V     -0.074400
     40 O1          7.5520    2.8410   -2.0720 o         1 19V     -0.614100
     41 N2          5.7970    3.7900   -3.1390 n         1 19V     -0.676000
     42 H1          4.8300   -0.6980   -0.4240 h1        1 19V      0.092700
     43 H2          5.8770    0.3520    1.6550 hc        1 19V      0.070700
     44 H3          6.9510    2.2060    0.3740 hc        1 19V      0.057700
     45 H4          6.7130    0.7580   -0.6800 hc        1 19V      0.057700
     46 H5          3.7050    2.1180   -2.5040 hc        1 19V      0.057700
     47 H6          4.8380    0.7100   -2.3570 hc        1 19V      0.057700
     48 H7          2.6380    0.2630   -1.2500 hc        1 19V      0.070700
     49 H8          2.0790    2.6360   -0.6740 hc        1 19V      0.042450
     50 H9          1.9960    1.5890    0.7950 hc        1 19V      0.042450
     51 H10         5.4030    4.1860    0.1690 hc        1 19V      0.047200
     52 H11         4.0400    4.1580   -1.0270 hc        1 19V      0.047200
     53 H12         3.2030    3.7300    1.2800 hc        1 19V      0.052700
     54 H13         3.0250   -4.5080   -0.0050 ha        1 19V      0.168000
     55 H14        -0.4000   -1.8540    3.9680 h1        1 19V      0.076200
     56 H15         0.5360   -3.4170    3.9820 h1        1 19V      0.076200
     57 H16        -2.6470   -4.0450    0.6260 ha        1 19V      0.152000
     58 H17        -2.6110    0.7960    1.6010 h4        1 19V      0.023100
     59 H19        -6.0300    0.3420    1.4220 h1        1 19V      0.043700
     60 H20        -6.8440    2.4970    0.8010 h1        1 19V      0.040700
     61 H21        -5.4680    2.8170   -0.3550 h1        1 19V      0.040700
     62 H22        -6.1190   -1.2380   -0.7740 h1        1 19V      0.043700
     63 H23        -4.7400   -0.9510   -1.9390 h1        1 19V      0.043700
     64 H24        -6.4230    3.0220   -3.3220 hc        1 19V      0.039700
     65 H25        -7.7290    4.2330   -3.0020 hc        1 19V      0.039700
     66 H26        -6.3350    4.0860   -1.8560 hc        1 19V      0.039700
     67 H27        -9.3520    0.9640   -2.2100 hc        1 19V      0.039700
     68 H28        -9.5320    2.5470   -3.0750 hc        1 19V      0.039700
     69 H29        -8.2460    1.3880   -3.5890 hc        1 19V      0.039700
     70 H31        -8.0750    3.9500   -0.1030 hc        1 19V      0.039700
     71 H32        -9.4450    3.8670   -1.2760 hc        1 19V      0.039700
     72 H33        -9.2450    2.5600   -0.0360 hc        1 19V      0.039700
     73 H34        -5.5410    1.2120   -2.5790 h1        1 19V      0.040700
     74 H35        -6.9620    0.0660   -2.5850 h1        1 19V      0.040700
     75 H36        -4.3860   -2.6510   -0.4180 ha        1 19V      0.141000
     76 H37         1.0000   -0.8330    2.3650 h1        1 19V      0.051200
     77 H38         2.1580   -1.7840    3.4190 h1        1 19V      0.051200
     78 H39        -1.5800   -5.6530    1.5750 ha        1 19V      0.142000
     79 H40        -0.2920   -7.2580    0.1890 ha        1 19V      0.134000
     80 H41         2.0100   -6.6770   -0.5870 ha        1 19V      0.136000
     81 H42         3.0410   -0.2380    1.8790 hn        1 19V      0.293500
     82 H43         3.8900    1.6580    2.4950 hc        1 19V      0.042450
     83 H44         5.3140    2.7250    2.1930 hc        1 19V      0.042450
     84 H45         4.8240    3.9290   -3.2270 hn        1 19V      0.310500
     85 H46         6.4000    4.1750   -3.8220 hn        1 19V      0.310500
     86 H18        -4.6190    1.4960    1.4510 h1        1 19V      0.043700
     87 C29        -7.8290    2.4750   -1.7200 c3        1 19V      0.198200
@<TRIPOS>BOND
     1    1    2 1   
     2    1    6 1   
     3    1   38 1   
     4    1   42 1   
     5    2    3 1   
     6    2   39 1   
     7    2   43 1   
     8    3    4 1   
     9    3   44 1   
    10    3   45 1   
    11    4    5 1   
    12    4    8 1   
    13    4   10 1   
    14    5    6 1   
    15    5   46 1   
    16    5   47 1   
    17    6    7 1   
    18    6   48 1   
    19    7    9 1   
    20    7   49 1   
    21    7   50 1   
    22    8    9 1   
    23    8   51 1   
    24    8   52 1   
    25    9   39 1   
    26    9   53 1   
    27   10   40 2   
    28   10   41 1   
    29   11   12 ar  
    30   11   34 ar  
    31   11   54 1   
    32   12   31 ar  
    33   12   35 1   
    34   13   29 1   
    35   13   30 1   
    36   13   55 1   
    37   13   56 1   
    38   14   15 ar  
    39   14   28 ar  
    40   14   29 1   
    41   15   27 ar  
    42   15   57 1   
    43   16   26 ar  
    44   16   28 ar  
    45   16   58 1   
    46   17   18 1   
    47   17   25 1   
    48   17   59 1   
    49   17   86 1   
    50   18   22 1   
    51   18   60 1   
    52   18   61 1   
    53   19   24 1   
    54   19   25 1   
    55   19   62 1   
    56   19   63 1   
    57   20   64 1   
    58   20   65 1   
    59   20   66 1   
    60   20   87 1   
    61   21   67 1   
    62   21   68 1   
    63   21   69 1   
    64   21   87 1   
    65   22   24 1   
    66   22   87 1   
    67   23   70 1   
    68   23   71 1   
    69   23   72 1   
    70   23   87 1   
    71   24   73 1   
    72   24   74 1   
    73   25   26 1   
    74   26   27 ar  
    75   27   75 1   
    76   29   31 1   
    77   30   35 1   
    78   30   76 1   
    79   30   77 1   
    80   31   32 ar  
    81   32   33 ar  
    82   32   78 1   
    83   33   34 ar  
    84   33   79 1   
    85   34   80 1   
    86   35   36 1   
    87   36   37 2   
    88   36   38 1   
    89   38   81 1   
    90   39   82 1   
    91   39   83 1   
    92   41   84 1   
    93   41   85 1   
@<TRIPOS>SUBSTRUCTURE
     1 19V         1 TEMP              0 ****  ****    0 ROOT
