@<TRIPOS>MOLECULE
19W
   21    20     1     0     0
SMALL
bcc


@<TRIPOS>ATOM
      1 N          -1.3310    1.9190   -0.2910 n3        1 19W     -0.891800
      2 CA         -1.3040    0.4660   -0.4010 c3        1 19W      0.019500
      3 C          -2.6030   -0.2450    0.1110 c         1 19W      0.887600
      4 O          -3.5510    0.4790    0.5290 o         1 19W     -0.844300
      5 CB         -0.1050   -0.1730    0.3010 c3        1 19W     -0.063400
      6 CG          1.2090    0.2040   -0.3470 c3        1 19W     -0.083400
      7 CD          2.3520   -0.5260    0.3320 c3        1 19W      0.140400
      8 OE          3.5540   -0.0910   -0.3640 os        1 19W     -0.281100
      9 NZ          4.6850   -0.6470    0.1140 n3        1 19W     -0.656300
     10 H1         -2.2530    2.2200   -0.5650 hn        1 19W      0.329800
     11 H2         -1.2340    2.1660    0.6790 hn        1 19W      0.329800
     12 H4         -1.2310    0.2330   -1.5040 h1        1 19W      0.041700
     13 H6         -0.0910    0.1200    1.3830 hc        1 19W      0.047700
     14 H7         -0.2530   -1.2860    0.2550 hc        1 19W      0.047700
     15 H8          1.1900   -0.0600   -1.4360 hc        1 19W      0.048700
     16 H9          1.3770    1.3100   -0.2780 hc        1 19W      0.048700
     17 H10         2.4280   -0.2520    1.4150 h1        1 19W      0.034200
     18 H11         2.2440   -1.6370    0.2350 h1        1 19W      0.034200
     19 H12         5.1180   -1.1370   -0.6650 hn        1 19W      0.327300
     20 H13         5.3060    0.1250    0.3440 hn        1 19W      0.327300
     21 OXT        -2.6370   -1.5050    0.0570 o         1 19W     -0.844300
@<TRIPOS>BOND
     1    1    2 1   
     2    1   10 1   
     3    1   11 1   
     4    2    3 1   
     5    2    5 1   
     6    2   12 1   
     7    3    4 1   
     8    3   21 1   
     9    5    6 1   
    10    5   13 1   
    11    5   14 1   
    12    6    7 1   
    13    6   15 1   
    14    6   16 1   
    15    7    8 1   
    16    7   17 1   
    17    7   18 1   
    18    8    9 1   
    19    9   19 1   
    20    9   20 1   
@<TRIPOS>SUBSTRUCTURE
     1 19W         1 TEMP              0 ****  ****    0 ROOT
