@<TRIPOS>MOLECULE
19W
   21    20     1     0     0
SMALL
bcc


@<TRIPOS>ATOM
      1 N          -2.3520   -1.0390    1.3710 n3        1 19W     -0.891800
      2 CA         -0.9290   -1.0390    1.3710 c3        1 19W      0.019500
      3 C          -0.4250   -1.0390    2.7960 c         1 19W      0.887600
      4 O           0.3800   -1.9270    3.1790 o         1 19W     -0.844300
      5 CB         -0.4250    0.1950    0.6590 c3        1 19W     -0.063400
      6 CG          0.3310   -0.2150   -0.5860 c3        1 19W     -0.083400
      7 CD          0.8080    1.0210   -1.3160 c3        1 19W      0.140400
      8 OE          1.5690    0.6400   -2.4380 os        1 19W     -0.281100
      9 NZ          1.9860    1.7530   -3.1180 n3        1 19W     -0.656300
     10 H1         -2.6560   -1.5560    0.6850 hn        1 19W      0.329800
     11 H2         -2.6560   -1.3750    2.1630 hn        1 19W      0.329800
     12 H4         -0.6040   -1.8360    0.9110 h1        1 19W      0.041700
     13 H6         -1.1820    0.7580    0.4090 hc        1 19W      0.047700
     14 H7          0.1690    0.6930    1.2520 hc        1 19W      0.047700
     15 H8         -0.2570   -0.7300   -1.1690 hc        1 19W      0.048700
     16 H9          1.1000   -0.7610   -0.3340 hc        1 19W      0.048700
     17 H10         0.0380    1.5440   -1.6080 h1        1 19W      0.034200
     18 H11         1.3590    1.5610   -0.7170 h1        1 19W      0.034200
     19 H12         1.6620    1.7280   -3.9700 hn        1 19W      0.327300
     20 H13         2.8970    1.7730   -3.1400 hn        1 19W      0.327300
     21 OXT        -0.8120   -0.1510    3.6000 o         1 19W     -0.844300
@<TRIPOS>BOND
     1    1    2 1   
     2    1   10 1   
     3    1   11 1   
     4    2    3 1   
     5    2    5 1   
     6    2   12 1   
     7    3    4 1   
     8    3   21 1   
     9    5    6 1   
    10    5   13 1   
    11    5   14 1   
    12    6    7 1   
    13    6   15 1   
    14    6   16 1   
    15    7    8 1   
    16    7   17 1   
    17    7   18 1   
    18    8    9 1   
    19    9   19 1   
    20    9   20 1   
@<TRIPOS>SUBSTRUCTURE
     1 19W         1 TEMP              0 ****  ****    0 ROOT
