@<TRIPOS>MOLECULE
19X
   49    53     1     0     0
SMALL
bcc


@<TRIPOS>ATOM
      1 O29         0.1480   -0.9210   -0.0530 o         1 19X     -0.447100
      2 C28         1.2080   -0.3270    0.1010 c         1 19X      0.681100
      3 C22         1.9520   -0.1130    1.3990 ca        1 19X     -0.194600
      4 C21         1.6820   -0.4770    2.6950 ca        1 19X      0.001000
      5 N27         2.0030    0.3100   -0.9640 nc        1 19X     -0.571100
      6 C26         3.0660    0.8300   -0.4160 cd        1 19X      0.502800
      7 C23         3.1330    0.6190    1.0640 ca        1 19X     -0.159900
      8 C24         4.0450    0.9700    2.0320 ca        1 19X     -0.092000
      9 C25         3.7800    0.5760    3.3590 ca        1 19X     -0.054000
     10 C20         2.6180   -0.1170    3.6910 ca        1 19X     -0.050100
     11 S19         2.3210   -0.3880    5.3460 ss        1 19X     -0.190200
     12 C10         2.1230   -2.0980    5.5610 ca        1 19X      0.752300
     13 N11         2.3000   -2.9290    4.5040 nb        1 19X     -0.687000
     14 C2          2.1230   -4.2520    4.7900 ca        1 19X      0.479800
     15 N9          1.7930   -2.4550    6.8480 nb        1 19X     -0.860000
     16 C8          1.6150   -3.7750    7.1360 ca        1 19X      0.653200
     17 N13         1.2480   -4.2060    8.4670 nh        1 19X     -0.666300
     18 C17         0.2030   -3.3910    9.0860 c3        1 19X      0.137800
     19 C16         0.9020   -2.3050    9.9670 c3        1 19X      0.083500
     20 N18         1.1050   -1.0410    9.1950 n4        1 19X     -0.865600
     21 C15         2.2370   -2.9750   10.3540 c3        1 19X     -0.125400
     22 C14         2.3860   -4.1830    9.4040 c3        1 19X      0.142800
     23 C3          1.7740   -4.7480    6.1280 ca        1 19X     -0.269400
     24 C4          1.6760   -6.1780    6.0120 cc        1 19X     -0.033800
     25 CL1         1.3010   -7.2440    7.2340 cl        1 19X     -0.018400
     26 C5          1.9510   -6.5160    4.6760 cd        1 19X     -0.008300
     27 N1          2.2220   -5.3500    3.9420 na        1 19X     -0.256100
     28 C6          1.9650   -7.8790    4.0960 c3        1 19X     -0.038200
     29 C7          2.2220   -7.9340    2.6130 c3        1 19X     -0.107100
     30 H1          0.7680   -1.0360    2.9530 ha        1 19X      0.164000
     31 H2          3.8370    1.3710   -0.9820 h4        1 19X      0.063800
     32 H3          4.9610    1.5310    1.7940 ha        1 19X      0.160000
     33 H4          4.5120    0.8300    4.1440 ha        1 19X      0.153000
     34 H5         -0.5120   -2.9640    8.3360 h1        1 19X      0.100700
     35 H6         -0.3720   -4.0690    9.7780 h1        1 19X      0.100700
     36 H7          0.2830   -2.0580   10.8730 hx        1 19X      0.112700
     37 H8          1.7530   -0.4250    9.6860 hn        1 19X      0.467133
     38 H9          1.4990   -1.2860    8.2450 hn        1 19X      0.467133
     39 H11         3.1160   -2.2910   10.2710 hc        1 19X      0.085200
     40 H12         2.1750   -3.3230   11.4160 hc        1 19X      0.085200
     41 H13         3.3710   -4.1550    8.8670 h1        1 19X      0.092200
     42 H14         2.3330   -5.1430    9.9900 h1        1 19X      0.092200
     43 H15         2.4370   -5.3200    2.9740 hn        1 19X      0.333700
     44 H16         2.7510   -8.4760    4.6390 hc        1 19X      0.082700
     45 H17         0.9710   -8.3580    4.3260 hc        1 19X      0.082700
     46 H18         3.2280   -7.5200    2.3580 hc        1 19X      0.050033
     47 H19         1.4440   -7.3690    2.0440 hc        1 19X      0.050033
     48 H20         2.1920   -8.9990    2.2720 hc        1 19X      0.050033
     49 H183        0.2120   -0.5640    9.0670 hn        1 19X      0.467133
@<TRIPOS>BOND
     1    1    2 2   
     2    2    3 1   
     3    2    5 1   
     4    3    4 ar  
     5    3    7 ar  
     6    4   10 ar  
     7    4   30 1   
     8    5    6 2   
     9    6    7 1   
    10    6   31 1   
    11    7    8 ar  
    12    8    9 ar  
    13    8   32 1   
    14    9   10 ar  
    15    9   33 1   
    16   10   11 1   
    17   11   12 1   
    18   12   13 ar  
    19   12   15 ar  
    20   13   14 ar  
    21   14   23 ar  
    22   14   27 1   
    23   15   16 ar  
    24   16   17 1   
    25   16   23 ar  
    26   17   18 1   
    27   17   22 1   
    28   18   19 1   
    29   18   34 1   
    30   18   35 1   
    31   19   20 1   
    32   19   21 1   
    33   19   36 1   
    34   20   37 1   
    35   20   38 1   
    36   20   49 1   
    37   21   22 1   
    38   21   39 1   
    39   21   40 1   
    40   22   41 1   
    41   22   42 1   
    42   23   24 1   
    43   24   25 1   
    44   24   26 2   
    45   26   27 1   
    46   26   28 1   
    47   27   43 1   
    48   28   29 1   
    49   28   44 1   
    50   28   45 1   
    51   29   46 1   
    52   29   47 1   
    53   29   48 1   
@<TRIPOS>SUBSTRUCTURE
     1 19X         1 TEMP              0 ****  ****    0 ROOT
