@<TRIPOS>MOLECULE
19X
   49    53     1     0     0
SMALL
bcc


@<TRIPOS>ATOM
      1 O29         0.1750   -0.9530   -0.0660 o         1 19X     -0.447100
      2 C28         1.2440   -0.3750    0.0830 c         1 19X      0.681100
      3 C22         1.9930   -0.1630    1.3790 ca        1 19X     -0.194600
      4 C21         1.7190   -0.5140    2.6780 ca        1 19X      0.001000
      5 N27         2.0480    0.2420   -0.9870 nc        1 19X     -0.571100
      6 C26         3.1190    0.7500   -0.4450 cd        1 19X      0.502800
      7 C23         3.1850    0.5480    1.0370 ca        1 19X     -0.159900
      8 C24         4.1040    0.8920    2.0010 ca        1 19X     -0.092000
      9 C25         3.8340    0.5120    3.3310 ca        1 19X     -0.054000
     10 C20         2.6620   -0.1610    3.6700 ca        1 19X     -0.050100
     11 S19         2.3630   -0.4160    5.3270 ss        1 19X     -0.190200
     12 C10         2.1380   -2.1200    5.5540 ca        1 19X      0.752300
     13 N11         2.3010   -2.9620    4.5030 nb        1 19X     -0.687000
     14 C2          2.1030   -4.2790    4.7990 ca        1 19X      0.479800
     15 N9          1.8050   -2.4630    6.8440 nb        1 19X     -0.860000
     16 C8          1.6070   -3.7780    7.1420 ca        1 19X      0.653200
     17 N13         1.2350   -4.1940    8.4770 nh        1 19X     -0.666300
     18 C17         0.2040   -3.3580    9.0910 c3        1 19X      0.137800
     19 C16         0.9210   -2.2770    9.9640 c3        1 19X      0.083500
     20 N18         1.1430   -1.0220    9.1830 nz        1 19X     -0.865600
     21 C15         2.2460   -2.9660   10.3530 c3        1 19X     -0.125400
     22 C14         2.3750   -4.1820    9.4120 c3        1 19X      0.142800
     23 C3          1.7480   -4.7610    6.1410 ca        1 19X     -0.269400
     24 C4          1.6280   -6.1900    6.0350 cc        1 19X     -0.033800
     25 Cl1         1.2380   -7.2410    7.2640 cl        1 19X     -0.018400
     26 C5          1.8950   -6.5410    4.7010 cd        1 19X     -0.008300
     27 N1          2.1840   -5.3850    3.9580 na        1 19X     -0.256100
     28 C6          1.8860   -7.9090    4.1310 c3        1 19X     -0.038200
     29 C7          2.1310   -7.9780    2.6450 c3        1 19X     -0.107100
     30 H1          0.7970   -1.0560    2.9410 ha        1 19X      0.164000
     31 H2          3.8980    1.2740   -1.0150 h4        1 19X      0.063800
     32 H3          5.0280    1.4370    1.7580 ha        1 19X      0.160000
     33 H4          4.5710    0.7590    4.1140 ha        1 19X      0.153000
     34 H5         -0.5060   -2.9260    8.3390 h1        1 19X      0.100700
     35 H6         -0.3800   -4.0230    9.7890 h1        1 19X      0.100700
     36 H7          0.3080   -2.0150   10.8690 hx        1 19X      0.112700
     37 H8          1.5320   -1.2800    8.2330 hn        1 19X      0.467133
     38 H9          1.8020   -0.4130    9.6680 hn        1 19X      0.467133
     39 H11         3.1360   -2.2960   10.2640 hc        1 19X      0.085200
     40 H12         2.1810   -3.3050   11.4180 hc        1 19X      0.085200
     41 H13         2.3080   -5.1370   10.0040 h1        1 19X      0.092200
     42 H14         3.3590   -4.1740    8.8730 h1        1 19X      0.092200
     43 H15         2.3960   -5.3650    2.9900 hn        1 19X      0.333700
     44 H16         2.6690   -8.5120    4.6710 hc        1 19X      0.082700
     45 H17         0.8880   -8.3730    4.3710 hc        1 19X      0.082700
     46 H18         1.3570   -7.4040    2.0790 hc        1 19X      0.050033
     47 H19         3.1410   -7.5800    2.3810 hc        1 19X      0.050033
     48 H20         2.0830   -9.0440    2.3120 hc        1 19X      0.050033
     49 H183        0.2570   -0.5320    9.0520 hn        1 19X      0.467133
@<TRIPOS>BOND
     1    1    2 2   
     2    2    3 1   
     3    2    5 1   
     4    3    4 ar  
     5    3    7 ar  
     6    4   10 ar  
     7    4   30 1   
     8    5    6 2   
     9    6    7 1   
    10    6   31 1   
    11    7    8 ar  
    12    8    9 ar  
    13    8   32 1   
    14    9   10 ar  
    15    9   33 1   
    16   10   11 1   
    17   11   12 1   
    18   12   13 ar  
    19   12   15 ar  
    20   13   14 ar  
    21   14   23 ar  
    22   14   27 1   
    23   15   16 ar  
    24   16   17 1   
    25   16   23 ar  
    26   17   18 1   
    27   17   22 1   
    28   18   19 1   
    29   18   34 1   
    30   18   35 1   
    31   19   20 1   
    32   19   21 1   
    33   19   36 1   
    34   20   37 1   
    35   20   38 1   
    36   20   49 1   
    37   21   22 1   
    38   21   39 1   
    39   21   40 1   
    40   22   41 1   
    41   22   42 1   
    42   23   24 1   
    43   24   25 1   
    44   24   26 2   
    45   26   27 1   
    46   26   28 1   
    47   27   43 1   
    48   28   29 1   
    49   28   44 1   
    50   28   45 1   
    51   29   46 1   
    52   29   47 1   
    53   29   48 1   
@<TRIPOS>SUBSTRUCTURE
     1 19X         1 TEMP              0 ****  ****    0 ROOT
