@<TRIPOS>MOLECULE
19X
   48    41     1     0     0
SMALL
bcc


@<TRIPOS>ATOM
      1 O29        -2.9840    4.2430   -5.3560 o         1 19X     -0.220000
      2 C28        -1.8080    3.9400   -5.3660 c1        1 19X      0.284000
      3 C22        -0.8250    3.8560   -4.0600 c2        1 19X     -0.170000
      4 C21        -0.9870    3.6030   -2.7090 c1        1 19X     -0.020000
      5 N27        -0.9520    4.0970   -6.4090 n1        1 19X     -0.167000
      6 C26         0.2810    4.1340   -6.0720 c1        1 19X      0.004000
      7 C23         0.5140    3.9910   -4.6190 c1        1 19X     -0.104000
      8 C24         1.6250    3.8670   -3.7960 c1        1 19X     -0.088000
      9 C25         1.4590    3.6090   -2.4180 c1        1 19X     -0.057000
     10 C20         0.1490    3.4760   -1.8700 c1        1 19X     -0.271000
     11 S19        -0.1640    3.0240   -0.1430 ss        1 19X      0.431000
     12 C10         0.1220    1.2450    0.0820 c2        1 19X     -0.109000
     13 N11         0.4950    0.3590   -0.8920 n2        1 19X     -0.206000
     14 C2          0.6350   -0.9770   -0.5930 c1        1 19X      0.076000
     15 N9         -0.1160    0.7980    1.3720 n1        1 19X     -0.237000
     16 C8          0.0210   -0.5170    1.6710 c1        1 19X      0.174000
     17 N13        -0.1930   -1.1090    2.9840 n3        1 19X     -0.183000
     18 C17        -1.6170   -0.6510    3.5490 c3        1 19X     -0.122000
     19 C16        -1.5350   -0.7330    4.9000 c3        1 19X     -0.048000
     20 N18        -2.3440    0.3380    5.5300 n3        1 19X     -0.334000
     21 C15        -0.0540   -0.5380    5.2200 c3        1 19X     -0.181000
     22 C14         0.7010   -0.6440    3.8240 c3        1 19X     -0.079000
     23 C3          0.4010   -1.4200    0.6810 c1        1 19X     -0.166000
     24 C4          0.6140   -2.7970    0.7030 c1        1 19X     -0.108000
     25 CL1         0.9110   -4.1280    1.8220 cl        1 19X      0.040000
     26 C5          0.9780   -3.1890   -0.5620 c1        1 19X     -0.026000
     27 N1          0.9940   -2.0710   -1.3680 n1        1 19X     -0.183000
     28 C6          1.6190   -4.3450   -1.3060 c2        1 19X     -0.110000
     29 C7          0.5260   -5.3980   -1.6750 c3        1 19X     -0.219000
     30 H1         -1.8700    3.5150   -2.3390 ha        1 19X      0.167000
     31 H2          0.9170    4.6170   -6.6190 ha        1 19X      0.181000
     32 H3          2.5150    3.9570   -4.1690 ha        1 19X      0.146000
     33 H4          2.2520    3.5210   -1.8310 ha        1 19X      0.153000
     34 H5         -2.3240   -1.2520    3.2140 h1        1 19X      0.108000
     35 H6         -1.8010    0.2590    3.2840 h1        1 19X      0.108000
     36 H7         -1.8290   -1.5940    5.2000 h1        1 19X      0.106000
     37 H8         -3.1790    0.3220    5.1910 hn        1 19X      0.150500
     38 H9         -2.3810    0.1950    6.4570 hn        1 19X      0.150500
     39 H11         0.0930    0.3520    5.6210 hc        1 19X      0.100000
     40 H12         0.2580   -1.2410    5.8280 hc        1 19X      0.100000
     41 H13         1.4490   -1.2590    3.8930 h1        1 19X      0.101000
     42 H14         1.0040    0.2210    3.5430 h1        1 19X      0.101000
     43 H15         1.2070   -2.0530   -2.2700 DU        1 19X      0.266000
     44 H16         2.0400   -4.0130   -2.1220 ha        1 19X      0.109000
     45 H17         2.2870   -4.7570   -0.7440 ha        1 19X      0.109000
     46 H18         0.9500   -6.2660   -1.8400 hc        1 19X      0.081333
     47 H19        -0.1060   -5.4800   -0.9420 hc        1 19X      0.081333
     48 H20         0.0560   -5.1110   -2.4780 hc        1 19X      0.081333
@<TRIPOS>BOND
     1    1    2 1   
     2    2    3 1   
     3    3    4 1   
     4    3    7 1   
     5    4   30 1   
     6    5    6 1   
     7    6   31 1   
     8    7    8 1   
     9    8   32 1   
    10    9   10 1   
    11    9   33 1   
    12   10   11 1   
    13   11   12 1   
    14   12   13 1   
    15   12   15 1   
    16   13   14 1   
    17   16   17 1   
    18   16   23 1   
    19   17   18 1   
    20   17   22 1   
    21   18   19 1   
    22   18   34 1   
    23   18   35 1   
    24   19   20 1   
    25   19   21 1   
    26   19   36 1   
    27   20   37 1   
    28   20   38 1   
    29   21   22 1   
    30   21   39 1   
    31   21   40 1   
    32   22   41 1   
    33   22   42 1   
    34   24   26 1   
    35   26   27 1   
    36   28   29 1   
    37   28   44 1   
    38   28   45 1   
    39   29   46 1   
    40   29   47 1   
    41   29   48 1   
@<TRIPOS>SUBSTRUCTURE
     1 19X         1 TEMP              0 ****  ****    0 ROOT
