@<TRIPOS>MOLECULE
19X
   48    52     1     0     0
SMALL
bcc


@<TRIPOS>ATOM
      1 O29         4.8100    0.7280    2.4870 o         1 19X     -0.462100
      2 C28         5.2150    0.3330    1.3990 c         1 19X      0.683100
      3 C22         4.4250   -0.3730    0.3240 ca        1 19X     -0.193600
      4 C21         3.1130   -0.7690    0.2420 ca        1 19X      0.000000
      5 N27         6.5960    0.4750    0.9030 nc        1 19X     -0.596100
      6 C26         6.6490   -0.0560   -0.2880 cd        1 19X      0.505800
      7 C23         5.3430   -0.6140   -0.7460 ca        1 19X     -0.187900
      8 C24         4.9330   -1.2450   -1.8970 ca        1 19X     -0.087000
      9 C25         3.5810   -1.6290   -1.9890 ca        1 19X     -0.079000
     10 C20         2.6840   -1.4120   -0.9430 ca        1 19X     -0.039100
     11 S19         1.1390   -2.0920   -1.1480 ss        1 19X     -0.130200
     12 C10        -0.0310   -0.8780   -0.7360 ca        1 19X      0.744300
     13 N11         0.3840    0.3720   -0.4180 nb        1 19X     -0.730000
     14 C2         -0.6390    1.2360   -0.1400 ca        1 19X      0.467800
     15 N9         -1.3220   -1.3510   -0.7900 nb        1 19X     -0.758000
     16 C8         -2.3410   -0.4900   -0.5290 ca        1 19X      0.697200
     17 N13        -3.7120   -0.8780   -0.6360 nh        1 19X     -0.701300
     18 C17        -4.3860   -1.0310    0.6590 c3        1 19X      0.163800
     19 C16        -4.6530   -2.5490    0.9150 c3        1 19X      0.145500
     20 N18        -3.8470   -3.0790    1.9890 n3        1 19X     -0.904800
     21 C15        -4.4640   -3.2030   -0.4760 c3        1 19X     -0.144400
     22 C14        -4.0250   -2.0770   -1.4220 c3        1 19X      0.162800
     23 C3         -2.0480    0.8640   -0.1830 ca        1 19X     -0.307400
     24 C4         -2.7840    2.0570    0.1390 cc        1 19X     -0.014800
     25 CL1        -4.4420    2.2250    0.2070 cl        1 19X     -0.046400
     26 C5         -1.8560    3.0850    0.3740 cd        1 19X     -0.054300
     27 N1         -0.5560    2.5850    0.2100 na        1 19X     -0.266100
     28 C6         -2.1630    4.4840    0.7520 c3        1 19X     -0.027200
     29 C7         -0.9880    5.4260    0.6850 c3        1 19X     -0.102100
     30 H1          2.4140   -0.5940    1.0750 ha        1 19X      0.168000
     31 H2          7.5640   -0.0890   -0.8940 h4        1 19X      0.051800
     32 H3          5.6210   -1.4400   -2.7310 ha        1 19X      0.147000
     33 H4          3.2280   -2.1140   -2.9140 ha        1 19X      0.152000
     34 H5         -3.8110   -0.5490    1.4920 h1        1 19X      0.073200
     35 H6         -5.3770   -0.5070    0.5650 h1        1 19X      0.073200
     36 H7         -5.7280   -2.6660    1.2340 h1        1 19X      0.067700
     37 H8         -4.0140   -4.0600    2.0970 hn        1 19X      0.352800
     38 H9         -2.8720   -2.9320    1.8150 hn        1 19X      0.352800
     39 H11        -3.6950   -4.0130   -0.4540 hc        1 19X      0.053200
     40 H12        -5.4230   -3.6520   -0.8270 hc        1 19X      0.053200
     41 H13        -4.8850   -1.7800   -2.0870 h1        1 19X      0.066700
     42 H14        -3.1830   -2.4070   -2.0830 h1        1 19X      0.066700
     43 H15         0.2760    3.1080    0.3060 hn        1 19X      0.317700
     44 H16        -2.9800    4.8520    0.0710 hc        1 19X      0.069700
     45 H17        -2.5820    4.4790    1.7970 hc        1 19X      0.069700
     46 H18        -0.5320    5.4290   -0.3340 hc        1 19X      0.042033
     47 H19        -1.3290    6.4650    0.9170 hc        1 19X      0.042033
     48 H20        -0.2020    5.1470    1.4290 hc        1 19X      0.042033
@<TRIPOS>BOND
     1    1    2 2   
     2    2    3 1   
     3    2    5 1   
     4    3    4 ar  
     5    3    7 ar  
     6    4   10 ar  
     7    4   30 1   
     8    5    6 2   
     9    6    7 1   
    10    6   31 1   
    11    7    8 ar  
    12    8    9 ar  
    13    8   32 1   
    14    9   10 ar  
    15    9   33 1   
    16   10   11 1   
    17   11   12 1   
    18   12   13 ar  
    19   12   15 ar  
    20   13   14 ar  
    21   14   23 ar  
    22   14   27 1   
    23   15   16 ar  
    24   16   17 1   
    25   16   23 ar  
    26   17   18 1   
    27   17   22 1   
    28   18   19 1   
    29   18   34 1   
    30   18   35 1   
    31   19   20 1   
    32   19   21 1   
    33   19   36 1   
    34   20   37 1   
    35   20   38 1   
    36   21   22 1   
    37   21   39 1   
    38   21   40 1   
    39   22   41 1   
    40   22   42 1   
    41   23   24 1   
    42   24   25 1   
    43   24   26 2   
    44   26   27 1   
    45   26   28 1   
    46   27   43 1   
    47   28   29 1   
    48   28   44 1   
    49   28   45 1   
    50   29   46 1   
    51   29   47 1   
    52   29   48 1   
@<TRIPOS>SUBSTRUCTURE
     1 19X         1 TEMP              0 ****  ****    0 ROOT
