@<TRIPOS>MOLECULE
19X
   49    53     1     0     0
SMALL
bcc


@<TRIPOS>ATOM
      1 O29         0.1690   -0.8810   -0.0440 o         1 19X     -0.447100
      2 C28         1.2370   -0.3000    0.1100 c         1 19X      0.681100
      3 C22         1.9840   -0.1000    1.4090 ca        1 19X     -0.194600
      4 C21         1.7120   -0.4650    2.7040 ca        1 19X      0.001000
      5 N27         2.0380    0.3300   -0.9520 nc        1 19X     -0.571100
      6 C26         3.1080    0.8360   -0.4050 cd        1 19X      0.502800
      7 C23         3.1740    0.6190    1.0750 ca        1 19X     -0.159900
      8 C24         4.0920    0.9550    2.0420 ca        1 19X     -0.092000
      9 C25         3.8230    0.5600    3.3680 ca        1 19X     -0.054000
     10 C20         2.6530   -0.1200    3.7000 ca        1 19X     -0.050100
     11 S19         2.3550   -0.3930    5.3550 ss        1 19X     -0.190200
     12 C10         2.1360   -2.1000    5.5640 ca        1 19X      0.752300
     13 N11         2.3020   -2.9310    4.5040 nb        1 19X     -0.687000
     14 C2          2.1080   -4.2510    4.7860 ca        1 19X      0.479800
     15 N9          1.8030   -2.4570    6.8500 nb        1 19X     -0.860000
     16 C8          1.6090   -3.7760    7.1340 ca        1 19X      0.653200
     17 N13         1.2390   -4.2070    8.4650 nh        1 19X     -0.666300
     18 C17         0.2040   -3.3810    9.0870 c3        1 19X      0.137800
     19 C16         0.9180   -2.3070    9.9710 c3        1 19X      0.083500
     20 N18         1.1360   -1.0430    9.2030 n4        1 19X     -0.865600
     21 C15         2.2450   -2.9940   10.3540 c3        1 19X     -0.125400
     22 C14         2.3780   -4.2010    9.4000 c3        1 19X      0.142800
     23 C3          1.7540   -4.7480    6.1230 ca        1 19X     -0.269400
     24 C4          1.6390   -6.1760    6.0030 cc        1 19X     -0.033800
     25 CL1         1.2520   -7.2410    7.2210 cl        1 19X     -0.018400
     26 C5          1.9080   -6.5130    4.6650 cd        1 19X     -0.008300
     27 N1          2.1930   -5.3480    3.9340 na        1 19X     -0.256100
     28 C6          1.9040   -7.8740    4.0810 c3        1 19X     -0.038200
     29 C7          2.1420   -7.9260    2.5940 c3        1 19X     -0.107100
     30 H1          0.7920   -1.0130    2.9610 ha        1 19X      0.164000
     31 H2          3.8850    1.3680   -0.9700 h4        1 19X      0.063800
     32 H3          5.0140    1.5050    1.8050 ha        1 19X      0.160000
     33 H4          4.5590    0.8020    4.1540 ha        1 19X      0.153000
     34 H5         -0.3780   -4.0540    9.7780 h1        1 19X      0.100700
     35 H6         -0.5060   -2.9430    8.3400 h1        1 19X      0.100700
     36 H7          0.3030   -2.0550   10.8790 hx        1 19X      0.112700
     37 H8          0.2480   -0.5540    9.0770 hn        1 19X      0.467133
     38 H9          1.5260   -1.2890    8.2510 hn        1 19X      0.467133
     39 H11         2.1810   -3.3450   11.4150 hc        1 19X      0.085200
     40 H12         3.1330   -2.3210   10.2720 hc        1 19X      0.085200
     41 H13         3.3620   -4.1840    8.8620 h1        1 19X      0.092200
     42 H14         2.3130   -5.1620    9.9830 h1        1 19X      0.092200
     43 H15         2.4060   -5.3180    2.9670 hn        1 19X      0.333700
     44 H16         0.9100   -8.3470    4.3210 hc        1 19X      0.082700
     45 H17         2.6930   -8.4790    4.6110 hc        1 19X      0.082700
     46 H18         1.3630   -7.3500    2.0380 hc        1 19X      0.050033
     47 H19         2.0960   -8.9890    2.2490 hc        1 19X      0.050033
     48 H20         3.1490   -7.5230    2.3280 hc        1 19X      0.050033
     49 H183        1.7920   -0.4360    9.6950 hn        1 19X      0.467133
@<TRIPOS>BOND
     1    1    2 2   
     2    2    3 1   
     3    2    5 1   
     4    3    4 ar  
     5    3    7 ar  
     6    4   10 ar  
     7    4   30 1   
     8    5    6 2   
     9    6    7 1   
    10    6   31 1   
    11    7    8 ar  
    12    8    9 ar  
    13    8   32 1   
    14    9   10 ar  
    15    9   33 1   
    16   10   11 1   
    17   11   12 1   
    18   12   13 ar  
    19   12   15 ar  
    20   13   14 ar  
    21   14   23 ar  
    22   14   27 1   
    23   15   16 ar  
    24   16   17 1   
    25   16   23 ar  
    26   17   18 1   
    27   17   22 1   
    28   18   19 1   
    29   18   34 1   
    30   18   35 1   
    31   19   20 1   
    32   19   21 1   
    33   19   36 1   
    34   20   37 1   
    35   20   38 1   
    36   20   49 1   
    37   21   22 1   
    38   21   39 1   
    39   21   40 1   
    40   22   41 1   
    41   22   42 1   
    42   23   24 1   
    43   24   25 1   
    44   24   26 2   
    45   26   27 1   
    46   26   28 1   
    47   27   43 1   
    48   28   29 1   
    49   28   44 1   
    50   28   45 1   
    51   29   46 1   
    52   29   47 1   
    53   29   48 1   
@<TRIPOS>SUBSTRUCTURE
     1 19X         1 TEMP              0 ****  ****    0 ROOT
