@<TRIPOS>MOLECULE
19Y
   36    38     1     0     0
SMALL
bcc


@<TRIPOS>ATOM
      1 O20        -3.0260   -3.1230   -0.8840 o         1 19Y     -0.512100
      2 C19        -3.6660   -2.1240   -0.5530 c         1 19Y      0.595100
      3 C5         -3.0950   -0.8490   -0.1580 cc        1 19Y     -0.199400
      4 C1         -3.8580    0.2900    0.1710 cd        1 19Y     -0.013300
      5 C21        -5.3380    0.3880    0.1740 c3        1 19Y     -0.036200
      6 C22        -5.8850    1.7360    0.5720 c3        1 19Y     -0.104100
      7 C4         -1.7110   -0.4810   -0.0210 ca        1 19Y     -0.295400
      8 C6         -0.4320   -1.0840   -0.1750 ca        1 19Y      0.722600
      9 O17        -0.4230   -2.3960   -0.5640 os        1 19Y     -0.402100
     10 C18         0.8430   -3.0460   -0.6990 c3        1 19Y      0.120700
     11 N7          0.7120   -0.3960    0.0480 nb        1 19Y     -0.806000
     12 C8          0.5990    0.9170    0.4440 ca        1 19Y      0.755300
     13 N9         -0.5430    1.6300    0.6350 nb        1 19Y     -0.715000
     14 C3         -1.6850    0.9120    0.3970 ca        1 19Y      0.462800
     15 N2         -3.0110    1.3500    0.5040 na        1 19Y     -0.266100
     16 S10         2.0470    1.8170    0.7590 ss        1 19Y     -0.117200
     17 C11         3.3560    0.7880    0.4590 ca        1 19Y     -0.176400
     18 C16         3.6260    0.1700   -0.7680 ca        1 19Y     -0.028000
     19 C15         4.8120   -0.5500   -0.9230 ca        1 19Y     -0.261300
     20 C14         5.7000   -0.6230    0.1650 ca        1 19Y      0.417200
     21 N13         5.4630   -0.0370    1.3560 nb        1 19Y     -0.672000
     22 C12         4.3100    0.6400    1.4930 ca        1 19Y      0.441200
     23 H1         -4.7830   -2.1400   -0.5380 h4        1 19Y     -0.017800
     24 H2         -5.7040    0.1270   -0.8580 hc        1 19Y      0.069200
     25 H3         -5.7350   -0.3980    0.8760 hc        1 19Y      0.069200
     26 H4         -5.5720    2.0090    1.6090 hc        1 19Y      0.044367
     27 H5         -5.5420    2.5340   -0.1290 hc        1 19Y      0.044367
     28 H6         -7.0020    1.7070    0.5450 hc        1 19Y      0.044367
     29 H7          0.5520   -4.0830   -1.0060 h1        1 19Y      0.053367
     30 H8          1.4550   -2.5520   -1.4900 h1        1 19Y      0.053367
     31 H9          1.3880   -3.0530    0.2750 h1        1 19Y      0.053367
     32 H10        -3.2970    2.2570    0.7720 hn        1 19Y      0.317700
     33 H11         2.9090    0.2470   -1.6000 ha        1 19Y      0.151000
     34 H12         5.0510   -1.0460   -1.8720 ha        1 19Y      0.147000
     35 H13         6.6510   -1.1800    0.0860 h4        1 19Y      0.024100
     36 H14         4.1340    1.0990    2.4850 h4        1 19Y      0.034100
@<TRIPOS>BOND
     1    1    2 2   
     2    2    3 1   
     3    2   23 1   
     4    3    4 2   
     5    3    7 1   
     6    4    5 1   
     7    4   15 1   
     8    5    6 1   
     9    5   24 1   
    10    5   25 1   
    11    6   26 1   
    12    6   27 1   
    13    6   28 1   
    14    7    8 ar  
    15    7   14 ar  
    16    8    9 1   
    17    8   11 ar  
    18    9   10 1   
    19   10   29 1   
    20   10   30 1   
    21   10   31 1   
    22   11   12 ar  
    23   12   13 ar  
    24   12   16 1   
    25   13   14 ar  
    26   14   15 1   
    27   15   32 1   
    28   16   17 1   
    29   17   18 ar  
    30   17   22 ar  
    31   18   19 ar  
    32   18   33 1   
    33   19   20 ar  
    34   19   34 1   
    35   20   21 ar  
    36   20   35 1   
    37   21   22 ar  
    38   22   36 1   
@<TRIPOS>SUBSTRUCTURE
     1 19Y         1 TEMP              0 ****  ****    0 ROOT
