@<TRIPOS>MOLECULE
19Y
   36    38     1     0     0
SMALL
bcc


@<TRIPOS>ATOM
      1 O20        -0.1090   -0.6460   -0.4320 o         1 19Y     -0.512100
      2 C19         1.0720   -0.3270   -0.2870 c         1 19Y      0.595100
      3 C5          1.7000    0.0360    0.9700 cc        1 19Y     -0.199400
      4 C1          3.0670    0.3520    1.1070 cd        1 19Y     -0.013300
      5 C21         4.0800    0.3710    0.0240 c3        1 19Y     -0.036200
      6 C22         5.4720    0.7510    0.4620 c3        1 19Y     -0.104100
      7 C4          1.1100    0.1490    2.2770 ca        1 19Y     -0.295400
      8 C6         -0.1680   -0.0090    2.8820 ca        1 19Y      0.722600
      9 O17        -1.1920   -0.3710    2.0500 os        1 19Y     -0.402100
     10 C18        -2.4970   -0.5100    2.6160 c3        1 19Y      0.120700
     11 N7         -0.3580    0.1880    4.2080 nb        1 19Y     -0.806000
     12 C8          0.7330    0.5590    4.9600 ca        1 19Y      0.755300
     13 N9          2.0100    0.7500    4.5300 nb        1 19Y     -0.715000
     14 C3          2.1750    0.5400    3.1880 ca        1 19Y      0.462800
     15 N2          3.3540    0.6540    2.4410 na        1 19Y     -0.266100
     16 S10         0.5160    0.8390    6.6570 ss        1 19Y     -0.117200
     17 C11        -1.1120    0.5430    7.0130 ca        1 19Y     -0.176400
     18 C16        -1.7710   -0.6740    6.8030 ca        1 19Y     -0.028000
     19 C15        -3.0800   -0.8290    7.2620 ca        1 19Y     -0.261300
     20 C14        -3.6900    0.2500    7.9260 ca        1 19Y      0.417200
     21 N13        -3.0770    1.4320    8.1400 nb        1 19Y     -0.672000
     22 C12        -1.8220    1.5690    7.6790 ca        1 19Y      0.441200
     23 H1          1.7670   -0.2990   -1.1620 h4        1 19Y     -0.017800
     24 H2          4.1030   -0.6510   -0.4460 hc        1 19Y      0.069200
     25 H3          3.7280    1.0920   -0.7660 hc        1 19Y      0.069200
     26 H4          6.1570    0.7380   -0.4220 hc        1 19Y      0.044367
     27 H5          5.4920    1.7780    0.8990 hc        1 19Y      0.044367
     28 H6          5.8690    0.0310    1.2180 hc        1 19Y      0.044367
     29 H7         -2.5080   -1.3180    3.3850 h1        1 19Y      0.053367
     30 H8         -2.8410    0.4570    3.0540 h1        1 19Y      0.053367
     31 H9         -3.1190   -0.7920    1.7280 h1        1 19Y      0.053367
     32 H10         4.2390    0.9080    2.7990 hn        1 19Y      0.317700
     33 H11        -1.2640   -1.4990    6.2790 ha        1 19Y      0.151000
     34 H12        -3.6230   -1.7700    7.1120 ha        1 19Y      0.147000
     35 H13        -4.7240    0.1700    8.3080 h4        1 19Y      0.024100
     36 H14        -1.3480    2.5540    7.8550 h4        1 19Y      0.034100
@<TRIPOS>BOND
     1    1    2 2   
     2    2    3 1   
     3    2   23 1   
     4    3    4 2   
     5    3    7 1   
     6    4    5 1   
     7    4   15 1   
     8    5    6 1   
     9    5   24 1   
    10    5   25 1   
    11    6   26 1   
    12    6   27 1   
    13    6   28 1   
    14    7    8 ar  
    15    7   14 ar  
    16    8    9 1   
    17    8   11 ar  
    18    9   10 1   
    19   10   29 1   
    20   10   30 1   
    21   10   31 1   
    22   11   12 ar  
    23   12   13 ar  
    24   12   16 1   
    25   13   14 ar  
    26   14   15 1   
    27   15   32 1   
    28   16   17 1   
    29   17   18 ar  
    30   17   22 ar  
    31   18   19 ar  
    32   18   33 1   
    33   19   20 ar  
    34   19   34 1   
    35   20   21 ar  
    36   20   35 1   
    37   21   22 ar  
    38   22   36 1   
@<TRIPOS>SUBSTRUCTURE
     1 19Y         1 TEMP              0 ****  ****    0 ROOT
