@<TRIPOS>MOLECULE
19Y
   36    29     1     0     0
SMALL
bcc


@<TRIPOS>ATOM
      1 O20        -1.4630    0.7900   -3.7830 o         1 19Y     -0.272000
      2 C19        -0.2510    0.6050   -3.7560 c1        1 19Y      0.244000
      3 C5          0.5330    0.8620   -2.4640 c1        1 19Y     -0.192000
      4 C1          1.8880    0.6990   -2.4230 c1        1 19Y      0.017000
      5 C21         2.9950    0.6440   -3.4840 c2        1 19Y     -0.119000
      6 C22         3.6460    1.9600   -3.5810 c3        1 19Y     -0.222000
      7 C4          0.0560    0.8310   -1.1530 c1        1 19Y     -0.153000
      8 C6         -1.2270    0.7900   -0.6450 c1        1 19Y      0.226000
      9 O17        -2.4130    0.3710   -1.3020 os        1 19Y     -0.161000
     10 C18        -3.5320    1.1880   -1.0480 c3        1 19Y     -0.070000
     11 N7         -1.4270    0.5670    0.6940 n1        1 19Y     -0.280000
     12 C8         -0.3790    0.3900    1.5090 c1        1 19Y     -0.097000
     13 N9          0.9190    0.4300    1.0000 n1        1 19Y     -0.190000
     14 C3          1.1230    0.6500   -0.3190 c1        1 19Y      0.071000
     15 N2          2.2670    0.5670   -1.1060 n1        1 19Y     -0.180000
     16 S10        -0.3300    0.4960    3.2970 ss        1 19Y      0.433000
     17 C11        -0.9090   -1.0190    3.9990 c2        1 19Y     -0.337000
     18 C16        -0.0190   -1.9910    4.3460 c2        1 19Y     -0.047000
     19 C15        -0.4640   -3.1830    4.8200 c1        1 19Y     -0.195000
     20 C14        -1.8200   -3.4160    4.9520 c1        1 19Y     -0.047000
     21 N13        -2.7130   -2.4490    4.6080 n1        1 19Y     -0.150000
     22 C12        -2.2670   -1.2480    4.1300 c1        1 19Y     -0.004000
     23 H1          0.2490    0.3030   -4.6190 ha        1 19Y      0.075000
     24 H2          3.7150   -0.0880   -3.2090 ha        1 19Y      0.108500
     25 H3          2.6050    0.4100   -4.3490 ha        1 19Y      0.108500
     26 H4          4.1450    2.1300   -2.7770 hc        1 19Y      0.083333
     27 H5          2.9680    2.6510   -3.6920 hc        1 19Y      0.083333
     28 H6          4.2900    1.9670   -4.4000 hc        1 19Y      0.083333
     29 H7         -4.1930    1.0380   -1.7240 h1        1 19Y      0.094667
     30 H8         -3.9170    0.9620   -0.1450 h1        1 19Y      0.094667
     31 H9         -3.2500    2.1710   -1.0610 h1        1 19Y      0.094667
     32 H10         3.1070    0.4480   -0.8070 DU        1 19Y      0.267000
     33 H11         0.9380   -1.8310    4.2550 ha        1 19Y      0.150000
     34 H12         0.1740   -3.8770    5.0660 ha        1 19Y      0.147000
     35 H13        -2.1340   -4.2690    5.2910 ha        1 19Y      0.161000
     36 H14        -2.9090   -0.5470    3.8810 ha        1 19Y      0.173000
@<TRIPOS>BOND
     1    1    2 1   
     2    2   23 1   
     3    3    4 1   
     4    3    7 1   
     5    4   15 1   
     6    5    6 1   
     7    5   24 1   
     8    5   25 1   
     9    6   26 1   
    10    6   27 1   
    11    6   28 1   
    12    7   14 1   
    13    8    9 1   
    14    8   11 1   
    15    9   10 1   
    16   10   29 1   
    17   10   30 1   
    18   10   31 1   
    19   12   13 1   
    20   12   16 1   
    21   16   17 1   
    22   17   18 1   
    23   17   22 1   
    24   18   19 1   
    25   18   33 1   
    26   19   34 1   
    27   20   21 1   
    28   20   35 1   
    29   22   36 1   
@<TRIPOS>SUBSTRUCTURE
     1 19Y         1 TEMP              0 ****  ****    0 ROOT
