@<TRIPOS>MOLECULE
19Y
   36    38     1     0     0
SMALL
bcc


@<TRIPOS>ATOM
      1 O20        -0.1110   -0.6730   -0.4260 o         1 19Y     -0.512100
      2 C19         1.0690   -0.3460   -0.2850 c         1 19Y      0.595100
      3 C5          1.6970    0.0280    0.9690 cc        1 19Y     -0.199400
      4 C1          3.0630    0.3520    1.1020 cd        1 19Y     -0.013300
      5 C21         4.0740    0.3700    0.0170 c3        1 19Y     -0.036200
      6 C22         5.4650    0.7590    0.4500 c3        1 19Y     -0.104100
      7 C4          1.1080    0.1460    2.2770 ca        1 19Y     -0.295400
      8 C6         -0.1680   -0.0150    2.8850 ca        1 19Y      0.722600
      9 O17        -1.1910   -0.3890    2.0560 os        1 19Y     -0.402100
     10 C18        -2.4950   -0.5300    2.6250 c3        1 19Y      0.120700
     11 N7         -0.3560    0.1880    4.2090 nb        1 19Y     -0.806000
     12 C8          0.7340    0.5700    4.9570 ca        1 19Y      0.755300
     13 N9          2.0080    0.7650    4.5240 nb        1 19Y     -0.715000
     14 C3          2.1730    0.5480    3.1830 ca        1 19Y      0.462800
     15 N2          3.3500    0.6640    2.4330 na        1 19Y     -0.266100
     16 S10         0.5180    0.8590    6.6530 ss        1 19Y     -0.117200
     17 C11        -1.1080    0.5570    7.0130 ca        1 19Y     -0.176400
     18 C16        -1.7600   -0.6650    6.8130 ca        1 19Y     -0.028000
     19 C15        -3.0670   -0.8250    7.2740 ca        1 19Y     -0.261300
     20 C14        -3.6830    0.2540    7.9330 ca        1 19Y      0.417200
     21 N13        -3.0760    1.4410    8.1380 nb        1 19Y     -0.672000
     22 C12        -1.8230    1.5830    7.6740 ca        1 19Y      0.441200
     23 H1          1.7620   -0.3200   -1.1610 h4        1 19Y     -0.017800
     24 H2          4.1010   -0.6550   -0.4470 hc        1 19Y      0.069200
     25 H3          3.7170    1.0840   -0.7770 hc        1 19Y      0.069200
     26 H4          6.1480    0.7430   -0.4340 hc        1 19Y      0.044367
     27 H5          5.4800    1.7890    0.8810 hc        1 19Y      0.044367
     28 H6          5.8660    0.0450    1.2100 hc        1 19Y      0.044367
     29 H7         -2.5000   -1.3330    3.3990 h1        1 19Y      0.053367
     30 H8         -2.8430    0.4380    3.0580 h1        1 19Y      0.053367
     31 H9         -3.1160   -0.8210    1.7400 h1        1 19Y      0.053367
     32 H10         4.2340    0.9250    2.7880 hn        1 19Y      0.317700
     33 H11        -1.2500   -1.4910    6.2930 ha        1 19Y      0.151000
     34 H12        -3.6060   -1.7700    7.1320 ha        1 19Y      0.147000
     35 H13        -4.7160    0.1720    8.3170 h4        1 19Y      0.024100
     36 H14        -1.3540    2.5710    7.8430 h4        1 19Y      0.034100
@<TRIPOS>BOND
     1    1    2 2   
     2    2    3 1   
     3    2   23 1   
     4    3    4 2   
     5    3    7 1   
     6    4    5 1   
     7    4   15 1   
     8    5    6 1   
     9    5   24 1   
    10    5   25 1   
    11    6   26 1   
    12    6   27 1   
    13    6   28 1   
    14    7    8 ar  
    15    7   14 ar  
    16    8    9 1   
    17    8   11 ar  
    18    9   10 1   
    19   10   29 1   
    20   10   30 1   
    21   10   31 1   
    22   11   12 ar  
    23   12   13 ar  
    24   12   16 1   
    25   13   14 ar  
    26   14   15 1   
    27   15   32 1   
    28   16   17 1   
    29   17   18 ar  
    30   17   22 ar  
    31   18   19 ar  
    32   18   33 1   
    33   19   20 ar  
    34   19   34 1   
    35   20   21 ar  
    36   20   35 1   
    37   21   22 ar  
    38   22   36 1   
@<TRIPOS>SUBSTRUCTURE
     1 19Y         1 TEMP              0 ****  ****    0 ROOT
