@<TRIPOS>MOLECULE
19Z
   35    34     1     0     0
SMALL
bcc


@<TRIPOS>ATOM
      1 N01        -0.0030   -0.1420   -0.0610 n3        1 19Z     -0.196000
      2 N02         3.8860    0.4030    3.0420 n3        1 19Z     -0.449000
      3 N03         5.4990   -0.2560   -1.5800 no        1 19Z      0.586000
      4 C04         3.6960   -0.6310    0.0690 c2        1 19Z      0.121000
      5 C05         2.3210   -0.6090    0.4880 c2        1 19Z     -0.322000
      6 C06         1.2820   -0.1490   -0.4040 c2        1 19Z      0.203000
      7 C07         1.7160    0.3390   -1.7710 c3        1 19Z     -0.208000
      8 C08         3.1190    0.3090   -2.1160 c1        1 19Z      0.028000
      9 C09         4.0540   -0.2050   -1.1870 c2        1 19Z     -0.241000
     10 C11        -1.0720    0.3050   -0.9560 c3        1 19Z      0.000000
     11 C12        -2.4180    0.1880   -0.3000 c2        1 19Z     -0.152000
     12 C13        -3.0860    1.3180    0.0490 c2        1 19Z      0.041000
     13 C14        -4.3880    1.4600    0.6140 c2        1 19Z     -0.273000
     14 C15        -5.3250    0.4820    0.7100 c2        1 19Z      0.079000
     15 C16        -3.2660   -2.2550   -0.0140 c1        1 19Z     -0.171000
     16 C17        -2.8810   -1.1260   -0.1390 c1        1 19Z     -0.165000
     17 O18         1.7470   -1.4350    2.8150 o         1 19Z      0.033000
     18 O19        -6.5190    0.8060    1.2810 oh        1 19Z     -0.229000
     19 O20         6.3000   -0.3260   -0.6840 o         1 19Z     -0.320000
     20 O21         5.7990   -0.2420   -2.7320 o         1 19Z     -0.320000
     21 HN01       -0.3060   -0.4750    0.8360 hn        1 19Z      0.255000
     22 HN02        3.8060    0.0920    3.9900 hn        1 19Z      0.156333
     23 HN0A        4.8350    0.2740    2.7460 hn        1 19Z      0.156333
     24 H04         4.4560   -1.0020    0.7880 ha        1 19Z      0.196000
     25 H07         1.3710    1.4140   -1.9060 hc        1 19Z      0.200000
     26 H08         1.1770   -0.2610   -2.5730 hc        1 19Z      0.200000
     27 H11        -0.8580    1.3740   -1.2520 h1        1 19Z      0.128500
     28 H11A       -1.0420   -0.3370   -1.8860 h1        1 19Z      0.128500
     29 H13        -2.5720    2.2880   -0.1160 ha        1 19Z      0.133000
     30 H14        -4.6450    2.4710    0.9810 ha        1 19Z      0.166000
     31 H16        -5.1920   -0.5520    0.3490 h4        1 19Z      0.146000
     32 H17        -3.6100   -3.2550    0.0920 ha        1 19Z      0.242000
     33 HO19       -7.1010    0.0330    1.2350 ho        1 19Z      0.239000
     34 H023        3.6790    1.3820    3.0120 hn        1 19Z      0.156333
     35 C10         2.0390   -1.0240    1.7640 c1        1 19Z      0.453000
@<TRIPOS>BOND
     1    1    6 1   
     2    1   10 1   
     3    1   21 1   
     4    2   22 1   
     5    2   23 1   
     6    2   34 1   
     7    3    9 1   
     8    3   19 1   
     9    3   20 1   
    10    4    5 1   
    11    4    9 1   
    12    4   24 1   
    13    5    6 1   
    14    5   35 1   
    15    6    7 1   
    16    7    8 1   
    17    7   25 1   
    18    7   26 1   
    19    8    9 1   
    20   10   11 1   
    21   10   27 1   
    22   10   28 1   
    23   11   12 1   
    24   11   16 1   
    25   12   13 1   
    26   12   29 1   
    27   13   14 1   
    28   13   30 1   
    29   14   18 1   
    30   14   31 1   
    31   15   16 1   
    32   15   32 1   
    33   17   35 1   
    34   18   33 1   
@<TRIPOS>SUBSTRUCTURE
     1 19Z         1 TEMP              0 ****  ****    0 ROOT
