@<TRIPOS>MOLECULE
19Z
   34    35     1     0     0
SMALL
bcc


@<TRIPOS>ATOM
      1 N01         0.5180    0.1050   -0.1780 nh        1 19Z     -0.747600
      2 N02        -1.7170   -3.2940    0.1020 n         1 19Z     -0.663000
      3 N03        -5.1100    0.7230    0.1450 no        1 19Z      0.326200
      4 C04        -3.0610   -0.6810    0.3430 ca        1 19Z      0.011000
      5 C05        -1.6820   -0.8450    0.2700 ca        1 19Z     -0.248600
      6 C06        -0.8360    0.2600   -0.0710 ca        1 19Z      0.286600
      7 C07        -1.4650    1.5130   -0.3460 ca        1 19Z     -0.241000
      8 C08        -2.8340    1.6620   -0.2790 ca        1 19Z      0.003000
      9 C09        -3.6450    0.5630    0.0680 ca        1 19Z     -0.264200
     10 C11         1.4050    1.2270   -0.3730 c3        1 19Z      0.262100
     11 C12         2.8520    0.8470   -0.2750 ca        1 19Z     -0.153300
     12 C13         3.7120    1.0960   -1.3510 ca        1 19Z     -0.076000
     13 C14         5.0640    0.7850   -1.2640 ca        1 19Z     -0.185000
     14 C15         5.5560    0.2080   -0.0800 ca        1 19Z      0.137100
     15 C16         4.7030   -0.0520    1.0020 ca        1 19Z     -0.185000
     16 C17         3.3530    0.2720    0.8970 ca        1 19Z     -0.076000
     17 O18        -0.0450   -2.3010    1.2660 o         1 19Z     -0.637100
     18 O19         6.9000   -0.0790   -0.0530 oh        1 19Z     -0.493100
     19 O20        -5.7890   -0.2340    0.4150 o         1 19Z     -0.220500
     20 O21        -5.5940    1.8040   -0.0680 o         1 19Z     -0.220500
     21 HN01        0.9290   -0.7440    0.1570 hn        1 19Z      0.469800
     22 HN02       -2.5340   -3.2290   -0.4470 hn        1 19Z      0.318500
     23 HN0A       -1.3510   -4.1880    0.3200 hn        1 19Z      0.318500
     24 H04        -3.7110   -1.5260    0.6360 ha        1 19Z      0.167000
     25 H07        -0.8510    2.3860   -0.6160 ha        1 19Z      0.150000
     26 H08        -3.2980    2.6420   -0.4920 ha        1 19Z      0.170000
     27 H11         1.1950    1.6740   -1.3900 h1        1 19Z      0.052200
     28 H11A        1.1900    2.0250    0.4000 h1        1 19Z      0.052200
     29 H13         3.3190    1.5430   -2.2780 ha        1 19Z      0.141500
     30 H14         5.7500    0.9790   -2.0990 ha        1 19Z      0.148000
     31 H16         5.0950   -0.5070    1.9230 ha        1 19Z      0.148000
     32 H17         2.6800    0.0710    1.7460 ha        1 19Z      0.141500
     33 HO19        7.1040   -0.4780    0.8060 ho        1 19Z      0.423000
     34 C10        -1.0900   -2.1750    0.5870 c         1 19Z      0.684700
@<TRIPOS>BOND
     1    1    6 1   
     2    1   10 1   
     3    1   21 1   
     4    2   22 1   
     5    2   23 1   
     6    2   34 1   
     7    3    9 1   
     8    3   19 1   
     9    3   20 1   
    10    4    5 ar  
    11    4    9 ar  
    12    4   24 1   
    13    5    6 ar  
    14    5   34 1   
    15    6    7 ar  
    16    7    8 ar  
    17    7   25 1   
    18    8    9 ar  
    19    8   26 1   
    20   10   11 1   
    21   10   27 1   
    22   10   28 1   
    23   11   12 ar  
    24   11   16 ar  
    25   12   13 ar  
    26   12   29 1   
    27   13   14 ar  
    28   13   30 1   
    29   14   15 ar  
    30   14   18 1   
    31   15   16 ar  
    32   15   31 1   
    33   16   32 1   
    34   17   34 2   
    35   18   33 1   
@<TRIPOS>SUBSTRUCTURE
     1 19Z         1 TEMP              0 ****  ****    0 ROOT
