@<TRIPOS>MOLECULE
19Z
   34    30     1     0     0
SMALL
bcc


@<TRIPOS>ATOM
      1 N01        -0.0040   -0.2020    0.0530 n3        1 19Z     -0.303000
      2 N02         2.9370    2.0650    2.0300 n         1 19Z     -0.423000
      3 N03         5.2820   -0.3810   -1.8960 n2        1 19Z      0.472400
      4 C04         3.6210    0.3920   -0.2460 c1        1 19Z      0.011000
      5 C05         2.2900    0.4790    0.2000 c1        1 19Z     -0.228000
      6 C06         1.3070   -0.1700   -0.4730 c2        1 19Z      0.205000
      7 C07         1.6160   -0.9190   -1.6010 c2        1 19Z     -0.241000
      8 C08         2.9350   -1.0040   -2.0400 c1        1 19Z      0.003000
      9 C09         3.9270   -0.3480   -1.3590 c1        1 19Z     -0.219000
     10 C10         1.9510    1.3320    1.4100 c2        1 19Z      0.358000
     11 C11        -1.1500   -0.1970   -0.8520 c3        1 19Z      0.018000
     12 C12        -2.4420   -0.2480   -0.0430 c2        1 19Z     -0.146000
     13 C13        -3.0440    0.9450    0.3880 c2        1 19Z     -0.077000
     14 C14        -4.2760    0.9100    1.0310 c1        1 19Z     -0.159000
     15 C15        -4.9120   -0.2990    1.2480 c1        1 19Z      0.092000
     16 C16        -4.3190   -1.4850    0.8220 c1        1 19Z     -0.211000
     17 C17        -3.0770   -1.4560    0.1730 c1        1 19Z     -0.075000
     18 O18         0.7760    1.4120    1.8060 o         1 19Z     -0.398000
     19 O19        -6.1670   -0.3350    1.9630 oh        1 19Z     -0.247000
     20 O20         5.5470   -1.0910   -3.0250 o         1 19Z     -0.316200
     21 O21         6.2020    0.1670   -1.2820 o         1 19Z     -0.316200
     22 HN01       -0.1380   -0.3450    0.9880 hn        1 19Z      0.265000
     23 HN02        2.8510    2.2930    2.8960 hn        1 19Z      0.232000
     24 HN0A        3.6770    2.3320    1.5560 hn        1 19Z      0.232000
     25 H04         4.3090    0.8460    0.2250 ha        1 19Z      0.167000
     26 H07         0.9270   -1.3730   -2.0740 ha        1 19Z      0.150000
     27 H08         3.1600   -1.5470   -2.8540 ha        1 19Z      0.170000
     28 H11        -1.1380    0.5990   -1.3750 h1        1 19Z      0.091500
     29 H11A       -1.1030   -0.9670   -1.4360 h1        1 19Z      0.091500
     30 H13        -2.5990    1.7970    0.2390 ha        1 19Z      0.138000
     31 H14        -4.6820    1.7140    1.3220 ha        1 19Z      0.155000
     32 H16        -4.7520   -2.3030    0.9700 ha        1 19Z      0.141000
     33 H17        -2.6520   -2.3070   -0.1320 ha        1 19Z      0.145000
     34 HO19       -6.8580   -0.3050    1.3670 ho        1 19Z      0.222000
@<TRIPOS>BOND
     1    1    6 1   
     2    1   11 1   
     3    1   22 1   
     4    2   10 1   
     5    2   23 1   
     6    2   24 1   
     7    3   20 2   
     8    3   21 2   
     9    4    9 1   
    10    4   25 1   
    11    5    6 1   
    12    5   10 1   
    13    6    7 1   
    14    7    8 1   
    15    7   26 1   
    16    8   27 1   
    17   10   18 1   
    18   11   12 1   
    19   11   28 1   
    20   11   29 1   
    21   12   13 1   
    22   12   17 1   
    23   13   14 1   
    24   13   30 1   
    25   14   31 1   
    26   15   16 1   
    27   15   19 1   
    28   16   32 1   
    29   17   33 1   
    30   19   34 1   
@<TRIPOS>SUBSTRUCTURE
     1 19Z         1 TEMP              0 ****  ****    0 ROOT
