@<TRIPOS>MOLECULE
19Z
   34    34     1     0     0
SMALL
bcc


@<TRIPOS>ATOM
      1 N01         0.1600   -0.0740   -0.0560 n3        1 19Z     -0.237000
      2 N02         3.1670   -0.0330    2.8170 n         1 19Z     -0.421000
      3 N03         5.5570   -0.1590   -1.8000 no        1 19Z      0.588000
      4 C04         3.8400   -0.3110   -0.0220 c2        1 19Z      0.117000
      5 C05         2.5280   -0.2660    0.4540 c2        1 19Z     -0.330000
      6 C06         1.4440   -0.0280   -0.4430 c2        1 19Z      0.193000
      7 C07         1.7740    0.2980   -1.8840 c3        1 19Z     -0.182000
      8 C08         3.1630    0.2560   -2.3020 c1        1 19Z     -0.094000
      9 C09         4.1410   -0.0770   -1.3740 c2        1 19Z     -0.288000
     10 C11        -0.9390    0.1760   -0.9660 c3        1 19Z      0.002000
     11 C12        -2.2790    0.1510   -0.2730 c2        1 19Z     -0.084000
     12 C13        -3.0300    1.2760   -0.2430 c2        1 19Z     -0.019000
     13 C14        -4.3380    1.4810    0.3070 c2        1 19Z     -0.234000
     14 C15        -5.0290    0.5950    1.0580 c2        1 19Z      0.028000
     15 C16        -2.9160   -2.1740    0.7080 c1        1 19Z     -0.181000
     16 C17        -2.6370   -1.0950    0.2640 c1        1 19Z     -0.145000
     17 O18         1.2430   -1.1040    2.3090 o         1 19Z     -0.415000
     18 O19        -6.2710    0.9670    1.5050 oh        1 19Z     -0.249000
     19 O20         6.4030   -0.2030   -0.9360 o         1 19Z     -0.374000
     20 O21         5.8500   -0.1910   -2.9600 o         1 19Z     -0.374000
     21 HN01       -0.0760   -0.3580    0.8820 hn        1 19Z      0.286000
     22 HN02        3.0200   -0.2210    3.7770 hn        1 19Z      0.233000
     23 HN0A        3.9850    0.4470    2.5420 hn        1 19Z      0.233000
     24 H04         4.6670   -0.5460    0.6780 ha        1 19Z      0.165000
     25 H07         1.3960    1.3380   -2.1190 hc        1 19Z      0.164000
     26 H08         1.2140   -0.4140   -2.5630 hc        1 19Z      0.164000
     27 H11        -0.7770    1.1780   -1.4640 h1        1 19Z      0.106500
     28 H11A       -0.9330   -0.6150   -1.7740 h1        1 19Z      0.106500
     29 H13        -2.6080    2.1880   -0.7150 ha        1 19Z      0.131000
     30 H14        -4.7970    2.4630    0.0900 ha        1 19Z      0.151000
     31 H16        -4.6680   -0.4060    1.3450 h4        1 19Z      0.145000
     32 H17        -3.1500   -3.1310    1.1020 ha        1 19Z      0.232000
     33 HO19       -6.6230    0.2370    2.0340 ho        1 19Z      0.223000
     34 C10         2.2670   -0.5060    1.8970 c2        1 19Z      0.361000
@<TRIPOS>BOND
     1    1    6 1   
     2    1   10 1   
     3    1   21 1   
     4    2   22 1   
     5    2   23 1   
     6    2   34 1   
     7    3    9 1   
     8    3   19 1   
     9    3   20 1   
    10    4    5 1   
    11    4    9 1   
    12    4   24 1   
    13    5    6 1   
    14    5   34 1   
    15    6    7 1   
    16    7    8 1   
    17    7   25 1   
    18    7   26 1   
    19    8    9 1   
    20   10   11 1   
    21   10   27 1   
    22   10   28 1   
    23   11   12 1   
    24   11   16 1   
    25   12   13 1   
    26   12   29 1   
    27   13   14 1   
    28   13   30 1   
    29   14   18 1   
    30   14   31 1   
    31   15   16 1   
    32   15   32 1   
    33   17   34 1   
    34   18   33 1   
@<TRIPOS>SUBSTRUCTURE
     1 19Z         1 TEMP              0 ****  ****    0 ROOT
