@<TRIPOS>MOLECULE
19Z
   35    34     1     0     0
SMALL
bcc


@<TRIPOS>ATOM
      1 N01         0.0000    0.2520   -0.0190 n7        1 19Z     -0.196000
      2 N02         3.8760   -1.0410    2.9010 n9        1 19Z     -0.449000
      3 N03         5.5020    0.3600   -1.5370 no        1 19Z      0.587000
      4 C04         3.7180    0.5170    0.1690 c2        1 19Z      0.121000
      5 C05         2.3440    0.4820    0.5890 c2        1 19Z     -0.322000
      6 C06         1.2850    0.2400   -0.3620 c2        1 19Z      0.203000
      7 C07         1.6960   -0.0290   -1.7950 c3        1 19Z     -0.208000
      8 C08         3.0990   -0.0030   -2.1410 c1        1 19Z      0.028000
      9 C09         4.0570    0.3030   -1.1450 c2        1 19Z     -0.241000
     10 C11        -1.0870   -0.0030   -0.9660 c3        1 19Z      0.000000
     11 C12        -2.4260    0.0540   -0.2880 c2        1 19Z     -0.153000
     12 C13        -3.2560    1.0980   -0.5460 c2        1 19Z      0.042000
     13 C14        -4.5830    1.3340   -0.0810 c2        1 19Z     -0.273000
     14 C15        -5.3790    0.4310    0.5470 c2        1 19Z      0.079000
     15 C16        -2.9390   -1.9760    1.2560 c1        1 19Z     -0.173000
     16 C17        -2.7090   -1.0350    0.5480 c1        1 19Z     -0.163000
     17 O18         1.8110    0.8890    3.0340 o         1 19Z      0.033000
     18 O19        -6.6250    0.8390    0.9180 oh        1 19Z     -0.228000
     19 O20         6.3060    0.2320   -0.6500 o         1 19Z     -0.320500
     20 O21         5.7990    0.5420   -2.6750 o         1 19Z     -0.320500
     21 HN01       -0.2860    0.4160    0.9280 hn        1 19Z      0.254000
     22 HN02        3.6330   -1.9890    2.6890 hn        1 19Z      0.156000
     23 HN0A        4.8280   -0.8930    2.6300 hn        1 19Z      0.156000
     24 H04         4.4950    0.7230    0.9350 ha        1 19Z      0.196000
     25 H07         1.3040   -1.0520   -2.1030 hc        1 19Z      0.200000
     26 H08         1.1850    0.7180   -2.4830 hc        1 19Z      0.200000
     27 H11        -0.9280   -1.0280   -1.4150 h1        1 19Z      0.128500
     28 H11A       -1.0210    0.7640   -1.7920 h1        1 19Z      0.128500
     29 H13        -2.8760    1.9030   -1.2110 ha        1 19Z      0.134000
     30 H14        -4.9900    2.3440   -0.2810 ha        1 19Z      0.167000
     31 H16        -5.0920   -0.6100    0.7690 h4        1 19Z      0.145000
     32 H17        -3.1460   -2.8120    1.8790 ha        1 19Z      0.241000
     33 HO19       -7.0940    0.0830    1.3050 ho        1 19Z      0.239000
     34 H023        3.8050   -0.9110    3.8910 hn        1 19Z      0.156000
     35 C10         2.0830    0.6680    1.9220 c1        1 19Z      0.453000
@<TRIPOS>BOND
     1    1    6 1   
     2    1   10 1   
     3    1   21 1   
     4    2   22 1   
     5    2   23 1   
     6    2   34 1   
     7    3    9 1   
     8    3   19 1   
     9    3   20 1   
    10    4    5 1   
    11    4    9 1   
    12    4   24 1   
    13    5    6 1   
    14    5   35 1   
    15    6    7 1   
    16    7    8 1   
    17    7   25 1   
    18    7   26 1   
    19    8    9 1   
    20   10   11 1   
    21   10   27 1   
    22   10   28 1   
    23   11   12 1   
    24   11   16 1   
    25   12   13 1   
    26   12   29 1   
    27   13   14 1   
    28   13   30 1   
    29   14   18 1   
    30   14   31 1   
    31   15   16 1   
    32   15   32 1   
    33   17   35 1   
    34   18   33 1   
@<TRIPOS>SUBSTRUCTURE
     1 19Z         1 TEMP              0 ****  ****    0 ROOT
