@<TRIPOS>MOLECULE
1A0
   49    53     1     0     0
SMALL
bcc


@<TRIPOS>ATOM
      1 CL1        -0.5930   -0.3760   -0.0550 cl        1 1A0     -0.018400
      2 C4          1.0670   -0.4280    0.0450 cc        1 1A0     -0.033800
      3 C5          1.8210   -0.5220    1.2270 cd        1 1A0     -0.009300
      4 C6          1.2890   -0.5920    2.6080 c3        1 1A0     -0.038200
      5 C7          2.3370   -0.6850    3.6870 c3        1 1A0     -0.107100
      6 N1          3.1900   -0.5430    0.9130 na        1 1A0     -0.257100
      7 C3          1.9900   -0.3900   -1.0570 ca        1 1A0     -0.271400
      8 C8          1.9250   -0.3130   -2.4630 ca        1 1A0      0.654200
      9 N13         0.6260   -0.2570   -3.0980 nh        1 1A0     -0.666300
     10 C17         0.5110   -1.0970   -4.2900 c3        1 1A0      0.137800
     11 C16         0.8150   -0.2020   -5.5360 c3        1 1A0      0.083500
     12 N18         2.2600   -0.2790   -5.9080 n4        1 1A0     -0.865600
     13 C15         0.4070    1.2080   -5.0610 c3        1 1A0     -0.125400
     14 C14         0.2640    1.1050   -3.5280 c3        1 1A0      0.142800
     15 N9          3.0700   -0.2990   -3.2030 nb        1 1A0     -0.861000
     16 C10         4.2790   -0.3770   -2.5500 ca        1 1A0      0.750300
     17 N11         4.4790   -0.4610   -1.2110 nb        1 1A0     -0.687000
     18 C2          3.3340   -0.4650   -0.4690 ca        1 1A0      0.480800
     19 S19         5.6460   -0.3720   -3.6180 ss        1 1A0     -0.172200
     20 C20         7.0290   -0.3770   -2.6410 ca        1 1A0     -0.187400
     21 C25         7.3840   -1.5100   -1.8390 ca        1 1A0      0.472200
     22 N24         8.4960   -1.6240   -1.1410 nb        1 1A0     -0.616000
     23 C23         9.4010   -0.5720   -1.1900 ca        1 1A0      0.556000
     24 N26        10.5950   -0.6760   -0.4650 nb        1 1A0     -0.593000
     25 C27        11.4210    0.3470   -0.5440 ca        1 1A0      0.328900
     26 C28        11.1420    1.5350   -1.3290 ca        1 1A0      0.299900
     27 N29        10.0310    1.6730   -2.0220 nb        1 1A0     -0.605000
     28 C22         9.1300    0.6210   -1.9690 ca        1 1A0      0.214300
     29 C21         7.8960    0.6940   -2.6850 ca        1 1A0     -0.038300
     30 H1          0.6050   -1.4850    2.6680 hc        1 1A0      0.082200
     31 H2          0.6530    0.3220    2.7770 hc        1 1A0      0.082200
     32 H3          1.8360   -0.7310    4.6860 hc        1 1A0      0.049700
     33 H4          3.0090    0.2070    3.6800 hc        1 1A0      0.049700
     34 H5          2.9590   -1.6060    3.5710 hc        1 1A0      0.049700
     35 H6          3.9270   -0.6080    1.5720 hn        1 1A0      0.333700
     36 H7         -0.5680   -1.4170   -4.3590 h1        1 1A0      0.100700
     37 H8          1.1480   -2.0170   -4.2350 h1        1 1A0      0.100700
     38 H9          0.2120   -0.5300   -6.4280 hx        1 1A0      0.112700
     39 H10         2.5020    0.4720   -6.5540 hn        1 1A0      0.466800
     40 H11         2.8400   -0.1910   -5.0280 hn        1 1A0      0.466800
     41 H13        -0.5760    1.4780   -5.5240 hc        1 1A0      0.085200
     42 H14         1.1430    2.0010   -5.3410 hc        1 1A0      0.085200
     43 H15        -0.8100    1.2570   -3.2290 h1        1 1A0      0.092200
     44 H16         0.8830    1.8860   -3.0110 h1        1 1A0      0.092200
     45 H17         6.6900   -2.3710   -1.7760 h4        1 1A0      0.041100
     46 H18        12.3670    0.2710    0.0250 h4        1 1A0      0.052100
     47 H19        11.8730    2.3640   -1.3600 h4        1 1A0      0.051100
     48 H20         7.6620    1.6020   -3.2670 ha        1 1A0      0.168000
     49 H183        2.4600   -1.1810   -6.3430 hn        1 1A0      0.466800
@<TRIPOS>BOND
     1    1    2 1   
     2    2    3 2   
     3    2    7 1   
     4    3    4 1   
     5    3    6 1   
     6    4    5 1   
     7    4   30 1   
     8    4   31 1   
     9    5   32 1   
    10    5   33 1   
    11    5   34 1   
    12    6   18 1   
    13    6   35 1   
    14    7    8 ar  
    15    7   18 ar  
    16    8    9 1   
    17    8   15 ar  
    18    9   10 1   
    19    9   14 1   
    20   10   11 1   
    21   10   36 1   
    22   10   37 1   
    23   11   12 1   
    24   11   13 1   
    25   11   38 1   
    26   12   39 1   
    27   12   40 1   
    28   12   49 1   
    29   13   14 1   
    30   13   41 1   
    31   13   42 1   
    32   14   43 1   
    33   14   44 1   
    34   15   16 ar  
    35   16   17 ar  
    36   16   19 1   
    37   17   18 ar  
    38   19   20 1   
    39   20   21 ar  
    40   20   29 ar  
    41   21   22 ar  
    42   21   45 1   
    43   22   23 ar  
    44   23   24 ar  
    45   23   28 ar  
    46   24   25 ar  
    47   25   26 ar  
    48   25   46 1   
    49   26   27 ar  
    50   26   47 1   
    51   27   28 ar  
    52   28   29 ar  
    53   29   48 1   
@<TRIPOS>SUBSTRUCTURE
     1 1A0         1 TEMP              0 ****  ****    0 ROOT
