@<TRIPOS>MOLECULE
1A0
   49    53     1     0     0
SMALL
bcc


@<TRIPOS>ATOM
      1 Cl1        -0.5850   -0.3910   -0.0560 cl        1 1A0     -0.018400
      2 C4          1.0760   -0.4410    0.0430 cc        1 1A0     -0.033800
      3 C5          1.8290   -0.5400    1.2250 cd        1 1A0     -0.009300
      4 C6          1.2980   -0.6170    2.6060 c3        1 1A0     -0.038200
      5 C7          2.3450   -0.7290    3.6830 c3        1 1A0     -0.107100
      6 N1          3.1980   -0.5570    0.9100 na        1 1A0     -0.257100
      7 C3          1.9980   -0.3950   -1.0590 ca        1 1A0     -0.271400
      8 C8          1.9330   -0.3100   -2.4650 ca        1 1A0      0.654200
      9 N13         0.6340   -0.2530   -3.0990 nh        1 1A0     -0.666300
     10 C17         0.5190   -1.0870   -4.2950 c3        1 1A0      0.137800
     11 C16         0.8220   -0.1850   -5.5370 c3        1 1A0      0.083500
     12 N18         2.2680   -0.2580   -5.9090 nz        1 1A0     -0.865600
     13 C15         0.4120    1.2220   -5.0540 c3        1 1A0     -0.125400
     14 C14         0.2700    1.1110   -3.5210 c3        1 1A0      0.142800
     15 N9          3.0780   -0.2920   -3.2040 nb        1 1A0     -0.861000
     16 C10         4.2870   -0.3710   -2.5520 ca        1 1A0      0.750300
     17 N11         4.4870   -0.4620   -1.2130 nb        1 1A0     -0.687000
     18 C2          3.3420   -0.4720   -0.4710 ca        1 1A0      0.480800
     19 S19         5.6540   -0.3590   -3.6190 ss        1 1A0     -0.172200
     20 C20         7.0370   -0.3670   -2.6430 ca        1 1A0     -0.187400
     21 C25         7.3930   -1.5040   -1.8470 ca        1 1A0      0.472200
     22 N24         8.5050   -1.6210   -1.1490 nb        1 1A0     -0.616000
     23 C23         9.4090   -0.5670   -1.1920 ca        1 1A0      0.556000
     24 N26        10.6030   -0.6730   -0.4680 nb        1 1A0     -0.593000
     25 C27        11.4280    0.3500   -0.5410 ca        1 1A0      0.328900
     26 C28        11.1480    1.5430   -1.3200 ca        1 1A0      0.299900
     27 N29        10.0360    1.6830   -2.0130 nb        1 1A0     -0.605000
     28 C22         9.1370    0.6290   -1.9660 ca        1 1A0      0.214300
     29 C21         7.9030    0.7040   -2.6810 ca        1 1A0     -0.038300
     30 H1          0.6060   -1.5050    2.6580 hc        1 1A0      0.082200
     31 H2          0.6690    0.3000    2.7830 hc        1 1A0      0.082200
     32 H3          3.0220    0.1600    3.6860 hc        1 1A0      0.049700
     33 H4          2.9620   -1.6520    3.5570 hc        1 1A0      0.049700
     34 H5          1.8450   -0.7830    4.6820 hc        1 1A0      0.049700
     35 H6          3.9360   -0.6250    1.5690 hn        1 1A0      0.333700
     36 H7         -0.5590   -1.4070   -4.3660 h1        1 1A0      0.100700
     37 H8          1.1580   -2.0060   -4.2450 h1        1 1A0      0.100700
     38 H9          0.2200   -0.5090   -6.4290 hx        1 1A0      0.112700
     39 H10         2.5090    0.4970   -6.5510 hn        1 1A0      0.466800
     40 H11         2.8480   -0.1740   -5.0280 hn        1 1A0      0.466800
     41 H13         1.1470    2.0170   -5.3300 hc        1 1A0      0.085200
     42 H14        -0.5710    1.4940   -5.5150 hc        1 1A0      0.085200
     43 H15         0.8880    1.8900   -3.0010 h1        1 1A0      0.092200
     44 H16        -0.8050    1.2590   -3.2220 h1        1 1A0      0.092200
     45 H17         6.6990   -2.3660   -1.7880 h4        1 1A0      0.041100
     46 H18        12.3740    0.2730    0.0280 h4        1 1A0      0.052100
     47 H19        11.8770    2.3720   -1.3470 h4        1 1A0      0.051100
     48 H20         7.6670    1.6150   -3.2580 ha        1 1A0      0.168000
     49 H183        2.4690   -1.1570   -6.3490 hn        1 1A0      0.466800
@<TRIPOS>BOND
     1    1    2 1   
     2    2    3 2   
     3    2    7 1   
     4    3    4 1   
     5    3    6 1   
     6    4    5 1   
     7    4   30 1   
     8    4   31 1   
     9    5   32 1   
    10    5   33 1   
    11    5   34 1   
    12    6   18 1   
    13    6   35 1   
    14    7    8 ar  
    15    7   18 ar  
    16    8    9 1   
    17    8   15 ar  
    18    9   10 1   
    19    9   14 1   
    20   10   11 1   
    21   10   36 1   
    22   10   37 1   
    23   11   12 1   
    24   11   13 1   
    25   11   38 1   
    26   12   39 1   
    27   12   40 1   
    28   12   49 1   
    29   13   14 1   
    30   13   41 1   
    31   13   42 1   
    32   14   43 1   
    33   14   44 1   
    34   15   16 ar  
    35   16   17 ar  
    36   16   19 1   
    37   17   18 ar  
    38   19   20 1   
    39   20   21 ar  
    40   20   29 ar  
    41   21   22 ar  
    42   21   45 1   
    43   22   23 ar  
    44   23   24 ar  
    45   23   28 ar  
    46   24   25 ar  
    47   25   26 ar  
    48   25   46 1   
    49   26   27 ar  
    50   26   47 1   
    51   27   28 ar  
    52   28   29 ar  
    53   29   48 1   
@<TRIPOS>SUBSTRUCTURE
     1 1A0         1 TEMP              0 ****  ****    0 ROOT
