@<TRIPOS>MOLECULE
1A0
   48    40     1     0     0
SMALL
bcc


@<TRIPOS>ATOM
      1 CL1        -4.1990   -0.7300    1.5490 cl        1 1A0      0.039000
      2 C4         -2.5000   -0.4970    1.8690 c2        1 1A0     -0.110000
      3 C5         -1.8500   -0.5320    3.0780 c1        1 1A0     -0.024000
      4 C6         -2.3130   -0.5370    4.5190 c2        1 1A0     -0.110000
      5 C7         -2.4760   -1.9650    4.9910 c3        1 1A0     -0.220000
      6 N1         -0.5140   -0.4430    2.8390 n2        1 1A0     -0.181000
      7 C3         -1.5470   -0.3850    0.8750 c1        1 1A0     -0.165000
      8 C8         -1.6480   -0.2930   -0.5020 c1        1 1A0      0.031000
      9 N13        -2.9170   -0.5650   -1.0770 n2        1 1A0     -0.183000
     10 C17        -2.7610   -1.6970   -2.2050 c3        1 1A0     -0.122000
     11 C16        -3.7880   -1.5270   -3.0550 c3        1 1A0     -0.048000
     12 N18        -3.3730   -1.8630   -4.4330 n3        1 1A0     -0.334000
     13 C15        -4.1450   -0.0310   -2.9540 c3        1 1A0     -0.181000
     14 C14        -3.3570    0.5090   -1.6950 c3        1 1A0     -0.079000
     15 N9         -0.5380   -0.1710   -1.2500 n1        1 1A0     -0.220500
     16 C10         0.6910   -0.1370   -0.6520 c1        1 1A0      0.031000
     17 N11         0.7940   -0.2270    0.7070 n1        1 1A0     -0.220500
     18 C2         -0.3280   -0.3510    1.4670 c1        1 1A0      0.077000
     19 S19         2.1740   -0.3060   -1.6130 s         1 1A0      0.437000
     20 C20         3.3860    0.8570   -1.0400 c1        1 1A0     -0.332000
     21 C25         3.1730    2.2150   -1.2620 c1        1 1A0     -0.064333
     22 N24         4.1600    3.1160   -0.9820 n1        1 1A0     -0.085000
     23 C23         5.3750    2.6810   -0.4750 c1        1 1A0      0.014000
     24 N26         6.3650    3.5820   -0.2070 n1        1 1A0     -0.085000
     25 C27         7.5470    3.1580    0.2720 c1        1 1A0     -0.064333
     26 C28         7.7630    1.8010    0.4950 c1        1 1A0     -0.064333
     27 N29         6.7880    0.9130    0.2310 n1        1 1A0     -0.085000
     28 C22         5.5870    1.3420   -0.2550 c1        1 1A0     -0.103000
     29 C21         4.5840    0.4250   -0.5400 c2        1 1A0     -0.003000
     30 H1         -3.1700   -0.0710    4.5880 ha        1 1A0      0.109000
     31 H2         -1.6490   -0.0840    5.0760 ha        1 1A0      0.109000
     32 H3         -1.6100   -2.4220    4.9560 hc        1 1A0      0.081333
     33 H4         -2.8100   -1.9680    5.9130 hc        1 1A0      0.081333
     34 H5         -3.1150   -2.4300    4.4110 hc        1 1A0      0.081333
     35 H6          0.1440   -0.4430    3.4710 DU        1 1A0      0.268000
     36 H7         -1.9100   -1.5860   -2.6780 h1        1 1A0      0.107500
     37 H8         -2.8050   -2.5870   -1.7970 h1        1 1A0      0.107500
     38 H9         -4.5490   -2.0780   -2.7840 h1        1 1A0      0.105000
     39 H10        -4.1090   -1.8790   -4.9780 hn        1 1A0      0.150000
     40 H11        -2.9700   -2.6850   -4.4390 hn        1 1A0      0.150000
     41 H13        -5.1080    0.0790   -2.8230 hc        1 1A0      0.100000
     42 H14        -3.8570    0.4410   -3.7610 hc        1 1A0      0.100000
     43 H15        -3.9580    1.0150   -1.1100 h1        1 1A0      0.101500
     44 H16        -2.6060    1.0700   -1.9800 h1        1 1A0      0.101500
     45 H17         2.3270    2.5200   -1.6420 ha        1 1A0      0.177667
     46 H18         8.2550    3.8030    0.4640 ha        1 1A0      0.177667
     47 H19         8.6210    1.4940    0.8430 ha        1 1A0      0.177667
     48 H20         4.7490   -0.5300   -0.4260 ha        1 1A0      0.169000
@<TRIPOS>BOND
     1    1    2 1   
     2    2    3 1   
     3    2    7 1   
     4    3    6 1   
     5    4    5 1   
     6    4   30 1   
     7    4   31 1   
     8    5   32 1   
     9    5   33 1   
    10    5   34 1   
    11    6   18 1   
    12    7   18 1   
    13    8   15 1   
    14    9   10 1   
    15    9   14 1   
    16   10   11 1   
    17   10   36 1   
    18   10   37 1   
    19   11   12 1   
    20   11   13 1   
    21   11   38 1   
    22   12   39 1   
    23   12   40 1   
    24   13   14 1   
    25   13   41 1   
    26   13   42 1   
    27   14   43 1   
    28   14   44 1   
    29   16   17 1   
    30   19   20 1   
    31   20   29 1   
    32   21   22 1   
    33   21   45 1   
    34   23   28 1   
    35   24   25 1   
    36   25   46 1   
    37   26   27 1   
    38   26   47 1   
    39   28   29 1   
    40   29   48 1   
@<TRIPOS>SUBSTRUCTURE
     1 1A0         1 TEMP              0 ****  ****    0 ROOT
