@<TRIPOS>MOLECULE
1A0
   48    52     1     0     0
SMALL
bcc


@<TRIPOS>ATOM
      1 CL1         4.4490    2.3780    0.0220 cl        1 1A0     -0.045400
      2 C4          2.7960    2.1660   -0.0360 cc        1 1A0     -0.012800
      3 C5          1.8400    3.1920    0.0420 cd        1 1A0     -0.056300
      4 C6          2.1020    4.6390    0.2160 c3        1 1A0     -0.027200
      5 C7          0.9460    5.5320   -0.1590 c3        1 1A0     -0.101100
      6 N1          0.5540    2.6380   -0.0490 na        1 1A0     -0.268100
      7 C3          2.0930    0.9200   -0.1900 ca        1 1A0     -0.307400
      8 C8          2.4250   -0.4590   -0.3410 ca        1 1A0      0.694200
      9 N13         3.8110   -0.8180   -0.3830 nh        1 1A0     -0.699300
     10 C17         4.1630   -2.0680   -1.0580 c3        1 1A0      0.157800
     11 C16         4.5340   -3.1430    0.0110 c3        1 1A0      0.151500
     12 N18         3.5740   -4.2180    0.0860 n3        1 1A0     -0.907800
     13 C15         4.7570   -2.3190    1.3050 c3        1 1A0     -0.145400
     14 C14         4.4390   -0.8610    0.9470 c3        1 1A0      0.164800
     15 N9          1.4330   -1.3770   -0.4790 nb        1 1A0     -0.756000
     16 C10         0.1290   -0.9380   -0.4970 ca        1 1A0      0.740300
     17 N11        -0.3220    0.3330   -0.3600 nb        1 1A0     -0.730000
     18 C2          0.6750    1.2560   -0.2060 ca        1 1A0      0.467800
     19 S19        -1.0030   -2.2310   -0.7390 ss        1 1A0     -0.104200
     20 C20        -2.5590   -1.5730   -0.6600 ca        1 1A0     -0.175400
     21 C25        -3.4510   -2.0000   -1.7040 ca        1 1A0      0.453200
     22 N24        -4.7290   -1.6950   -1.7880 nb        1 1A0     -0.622000
     23 C23        -5.2630   -0.8780   -0.7980 ca        1 1A0      0.534000
     24 N26        -6.6150   -0.5290   -0.8720 nb        1 1A0     -0.595000
     25 C27        -7.0750    0.2470    0.0900 ca        1 1A0      0.307900
     26 C28        -6.2520    0.7310    1.1780 ca        1 1A0      0.286900
     27 N29        -4.9720    0.4260    1.2820 nb        1 1A0     -0.608000
     28 C22        -4.4450   -0.3880    0.2940 ca        1 1A0      0.229300
     29 C21        -3.0660   -0.7710    0.3350 ca        1 1A0     -0.057300
     30 H1          2.3850    4.8200    1.2900 hc        1 1A0      0.069200
     31 H2          2.9990    4.9030   -0.4120 hc        1 1A0      0.069200
     32 H3          0.6010    5.3270   -1.2010 hc        1 1A0      0.042033
     33 H4          0.0840    5.3930    0.5380 hc        1 1A0      0.042033
     34 H5          1.2660    6.6010   -0.1010 hc        1 1A0      0.042033
     35 H6         -0.2900    3.1510   -0.0660 hn        1 1A0      0.316700
     36 H7          3.3720   -2.4250   -1.7680 h1        1 1A0      0.076200
     37 H8          5.0870   -1.8360   -1.6580 h1        1 1A0      0.076200
     38 H9          5.5140   -3.6170   -0.2880 h1        1 1A0      0.065700
     39 H10         3.7290   -4.7680    0.9070 hn        1 1A0      0.356800
     40 H11         2.6350   -3.8690    0.0930 hn        1 1A0      0.356800
     41 H13         4.1010   -2.6670    2.1390 hc        1 1A0      0.051700
     42 H14         5.8170   -2.4100    1.6440 hc        1 1A0      0.051700
     43 H15         5.3890   -0.2650    0.8640 h1        1 1A0      0.061700
     44 H16         3.7940   -0.3810    1.7290 h1        1 1A0      0.061700
     45 H17        -3.0560   -2.6430   -2.5180 h4        1 1A0      0.043100
     46 H18        -8.1430    0.5260    0.0400 h4        1 1A0      0.039100
     47 H19        -6.6870    1.3780    1.9590 h4        1 1A0      0.038100
     48 H20        -2.4370   -0.4100    1.1660 ha        1 1A0      0.171000
@<TRIPOS>BOND
     1    1    2 1   
     2    2    3 2   
     3    2    7 1   
     4    3    4 1   
     5    3    6 1   
     6    4    5 1   
     7    4   30 1   
     8    4   31 1   
     9    5   32 1   
    10    5   33 1   
    11    5   34 1   
    12    6   18 1   
    13    6   35 1   
    14    7    8 ar  
    15    7   18 ar  
    16    8    9 1   
    17    8   15 ar  
    18    9   10 1   
    19    9   14 1   
    20   10   11 1   
    21   10   36 1   
    22   10   37 1   
    23   11   12 1   
    24   11   13 1   
    25   11   38 1   
    26   12   39 1   
    27   12   40 1   
    28   13   14 1   
    29   13   41 1   
    30   13   42 1   
    31   14   43 1   
    32   14   44 1   
    33   15   16 ar  
    34   16   17 ar  
    35   16   19 1   
    36   17   18 ar  
    37   19   20 1   
    38   20   21 ar  
    39   20   29 ar  
    40   21   22 ar  
    41   21   45 1   
    42   22   23 ar  
    43   23   24 ar  
    44   23   28 ar  
    45   24   25 ar  
    46   25   26 ar  
    47   25   46 1   
    48   26   27 ar  
    49   26   47 1   
    50   27   28 ar  
    51   28   29 ar  
    52   29   48 1   
@<TRIPOS>SUBSTRUCTURE
     1 1A0         1 TEMP              0 ****  ****    0 ROOT
