@<TRIPOS>MOLECULE
1A0
   49    53     1     0     0
SMALL
bcc


@<TRIPOS>ATOM
      1 CL1        -0.4160   -0.3490    0.0820 cl        1 1A0     -0.018400
      2 C4          1.2460   -0.2740    0.0870 cc        1 1A0     -0.032800
      3 C5          2.0670   -0.2360    1.2270 cd        1 1A0     -0.010300
      4 C6          1.6170   -0.2520    2.6390 c3        1 1A0     -0.038200
      5 C7          2.7260   -0.2120    3.6580 c3        1 1A0     -0.107100
      6 N1          3.4150   -0.1780    0.8350 na        1 1A0     -0.258100
      7 C3          2.1020   -0.2410   -1.0670 ca        1 1A0     -0.270400
      8 C8          1.9560   -0.2610   -2.4690 ca        1 1A0      0.654200
      9 N13         0.6240   -0.3360   -3.0290 nh        1 1A0     -0.666300
     10 C17         0.5030   -1.2720   -4.1470 c3        1 1A0      0.137800
     11 C16         0.6800   -0.4600   -5.4710 c3        1 1A0      0.083500
     12 N18         2.1060   -0.4750   -5.9210 n4        1 1A0     -0.865600
     13 C15         0.2040    0.9540   -5.0800 c3        1 1A0     -0.125400
     14 C14         0.1500    0.9630   -3.5380 c3        1 1A0      0.142800
     15 N9          3.0560   -0.2220   -3.2730 nb        1 1A0     -0.860000
     16 C10         4.3000   -0.1650   -2.6890 ca        1 1A0      0.750300
     17 N11         4.5780   -0.1350   -1.3620 nb        1 1A0     -0.689000
     18 C2          3.4780   -0.1800   -0.5550 ca        1 1A0      0.481800
     19 S19         5.6000   -0.1040   -3.8360 ss        1 1A0     -0.170200
     20 C20         7.0390   -0.2770   -2.9630 ca        1 1A0     -0.193400
     21 C25         7.8320   -1.4430   -3.2240 ca        1 1A0      0.460200
     22 N24         9.0230   -1.6800   -2.7130 nb        1 1A0     -0.612000
     23 C23         9.5500   -0.7370   -1.8400 ca        1 1A0      0.555000
     24 N26        10.8130   -0.9690   -1.2820 nb        1 1A0     -0.592000
     25 C27        11.2700   -0.0470   -0.4600 ca        1 1A0      0.328900
     26 C28        10.5300    1.1560   -0.1250 ca        1 1A0      0.298900
     27 N29         9.3390    1.4100   -0.6270 nb        1 1A0     -0.606000
     28 C22         8.8190    0.4680   -1.5010 ca        1 1A0      0.214300
     29 C21         7.5350    0.6710   -2.0960 ca        1 1A0     -0.020300
     30 H1          0.9980   -1.1810    2.7900 hc        1 1A0      0.082200
     31 H2          0.9310    0.6290    2.7910 hc        1 1A0      0.082200
     32 H3          3.4020   -1.0960    3.5580 hc        1 1A0      0.049367
     33 H4          3.3330    0.7200    3.5620 hc        1 1A0      0.049367
     34 H5          2.2840   -0.2310    4.6860 hc        1 1A0      0.049367
     35 H6          4.1890   -0.1460    1.4530 hn        1 1A0      0.332700
     36 H7         -0.5530   -1.6650   -4.1300 h1        1 1A0      0.100700
     37 H8          1.2040   -2.1420   -4.0600 h1        1 1A0      0.100700
     38 H9          0.0540   -0.8940   -6.2990 hx        1 1A0      0.112700
     39 H10         2.7250   -0.2790   -5.0850 hn        1 1A0      0.466800
     40 H11         2.2610    0.2350   -6.6360 hn        1 1A0      0.466800
     41 H13         0.8700    1.7670   -5.4610 hc        1 1A0      0.085700
     42 H14        -0.8170    1.1260   -5.5050 hc        1 1A0      0.085700
     43 H15         0.7420    1.8190   -3.1180 h1        1 1A0      0.091700
     44 H16        -0.9150    1.0690   -3.1900 h1        1 1A0      0.091700
     45 H17         7.4420   -2.2220   -3.9100 h4        1 1A0      0.039100
     46 H18        12.2690   -0.2220   -0.0170 h4        1 1A0      0.053100
     47 H19        10.9620    1.8970    0.5720 h4        1 1A0      0.050100
     48 H20         6.9630    1.5820   -1.8470 ha        1 1A0      0.170000
     49 H183        2.3430   -1.3940   -6.2960 hn        1 1A0      0.466800
@<TRIPOS>BOND
     1    1    2 1   
     2    2    3 2   
     3    2    7 1   
     4    3    4 1   
     5    3    6 1   
     6    4    5 1   
     7    4   30 1   
     8    4   31 1   
     9    5   32 1   
    10    5   33 1   
    11    5   34 1   
    12    6   18 1   
    13    6   35 1   
    14    7    8 ar  
    15    7   18 ar  
    16    8    9 1   
    17    8   15 ar  
    18    9   10 1   
    19    9   14 1   
    20   10   11 1   
    21   10   36 1   
    22   10   37 1   
    23   11   12 1   
    24   11   13 1   
    25   11   38 1   
    26   12   39 1   
    27   12   40 1   
    28   12   49 1   
    29   13   14 1   
    30   13   41 1   
    31   13   42 1   
    32   14   43 1   
    33   14   44 1   
    34   15   16 ar  
    35   16   17 ar  
    36   16   19 1   
    37   17   18 ar  
    38   19   20 1   
    39   20   21 ar  
    40   20   29 ar  
    41   21   22 ar  
    42   21   45 1   
    43   22   23 ar  
    44   23   24 ar  
    45   23   28 ar  
    46   24   25 ar  
    47   25   26 ar  
    48   25   46 1   
    49   26   27 ar  
    50   26   47 1   
    51   27   28 ar  
    52   28   29 ar  
    53   29   48 1   
@<TRIPOS>SUBSTRUCTURE
     1 1A0         1 TEMP              0 ****  ****    0 ROOT
