@<TRIPOS>MOLECULE
1A1
   39    43     1     0     0
SMALL
bcc


@<TRIPOS>ATOM
      1 O9         -0.0660    0.8900    0.2720 o         1 1A1     -0.523100
      2 C8          1.0560    0.3900    0.1390 c         1 1A1      0.701100
      3 C10         1.9910    0.1830    1.2960 cx        1 1A1     -0.230700
      4 C12         1.3910   -0.0300    2.6610 cx        1 1A1     -0.105400
      5 C11         2.0550   -1.1710    1.9540 cx        1 1A1     -0.105400
      6 N7          1.5880   -0.0130   -1.0970 n         1 1A1     -0.546400
      7 C6          0.9210   -0.0080   -2.3370 ca        1 1A1      0.807900
      8 N1         -0.4550   -0.0280   -2.3700 nb        1 1A1     -0.670000
      9 N5          1.7630   -0.0220   -3.4530 nb        1 1A1     -0.785000
     10 C4          1.2020   -0.0470   -4.6840 ca        1 1A1      0.650800
     11 N22         2.0510   -0.0530   -5.8000 na        1 1A1     -0.270700
     12 C26         3.4260    0.2800   -5.7840 cc        1 1A1     -0.219600
     13 C25         3.8930    0.0700   -7.0830 cd        1 1A1      0.297200
     14 N24         2.8530   -0.4000   -7.9010 nd        1 1A1     -0.662000
     15 C23         1.7640   -0.4750   -7.1280 cc        1 1A1      0.444400
     16 C3         -0.2320   -0.0480   -4.8290 ca        1 1A1     -0.199200
     17 N13        -0.9860   -0.0460   -5.9940 nc        1 1A1     -0.500100
     18 C14        -2.2800   -0.0340   -5.6850 cd        1 1A1      0.391800
     19 S15        -2.6480   -0.0190   -3.9810 ss        1 1A1     -0.038500
     20 C2         -0.9970   -0.0340   -3.6020 ca        1 1A1      0.453600
     21 C16        -3.3680   -0.0230   -6.6440 ca        1 1A1     -0.239200
     22 C21        -3.1630    0.3810   -7.9850 ca        1 1A1      0.442200
     23 N20        -4.1450    0.4120   -8.9040 nb        1 1A1     -0.663000
     24 C19        -5.3780    0.0360   -8.5160 ca        1 1A1      0.412200
     25 C18        -5.6840   -0.3820   -7.2070 ca        1 1A1     -0.246300
     26 C17        -4.6620   -0.4120   -6.2610 ca        1 1A1     -0.079000
     27 H1          2.9170    0.7850    1.2080 hc        1 1A1      0.102700
     28 H2          1.8880    0.4350    3.5310 hc        1 1A1      0.084950
     29 H3          0.2880   -0.0200    2.7550 hc        1 1A1      0.084950
     30 H4          1.4320   -1.9920    1.5550 hc        1 1A1      0.084950
     31 H5          3.0360   -1.5340    2.3110 hc        1 1A1      0.084950
     32 H6          2.5620   -0.2280   -1.1250 hn        1 1A1      0.341500
     33 H7          3.9280    0.6300   -4.8830 h4        1 1A1      0.194000
     34 H8          4.8950    0.2260   -7.4810 h4        1 1A1      0.048100
     35 H9          0.7730   -0.8140   -7.4520 h5        1 1A1      0.090100
     36 H10        -2.1630    0.6970   -8.3380 h4        1 1A1      0.045100
     37 H11        -6.1600    0.0730   -9.2960 h4        1 1A1      0.028100
     38 H12        -6.7080   -0.6790   -6.9420 ha        1 1A1      0.150000
     39 H13        -4.8640   -0.7390   -5.2290 ha        1 1A1      0.144000
@<TRIPOS>BOND
     1    1    2 2   
     2    2    3 1   
     3    2    6 1   
     4    3    4 1   
     5    3    5 1   
     6    3   27 1   
     7    4    5 1   
     8    4   28 1   
     9    4   29 1   
    10    5   30 1   
    11    5   31 1   
    12    6    7 1   
    13    6   32 1   
    14    7    8 ar  
    15    7    9 ar  
    16    8   20 ar  
    17    9   10 ar  
    18   10   11 1   
    19   10   16 ar  
    20   11   12 1   
    21   11   15 1   
    22   12   13 2   
    23   12   33 1   
    24   13   14 1   
    25   13   34 1   
    26   14   15 2   
    27   15   35 1   
    28   16   17 1   
    29   16   20 ar  
    30   17   18 2   
    31   18   19 1   
    32   18   21 1   
    33   19   20 1   
    34   21   22 ar  
    35   21   26 ar  
    36   22   23 ar  
    37   22   36 1   
    38   23   24 ar  
    39   24   25 ar  
    40   24   37 1   
    41   25   26 ar  
    42   25   38 1   
    43   26   39 1   
@<TRIPOS>SUBSTRUCTURE
     1 1A1         1 TEMP              0 ****  ****    0 ROOT
