@<TRIPOS>MOLECULE
1A1
   39    43     1     0     0
SMALL
bcc


@<TRIPOS>ATOM
      1 O9         -0.0610    0.8730    0.2720 o         1 1A1     -0.524100
      2 C8          1.0630    0.3770    0.1370 c         1 1A1      0.701100
      3 C10         1.9980    0.1670    1.2920 cx        1 1A1     -0.230700
      4 C12         1.3990   -0.0130    2.6630 cx        1 1A1     -0.105400
      5 C11         2.0350   -1.1790    1.9700 cx        1 1A1     -0.105400
      6 N7          1.5940   -0.0190   -1.1010 ns        1 1A1     -0.546400
      7 C6          0.9260   -0.0120   -2.3410 ca        1 1A1      0.807900
      8 N1         -0.4500   -0.0380   -2.3710 nb        1 1A1     -0.670000
      9 N5          1.7660   -0.0190   -3.4570 nb        1 1A1     -0.785000
     10 C4          1.2040   -0.0420   -4.6880 ca        1 1A1      0.650800
     11 N22         2.0510   -0.0410   -5.8050 na        1 1A1     -0.270700
     12 C26         3.4250    0.2970   -5.7900 cc        1 1A1     -0.219600
     13 C25         3.8910    0.0950   -7.0900 cd        1 1A1      0.297200
     14 N24         2.8520   -0.3770   -7.9090 nd        1 1A1     -0.662000
     15 C23         1.7650   -0.4590   -7.1340 cc        1 1A1      0.444400
     16 C3         -0.2300   -0.0480   -4.8310 ca        1 1A1     -0.199200
     17 N13        -0.9860   -0.0450   -5.9950 nc        1 1A1     -0.500100
     18 C14        -2.2800   -0.0380   -5.6840 cd        1 1A1      0.391800
     19 S15        -2.6460   -0.0310   -3.9800 ss        1 1A1     -0.038500
     20 C2         -0.9940   -0.0410   -3.6030 ca        1 1A1      0.453600
     21 C16        -3.3690   -0.0280   -6.6420 ca        1 1A1     -0.239200
     22 C21        -3.1680    0.3850   -7.9810 ca        1 1A1      0.442200
     23 N20        -4.1510    0.4150   -8.8990 nb        1 1A1     -0.663000
     24 C19        -5.3820    0.0300   -8.5100 ca        1 1A1      0.412200
     25 C18        -5.6840   -0.3970   -7.2030 ca        1 1A1     -0.246300
     26 C17        -4.6600   -0.4260   -6.2590 ca        1 1A1     -0.079000
     27 H1          2.9370    0.7470    1.1930 hc        1 1A1      0.102700
     28 H2          1.9100    0.4520    3.5240 hc        1 1A1      0.084950
     29 H3          0.2970    0.0220    2.7610 hc        1 1A1      0.084950
     30 H4          3.0090   -1.5590    2.3280 hc        1 1A1      0.084950
     31 H5          1.3920   -1.9910    1.5840 hc        1 1A1      0.084950
     32 H6          2.5690   -0.2320   -1.1320 hn        1 1A1      0.340500
     33 H7          3.9270    0.6460   -4.8880 h4        1 1A1      0.194000
     34 H8          4.8920    0.2550   -7.4890 h4        1 1A1      0.048100
     35 H9          0.7750   -0.8000   -7.4590 h5        1 1A1      0.090100
     36 H10        -2.1700    0.7070   -8.3330 h4        1 1A1      0.045100
     37 H11        -6.1650    0.0670   -9.2900 h4        1 1A1      0.028100
     38 H12        -6.7060   -0.7010   -6.9390 ha        1 1A1      0.150000
     39 H13        -4.8590   -0.7600   -5.2290 ha        1 1A1      0.144000
@<TRIPOS>BOND
     1    1    2 2   
     2    2    3 1   
     3    2    6 1   
     4    3    4 1   
     5    3    5 1   
     6    3   27 1   
     7    4    5 1   
     8    4   28 1   
     9    4   29 1   
    10    5   30 1   
    11    5   31 1   
    12    6    7 1   
    13    6   32 1   
    14    7    8 ar  
    15    7    9 ar  
    16    8   20 ar  
    17    9   10 ar  
    18   10   11 1   
    19   10   16 ar  
    20   11   12 1   
    21   11   15 1   
    22   12   13 2   
    23   12   33 1   
    24   13   14 1   
    25   13   34 1   
    26   14   15 2   
    27   15   35 1   
    28   16   17 1   
    29   16   20 ar  
    30   17   18 2   
    31   18   19 1   
    32   18   21 1   
    33   19   20 1   
    34   21   22 ar  
    35   21   26 ar  
    36   22   23 ar  
    37   22   36 1   
    38   23   24 ar  
    39   24   25 ar  
    40   24   37 1   
    41   25   26 ar  
    42   25   38 1   
    43   26   39 1   
@<TRIPOS>SUBSTRUCTURE
     1 1A1         1 TEMP              0 ****  ****    0 ROOT
