@<TRIPOS>MOLECULE
1A1
   39    43     1     0     0
SMALL
bcc


@<TRIPOS>ATOM
      1 O9          3.8880   -2.1310    1.2750 o         1 1A1     -0.520100
      2 C8          4.3910   -1.1490    0.7200 c         1 1A1      0.701100
      3 C10         5.8750   -0.9920    0.5710 cx        1 1A1     -0.222700
      4 C12         6.6260   -1.9690   -0.2940 cx        1 1A1     -0.111900
      5 C11         6.4940   -0.5400   -0.7250 cx        1 1A1     -0.111900
      6 N7          3.6460   -0.0700    0.2200 n         1 1A1     -0.548400
      7 C6          2.2420    0.0300    0.1720 ca        1 1A1      0.807900
      8 N1          1.4790   -1.1150    0.2020 nb        1 1A1     -0.670000
      9 N5          1.7510    1.3330    0.0570 nb        1 1A1     -0.785000
     10 C4          0.4120    1.5140   -0.0250 ca        1 1A1      0.650800
     11 N22        -0.0750    2.8240   -0.1330 na        1 1A1     -0.270700
     12 C26         0.6630    3.9980    0.1490 cc        1 1A1     -0.219600
     13 C25        -0.1760    5.0690   -0.1590 cd        1 1A1      0.297200
     14 N24        -1.4080    4.5970   -0.6410 nd        1 1A1     -0.662000
     15 C23        -1.3350    3.2610   -0.6260 cc        1 1A1      0.444400
     16 C3         -0.4770    0.3810    0.0190 ca        1 1A1     -0.200200
     17 N13        -1.8640    0.3640   -0.0240 nc        1 1A1     -0.500100
     18 C14        -2.2960   -0.8910    0.0570 cd        1 1A1      0.391800
     19 S15        -1.0550   -2.1080    0.1920 ss        1 1A1     -0.037500
     20 C2          0.1490   -0.9170    0.1390 ca        1 1A1      0.453600
     21 C16        -3.6880   -1.2980    0.0480 ca        1 1A1     -0.239200
     22 C21        -4.7240   -0.3860    0.3640 ca        1 1A1      0.442200
     23 N20        -6.0260   -0.7230    0.3730 nb        1 1A1     -0.663000
     24 C19        -6.3460   -1.9950    0.0660 ca        1 1A1      0.412200
     25 C18        -5.3910   -2.9760   -0.2620 ca        1 1A1     -0.246300
     26 C17        -4.0450   -2.6190   -0.2710 ca        1 1A1     -0.079000
     27 H1          6.3300   -0.6660    1.5290 hc        1 1A1      0.112700
     28 H2          7.6030   -2.3410    0.0640 hc        1 1A1      0.082950
     29 H3          6.0580   -2.7510   -0.8300 hc        1 1A1      0.082950
     30 H4          5.8430   -0.2990   -1.5850 hc        1 1A1      0.082950
     31 H5          7.3780    0.1220   -0.6820 hc        1 1A1      0.082950
     32 H6          4.1530    0.7560   -0.0260 hn        1 1A1      0.341500
     33 H7          1.6800    3.9650    0.5370 h4        1 1A1      0.194000
     34 H8          0.0180    6.1370   -0.0670 h4        1 1A1      0.048100
     35 H9         -2.1280    2.5760   -0.9480 h5        1 1A1      0.090100
     36 H10        -4.4960    0.6660    0.6220 h4        1 1A1      0.045100
     37 H11        -7.4240   -2.2370    0.0840 h4        1 1A1      0.028100
     38 H12        -5.7050   -3.9990   -0.5060 ha        1 1A1      0.150000
     39 H13        -3.2710   -3.3600   -0.5280 ha        1 1A1      0.144000
@<TRIPOS>BOND
     1    1    2 2   
     2    2    3 1   
     3    2    6 1   
     4    3    4 1   
     5    3    5 1   
     6    3   27 1   
     7    4    5 1   
     8    4   28 1   
     9    4   29 1   
    10    5   30 1   
    11    5   31 1   
    12    6    7 1   
    13    6   32 1   
    14    7    8 ar  
    15    7    9 ar  
    16    8   20 ar  
    17    9   10 ar  
    18   10   11 1   
    19   10   16 ar  
    20   11   12 1   
    21   11   15 1   
    22   12   13 2   
    23   12   33 1   
    24   13   14 1   
    25   13   34 1   
    26   14   15 2   
    27   15   35 1   
    28   16   17 1   
    29   16   20 ar  
    30   17   18 2   
    31   18   19 1   
    32   18   21 1   
    33   19   20 1   
    34   21   22 ar  
    35   21   26 ar  
    36   22   23 ar  
    37   22   36 1   
    38   23   24 ar  
    39   24   25 ar  
    40   24   37 1   
    41   25   26 ar  
    42   25   38 1   
    43   26   39 1   
@<TRIPOS>SUBSTRUCTURE
     1 1A1         1 TEMP              0 ****  ****    0 ROOT
