@<TRIPOS>MOLECULE
1A1
   40    44     1     0     0
SMALL
bcc


@<TRIPOS>ATOM
      1 O9          3.5630   -0.3270   -0.3070 o         1 1A1     -0.408100
      2 C8          2.3610   -0.5340   -0.3330 c         1 1A1      0.608100
      3 C10         1.2600    0.1700    0.3360 cx        1 1A1     -0.276700
      4 C12         1.5210    0.7220    1.7300 cx        1 1A1     -0.066400
      5 C11         1.4270    1.6630    0.5800 cx        1 1A1     -0.066400
      6 N7          1.9570   -1.7460   -1.1760 n4        1 1A1     -0.660500
      7 C6          1.1730   -1.3190   -2.3750 ca        1 1A1      0.737900
      8 N1         -0.0850   -1.8170   -2.4790 nb        1 1A1     -0.648000
      9 N5          1.8440   -0.4660   -3.2220 nb        1 1A1     -0.751000
     10 C4          1.1850   -0.0530   -4.3460 ca        1 1A1      0.668800
     11 N22         1.8380    0.7990   -5.2180 na        1 1A1     -0.284700
     12 C26         3.1940    1.2270   -5.0940 cc        1 1A1     -0.229600
     13 C25         3.4330    2.0840   -6.1620 cd        1 1A1      0.340200
     14 N24         2.2700    2.2150   -6.9520 nd        1 1A1     -0.627000
     15 C23         1.3340    1.4570   -6.3920 cc        1 1A1      0.462400
     16 C3         -0.1670   -0.5260   -4.5820 ca        1 1A1     -0.118200
     17 N13        -0.9940   -0.2390   -5.6500 nc        1 1A1     -0.521100
     18 C14        -2.1610   -0.8770   -5.5030 cd        1 1A1      0.447800
     19 S15        -2.3020   -1.8470   -4.0680 ss        1 1A1      0.063500
     20 C2         -0.7450   -1.4150   -3.5950 ca        1 1A1      0.375600
     21 C16        -3.2660   -0.8130   -6.4340 ca        1 1A1     -0.286200
     22 C21        -3.1420   -0.1640   -7.6860 ca        1 1A1      0.468200
     23 N20        -4.1460   -0.0880   -8.5770 nb        1 1A1     -0.653000
     24 C19        -5.3210   -0.6590   -8.2530 ca        1 1A1      0.445200
     25 C18        -5.5450   -1.3300   -7.0320 ca        1 1A1     -0.240300
     26 C17        -4.5040   -1.4050   -6.1140 ca        1 1A1     -0.068000
     27 H1          0.2430   -0.2070    0.1040 hc        1 1A1      0.125700
     28 H2          2.5090    0.5400    2.1960 hc        1 1A1      0.108950
     29 H3          0.6940    0.6590    2.4630 hc        1 1A1      0.108950
     30 H4          2.3480    2.1580    0.2130 hc        1 1A1      0.108950
     31 H5          0.5310    2.3000    0.4570 hc        1 1A1      0.108950
     32 H6          2.8050   -2.2340   -1.5030 hn        1 1A1      0.478300
     33 H7          3.8410    0.8860   -4.2870 h4        1 1A1      0.200000
     34 H8          4.3490    2.6160   -6.4260 h4        1 1A1      0.069100
     35 H9          0.3060    1.3360   -6.7600 h5        1 1A1      0.102100
     36 H10        -2.1930    0.3170   -7.9930 h4        1 1A1      0.046100
     37 H11        -6.1230   -0.5760   -9.0110 h4        1 1A1      0.046100
     38 H12        -6.5250   -1.7790   -6.8170 ha        1 1A1      0.165000
     39 H13        -4.6480   -1.9180   -5.1500 ha        1 1A1      0.140000
     40 H72         1.3910   -2.3880   -0.6080 hn        1 1A1      0.478300
@<TRIPOS>BOND
     1    1    2 2   
     2    2    3 1   
     3    2    6 1   
     4    3    4 1   
     5    3    5 1   
     6    3   27 1   
     7    4    5 1   
     8    4   28 1   
     9    4   29 1   
    10    5   30 1   
    11    5   31 1   
    12    6    7 1   
    13    6   32 1   
    14    6   40 1   
    15    7    8 ar  
    16    7    9 ar  
    17    8   20 ar  
    18    9   10 ar  
    19   10   11 1   
    20   10   16 ar  
    21   11   12 1   
    22   11   15 1   
    23   12   13 2   
    24   12   33 1   
    25   13   14 1   
    26   13   34 1   
    27   14   15 2   
    28   15   35 1   
    29   16   17 1   
    30   16   20 ar  
    31   17   18 2   
    32   18   19 1   
    33   18   21 1   
    34   19   20 1   
    35   21   22 ar  
    36   21   26 ar  
    37   22   23 ar  
    38   22   36 1   
    39   23   24 ar  
    40   24   25 ar  
    41   24   37 1   
    42   25   26 ar  
    43   25   38 1   
    44   26   39 1   
@<TRIPOS>SUBSTRUCTURE
     1 1A1         1 TEMP              0 ****  ****    0 ROOT
