@<TRIPOS>MOLECULE
1A2
   52    48     1     0     0
SMALL
bcc


@<TRIPOS>ATOM
      1 C8         -1.9400    0.0800   -2.5260 c3        1 1A2     -0.041000
      2 C5          1.9770    0.0560   -2.4470 c1        1 1A2      0.152000
      3 N6          1.2980    0.0720   -1.2080 n1        1 1A2     -0.287000
      4 C2          0.0100   -1.4880   -5.9610 c1        1 1A2     -0.140000
      5 C4          1.9680   -0.5430   -4.9120 c1        1 1A2      0.088000
      6 C1         -0.6840   -1.3890   -4.7580 c1        1 1A2      0.088000
      7 C3          1.3360   -1.0650   -6.0390 c1        1 1A2     -0.140000
      8 C4A         1.2670   -0.4410   -3.6940 c1        1 1A2     -0.165000
      9 C7         -0.0680   -0.3590   -1.1360 c2        1 1A2      0.135000
     10 N8         -0.7710   -0.7580   -2.3480 n3        1 1A2     -0.260000
     11 C8A        -0.0440   -0.8600   -3.6160 c1        1 1A2      0.075000
     12 F9          3.2410   -0.1240   -4.9910 f         1 1A2     -0.100500
     13 F10        -1.9350   -1.8610   -4.6660 f         1 1A2     -0.100500
     14 C11        -0.2500   -1.6560   -0.4240 c3        1 1A2     -0.172000
     15 C12         0.6160   -1.7520    0.8280 c3        1 1A2     -0.033000
     16 N13         0.4560   -0.5880    1.7040 n         1 1A2     -0.304000
     17 C14         0.6320    0.6970    1.0240 c3        1 1A2     -0.033000
     18 C15        -0.2340    0.8110   -0.2270 c3        1 1A2     -0.172000
     19 C16         0.1520   -0.6980    3.1140 c2        1 1A2      0.334000
     20 O17         0.0180   -1.7980    3.6240 o         1 1A2     -0.356000
     21 N18         3.3050    0.5880   -2.5430 n3        1 1A2     -0.333000
     22 C19         0.1290    0.5590    3.9930 c2        1 1A2     -0.146000
     23 C20         1.4340    1.1520    4.5070 c1        1 1A2     -0.078000
     24 N21         1.3930    2.0030    5.7210 n1        1 1A2     -0.052000
     25 C22         0.1400    2.0830    6.4800 c1        1 1A2     -0.015500
     26 C23        -0.9780    1.1690    6.1020 c2        1 1A2     -0.164000
     27 C24        -1.1150    0.9850    4.6200 c3        1 1A2     -0.127000
     28 C25        -0.1230    3.2710    7.3890 c1        1 1A2     -0.015500
     29 N26        -0.3210    4.1650    8.0720 n1        1 1A2     -0.052000
     30 C13        -3.2080   -0.7870   -2.4510 c3        1 1A2     -0.219000
     31 H81        -1.9670    0.7590   -1.8190 h1        1 1A2      0.086500
     32 H82        -1.8970    0.5210   -3.4040 h1        1 1A2      0.086500
     33 H2         -0.4350   -1.8570   -6.7550 ha        1 1A2      0.159000
     34 H3          1.8250   -1.1360   -6.8870 ha        1 1A2      0.159000
     35 H111       -1.1950   -1.7490   -0.1660 hc        1 1A2      0.100500
     36 H112       -0.0110   -2.3910   -1.0330 hc        1 1A2      0.100500
     37 H121        1.5590   -1.8210    0.5590 h1        1 1A2      0.108500
     38 H122        0.3670   -2.5620    1.3270 h1        1 1A2      0.108500
     39 H141        0.3930    1.4210    1.6430 h1        1 1A2      0.108500
     40 H142        1.5770    0.7950    0.7680 h1        1 1A2      0.108500
     41 H151        0.0150    1.6300   -0.7140 hc        1 1A2      0.100500
     42 H152       -1.1770    0.8740    0.0430 hc        1 1A2      0.100500
     43 H181        4.0190    0.0220   -2.6500 hn        1 1A2      0.210500
     44 H182        3.4420    1.4940   -2.4730 hn        1 1A2      0.210500
     45 H20         2.2320    1.1450    3.9400 ha        1 1A2      0.177000
     46 H231       -0.9030    0.3630    6.6620 ha        1 1A2      0.116500
     47 H232       -1.8460    1.5140    6.4080 ha        1 1A2      0.116500
     48 H241       -1.9650    0.5230    4.4480 hc        1 1A2      0.114500
     49 H242       -1.3000    1.8440    4.1790 hc        1 1A2      0.114500
     50 H131       -3.7880   -0.5880   -3.2220 hc        1 1A2      0.083000
     51 H132       -3.6920   -0.5900   -1.6180 hc        1 1A2      0.083000
     52 H133       -2.9570   -1.7370   -2.4670 hc        1 1A2      0.083000
@<TRIPOS>BOND
     1    1   10 1   
     2    1   30 1   
     3    1   31 1   
     4    1   32 1   
     5    2    3 1   
     6    2   21 1   
     7    4    6 1   
     8    4   33 1   
     9    5    7 1   
    10    5   12 1   
    11    6   13 1   
    12    7   34 1   
    13    8   11 1   
    14    9   10 1   
    15    9   14 1   
    16    9   18 1   
    17   10   11 1   
    18   14   15 1   
    19   14   35 1   
    20   14   36 1   
    21   15   16 1   
    22   15   37 1   
    23   15   38 1   
    24   16   17 1   
    25   16   19 1   
    26   17   18 1   
    27   17   39 1   
    28   17   40 1   
    29   18   41 1   
    30   18   42 1   
    31   19   20 1   
    32   19   22 1   
    33   21   43 1   
    34   21   44 1   
    35   22   23 1   
    36   22   27 1   
    37   23   45 1   
    38   24   25 1   
    39   25   28 1   
    40   26   27 1   
    41   26   46 1   
    42   26   47 1   
    43   27   48 1   
    44   27   49 1   
    45   28   29 1   
    46   30   50 1   
    47   30   51 1   
    48   30   52 1   
@<TRIPOS>SUBSTRUCTURE
     1 1A2         1 TEMP              0 ****  ****    0 ROOT
