@<TRIPOS>MOLECULE
1A2
   52    55     1     0     0
SMALL
bcc


@<TRIPOS>ATOM
      1 C8         -2.6720    2.2110    1.5690 c3        1 1A2      0.177800
      2 C5         -2.7210    0.1790   -1.5440 ce        1 1A2      0.671800
      3 N6         -1.6740    0.9580   -1.3960 n2        1 1A2     -0.693900
      4 C2         -4.3730   -1.8750    1.8640 ca        1 1A2     -0.115000
      5 C4         -4.0360   -1.7870   -0.5280 ca        1 1A2      0.153900
      6 C1         -3.5780   -0.7280    2.0250 ca        1 1A2      0.098900
      7 C3         -4.5860   -2.4130    0.6060 ca        1 1A2     -0.165000
      8 C4A        -3.2790   -0.6080   -0.3990 ca        1 1A2     -0.239900
      9 C7         -1.0860    1.0790   -0.0560 c3        1 1A2      0.402400
     10 N8         -2.0790    0.9830    1.0660 nh        1 1A2     -0.636000
     11 C8A        -2.9930   -0.0900    0.8930 ca        1 1A2      0.137600
     12 F10        -3.3740   -0.2550    3.2790 f         1 1A2     -0.127900
     13 C11        -0.2880    2.4170    0.0150 c3        1 1A2     -0.092400
     14 C12         0.8710    2.4360   -0.9810 c3        1 1A2      0.082000
     15 N13         1.7830    1.3140   -0.8540 n         1 1A2     -0.443800
     16 C14         1.1260    0.0270   -0.8160 c3        1 1A2      0.082000
     17 C15        -0.0290   -0.0570    0.1810 c3        1 1A2     -0.092400
     18 C16         3.0360    1.5200   -0.2810 c         1 1A2      0.657300
     19 O17         3.4300    2.6680    0.0120 o         1 1A2     -0.593100
     20 N18        -3.4320    0.1700   -2.7490 nh        1 1A2     -0.894800
     21 C19         3.9560    0.3600   -0.1010 ce        1 1A2     -0.166400
     22 C20         4.3120   -0.4560   -1.1210 cf        1 1A2      0.060600
     23 N21         5.2560   -1.4850   -1.0080 nf        1 1A2     -0.529300
     24 C22         5.7620   -1.7200    0.1710 ce        1 1A2      0.467200
     25 C23         5.4070   -1.0080    1.4490 c3        1 1A2     -0.159700
     26 C24         4.5720    0.2450    1.2470 c3        1 1A2     -0.044200
     27 C25         6.7360   -2.7630    0.3390 cg        1 1A2      0.191600
     28 N26         7.5260   -3.6010    0.4940 n1        1 1A2     -0.328800
     29 C13        -3.6250    2.9640    0.6560 c3        1 1A2     -0.131100
     30 H81        -1.8280    2.8940    1.8710 h1        1 1A2      0.063200
     31 H82        -3.2260    1.9360    2.5150 h1        1 1A2      0.063200
     32 H2         -4.8110   -2.3510    2.7550 ha        1 1A2      0.159000
     33 H3         -5.1830   -3.3290    0.4800 ha        1 1A2      0.160000
     34 H111       -0.9550    3.2860   -0.2190 hc        1 1A2      0.060700
     35 H112        0.1110    2.5400    1.0550 hc        1 1A2      0.060700
     36 H121        0.4670    2.4140   -2.0340 h1        1 1A2      0.068950
     37 H122        1.4420    3.3990   -0.8440 h1        1 1A2      0.068950
     38 H141        0.7380   -0.1780   -1.8560 h1        1 1A2      0.068950
     39 H142        1.8690   -0.7810   -0.5620 h1        1 1A2      0.068950
     40 H151        0.3610    0.0330    1.2280 hc        1 1A2      0.060700
     41 H152       -0.5130   -1.0620    0.0760 hc        1 1A2      0.060700
     42 H181       -3.9050   -0.6790   -2.9610 hn        1 1A2      0.415300
     43 H182       -2.9780    0.5940   -3.5280 hn        1 1A2      0.415300
     44 H20         3.8950   -0.3670   -2.1420 h4        1 1A2      0.177000
     45 H231        4.8490   -1.7390    2.0980 hc        1 1A2      0.074700
     46 H232        6.3530   -0.7420    1.9930 hc        1 1A2      0.074700
     47 H241        5.2070    1.1630    1.4060 hc        1 1A2      0.076200
     48 H242        3.7640    0.2790    2.0280 hc        1 1A2      0.076200
     49 H131       -3.9900    3.8750    1.1890 hc        1 1A2      0.046367
     50 H132       -3.1220    3.2830   -0.2880 hc        1 1A2      0.046367
     51 H133       -4.5060    2.3330    0.3880 hc        1 1A2      0.046367
     52 F9         -4.2500   -2.3610   -1.7380 f         1 1A2     -0.140900
@<TRIPOS>BOND
     1    1   10 1   
     2    1   29 1   
     3    1   30 1   
     4    1   31 1   
     5    2    3 2   
     6    2    8 1   
     7    2   20 1   
     8    3    9 1   
     9    4    6 ar  
    10    4    7 ar  
    11    4   32 1   
    12    5    7 ar  
    13    5    8 ar  
    14    5   52 1   
    15    6   11 ar  
    16    6   12 1   
    17    7   33 1   
    18    8   11 ar  
    19    9   10 1   
    20    9   13 1   
    21    9   17 1   
    22   10   11 1   
    23   13   14 1   
    24   13   34 1   
    25   13   35 1   
    26   14   15 1   
    27   14   36 1   
    28   14   37 1   
    29   15   16 1   
    30   15   18 1   
    31   16   17 1   
    32   16   38 1   
    33   16   39 1   
    34   17   40 1   
    35   17   41 1   
    36   18   19 2   
    37   18   21 1   
    38   20   42 1   
    39   20   43 1   
    40   21   22 2   
    41   21   26 1   
    42   22   23 1   
    43   22   44 1   
    44   23   24 2   
    45   24   25 1   
    46   24   27 1   
    47   25   26 1   
    48   25   45 1   
    49   25   46 1   
    50   26   47 1   
    51   26   48 1   
    52   27   28 3   
    53   29   49 1   
    54   29   50 1   
    55   29   51 1   
@<TRIPOS>SUBSTRUCTURE
     1 1A2         1 TEMP              0 ****  ****    0 ROOT
