@<TRIPOS>MOLECULE
1A2
   53    53     1     0     0
SMALL
bcc


@<TRIPOS>ATOM
      1 C8          1.1170    0.0770    1.8580 c3        1 1A2     -0.004700
      2 C5          2.5640   -1.1300   -1.9610 ca        1 1A2      0.797200
      3 N6          3.2840   -1.3390   -0.8060 nb        1 1A2     -0.792000
      4 C2         -0.9460    1.3440   -1.7800 ca        1 1A2     -0.063000
      5 C4          0.5990    0.0420   -3.0900 ca        1 1A2      0.181900
      6 C1         -0.2400    1.0330   -0.6110 ca        1 1A2      0.092900
      7 C3         -0.5390    0.8510   -3.0110 ca        1 1A2     -0.143000
      8 C4A         1.3430   -0.3070   -1.9290 ca        1 1A2     -0.252300
      9 C7          2.8160   -0.8870    0.3700 ca        1 1A2      0.676800
     10 N8          1.6210   -0.1940    0.5090 na        1 1A2     -0.208900
     11 C8A         0.9100    0.1750   -0.6480 ca        1 1A2      0.067700
     12 C11         5.0750    2.5650    2.7720 c2        1 1A2     -0.226000
     13 C12         5.1300    1.4300    3.4560 c2        1 1A2     -0.226000
     14 N13        -0.7500   -3.8840    3.4130 ne        1 1A2     -0.674100
     15 C14        -1.3450   -3.7010    4.5210 c2        1 1A2      0.531100
     16 C15         3.6530   -1.1970    1.5890 c3        1 1A2     -0.192400
     17 C16         0.6400   -3.9730    3.1960 c         1 1A2      0.735700
     18 O17         1.3360   -2.9430    3.0900 o         1 1A2     -0.621100
     19 N18         3.0360   -1.7070   -3.0840 nh        1 1A2     -0.882500
     20 C19         1.2150   -5.3180    2.9560 ce        1 1A2     -0.229400
     21 C20         0.5220   -6.3220    2.3610 cf        1 1A2      0.122600
     22 N21         1.0710   -7.5730    2.0550 nf        1 1A2     -0.544300
     23 C22         2.2610   -7.8450    2.5150 ce        1 1A2      0.502200
     24 C23         3.0900   -6.9400    3.3890 c3        1 1A2     -0.168700
     25 C24         2.6440   -5.4880    3.3380 c3        1 1A2     -0.032200
     26 C25         2.8760   -9.1100    2.2260 cg        1 1A2      0.173600
     27 N26         3.3880  -10.1280    1.9990 n1        1 1A2     -0.290800
     28 C13         1.5510    1.4070    2.4480 c3        1 1A2     -0.126100
     29 H81        -0.0100    0.0150    1.8300 h1        1 1A2      0.103700
     30 H82         1.4560   -0.7670    2.5330 h1        1 1A2      0.103700
     31 H2         -1.8330    2.0000   -1.7080 ha        1 1A2      0.191000
     32 H3         -1.1000    1.0970   -3.9290 ha        1 1A2      0.192000
     33 H111        5.7900    2.8140    1.9760 ha        1 1A2      0.114500
     34 H112        4.3220    3.3410    2.9690 ha        1 1A2      0.114500
     35 H121        4.4310    1.1920    4.2700 ha        1 1A2      0.114500
     36 H122        5.8990    0.6660    3.2770 ha        1 1A2      0.114500
     37 H141        3.7850   -0.2820    2.2220 hc        1 1A2      0.107367
     38 H142       -0.8690   -3.5920    5.5160 h4        1 1A2      0.005800
     39 H151        4.6660   -1.5670    1.2860 hc        1 1A2      0.107367
     40 H152        3.1460   -2.0020    2.1880 hc        1 1A2      0.107367
     41 H181       -2.4530   -3.6550    4.5060 h4        1 1A2      0.005800
     42 H182        2.5760   -1.5840   -3.9600 hn        1 1A2      0.481300
     43 H20        -0.5340   -6.2340    2.0380 h4        1 1A2      0.185000
     44 H231        3.0150   -7.3300    4.4420 hc        1 1A2      0.085200
     45 H232        4.1690   -7.0100    3.0870 hc        1 1A2      0.085200
     46 H241        2.8260   -5.0150    4.3410 hc        1 1A2      0.065700
     47 H242        3.2710   -4.9180    2.5970 hc        1 1A2      0.065700
     48 H131        2.6630    1.4810    2.5460 hc        1 1A2      0.065367
     49 H132        1.1910    2.2670    1.8330 hc        1 1A2      0.065367
     50 H133        1.0990    1.4900    3.4680 hc        1 1A2      0.065367
     51 F9          0.9700   -0.3930   -4.3170 f         1 1A2     -0.117900
     52 H183        3.8730   -2.2520   -3.0640 hn        1 1A2      0.481300
     53 F10        -0.6810    1.5890    0.5400 f         1 1A2     -0.109900
@<TRIPOS>BOND
     1    1   10 1   
     2    1   28 1   
     3    1   29 1   
     4    1   30 1   
     5    2    3 ar  
     6    2    8 ar  
     7    2   19 1   
     8    3    9 ar  
     9    4    6 ar  
    10    4    7 ar  
    11    4   31 1   
    12    5    7 ar  
    13    5    8 ar  
    14    5   51 1   
    15    6   11 ar  
    16    6   53 1   
    17    7   32 1   
    18    8   11 ar  
    19    9   10 1   
    20    9   16 1   
    21   10   11 2   
    22   12   13 2   
    23   12   33 1   
    24   12   34 1   
    25   13   35 1   
    26   13   36 1   
    27   14   15 2   
    28   14   17 1   
    29   15   38 1   
    30   15   41 1   
    31   16   37 1   
    32   16   39 1   
    33   16   40 1   
    34   17   18 2   
    35   17   20 1   
    36   19   42 1   
    37   19   52 1   
    38   20   21 2   
    39   20   25 1   
    40   21   22 1   
    41   21   43 1   
    42   22   23 2   
    43   23   24 1   
    44   23   26 1   
    45   24   25 1   
    46   24   44 1   
    47   24   45 1   
    48   25   46 1   
    49   25   47 1   
    50   26   27 3   
    51   28   48 1   
    52   28   49 1   
    53   28   50 1   
@<TRIPOS>SUBSTRUCTURE
     1 1A2         1 TEMP              0 ****  ****    0 ROOT
