@<TRIPOS>MOLECULE
1A2
   53    56     1     0     0
SMALL
bcc


@<TRIPOS>ATOM
      1 C8         -0.0290    0.8900    0.0700 c3        1 1A2      0.172800
      2 C5          3.6930    0.2500   -0.0080 ce        1 1A2      0.547800
      3 N6          3.1150   -0.0260    1.1160 n2        1 1A2     -0.554900
      4 C2          1.7480   -0.3570   -3.7740 ca        1 1A2     -0.083000
      5 C4          3.8050   -0.0200   -2.5580 ca        1 1A2      0.138900
      6 C1          1.0160   -0.3210   -2.5750 ca        1 1A2      0.123900
      7 C3          3.1300   -0.2170   -3.7700 ca        1 1A2     -0.132000
      8 C4A         3.0950    0.0490   -1.3410 ca        1 1A2     -0.284900
      9 C7          1.7510   -0.6200    1.0680 c3        1 1A2      0.406400
     10 N8          0.9580   -0.1640   -0.1080 nh        1 1A2     -0.642000
     11 C8A         1.6800   -0.1260   -1.3250 ca        1 1A2      0.161600
     12 C11         1.0420   -0.3130    2.4210 c3        1 1A2     -0.098400
     13 C12         1.7820   -0.9420    3.6020 c3        1 1A2      0.082500
     14 N13         2.0130   -2.3640    3.4760 n         1 1A2     -0.464800
     15 C14         2.5770   -2.7710    2.2140 c3        1 1A2      0.082500
     16 C15         1.8800   -2.1820    0.9870 c3        1 1A2     -0.098400
     17 C16         1.2590   -3.2490    4.2670 c         1 1A2      0.668300
     18 O17         0.4150   -2.8020    5.0650 o         1 1A2     -0.567100
     19 N18         5.0510    0.8600    0.0440 nz        1 1A2     -0.802600
     20 C19         1.5440   -4.7050    4.1970 ce        1 1A2     -0.195400
     21 C20         2.8010   -5.2120    4.2150 cf        1 1A2      0.084600
     22 N21         3.0910   -6.5820    4.1810 nf        1 1A2     -0.546300
     23 C22         2.0990   -7.4140    4.3420 ce        1 1A2      0.495200
     24 C23         0.6670   -7.0240    4.6030 c3        1 1A2     -0.166700
     25 C24         0.3530   -5.5990    4.1770 c3        1 1A2     -0.041200
     26 C25         2.3330   -8.8300    4.3130 cg        1 1A2      0.176600
     27 N26         2.5050   -9.9790    4.2890 n1        1 1A2     -0.296800
     28 C13         0.4900    2.3040    0.2650 c3        1 1A2     -0.133100
     29 H81        -0.6820    0.6050    0.9430 h1        1 1A2      0.085200
     30 H82        -0.6890    0.8730   -0.8480 h1        1 1A2      0.085200
     31 H2          1.2080   -0.5150   -4.7250 ha        1 1A2      0.188000
     32 H3          3.7010   -0.2660   -4.7120 ha        1 1A2      0.186000
     33 H111        0.0030   -0.7350    2.3690 hc        1 1A2      0.077950
     34 H112        0.9720    0.7900    2.5950 hc        1 1A2      0.077950
     35 H121        2.7860   -0.4470    3.7320 h1        1 1A2      0.072450
     36 H122        1.1760   -0.7420    4.5350 h1        1 1A2      0.072450
     37 H141        2.5450   -3.8950    2.1160 h1        1 1A2      0.072450
     38 H142        3.6630   -2.4640    2.2120 h1        1 1A2      0.072450
     39 H151        0.8420   -2.5990    0.9000 hc        1 1A2      0.077950
     40 H152        2.4500   -2.4820    0.0710 hc        1 1A2      0.077950
     41 H181        5.7140    0.2130   -0.4060 hn        1 1A2      0.475800
     42 H182        5.0330    1.7360   -0.4890 hn        1 1A2      0.475800
     43 H20         3.7100   -4.5830    4.2550 h4        1 1A2      0.171000
     44 H231       -0.0210   -7.7320    4.0690 hc        1 1A2      0.087200
     45 H232        0.4800   -7.1470    5.7060 hc        1 1A2      0.087200
     46 H241       -0.4380   -5.1760    4.8580 hc        1 1A2      0.076700
     47 H242       -0.0740   -5.5990    3.1360 hc        1 1A2      0.076700
     48 H131       -0.3850    2.9890    0.3890 hc        1 1A2      0.049700
     49 H132        1.1310    2.3890    1.1750 hc        1 1A2      0.049700
     50 H133        1.0780    2.6460   -0.6200 hc        1 1A2      0.049700
     51 F9          5.1580    0.1000   -2.5750 f         1 1A2     -0.151900
     52 H183        5.3490    1.0450    1.0100 hn        1 1A2      0.475800
     53 F10        -0.3230   -0.4900   -2.6280 f         1 1A2     -0.100900
@<TRIPOS>BOND
     1    1   10 1   
     2    1   28 1   
     3    1   29 1   
     4    1   30 1   
     5    2    3 2   
     6    2    8 1   
     7    2   19 1   
     8    3    9 1   
     9    4    6 ar  
    10    4    7 ar  
    11    4   31 1   
    12    5    7 ar  
    13    5    8 ar  
    14    5   51 1   
    15    6   11 ar  
    16    6   53 1   
    17    7   32 1   
    18    8   11 ar  
    19    9   10 1   
    20    9   12 1   
    21    9   16 1   
    22   10   11 1   
    23   12   13 1   
    24   12   33 1   
    25   12   34 1   
    26   13   14 1   
    27   13   35 1   
    28   13   36 1   
    29   14   15 1   
    30   14   17 1   
    31   15   16 1   
    32   15   37 1   
    33   15   38 1   
    34   16   39 1   
    35   16   40 1   
    36   17   18 2   
    37   17   20 1   
    38   19   41 1   
    39   19   42 1   
    40   19   52 1   
    41   20   21 2   
    42   20   25 1   
    43   21   22 1   
    44   21   43 1   
    45   22   23 2   
    46   23   24 1   
    47   23   26 1   
    48   24   25 1   
    49   24   44 1   
    50   24   45 1   
    51   25   46 1   
    52   25   47 1   
    53   26   27 3   
    54   28   48 1   
    55   28   49 1   
    56   28   50 1   
@<TRIPOS>SUBSTRUCTURE
     1 1A2         1 TEMP              0 ****  ****    0 ROOT
