@<TRIPOS>MOLECULE
1A2
   53    54     1     0     0
SMALL
bcc


@<TRIPOS>ATOM
      1 C8          0.1400    1.9610    0.1760 c3        1 1A2      0.213800
      2 C5          2.0340   -1.7960   -0.2360 ce        1 1A2      0.682800
      3 N6          1.1710   -1.6240    0.7350 n2        1 1A2     -0.737900
      4 C2          2.4850    1.0520   -3.4090 ca        1 1A2     -0.063000
      5 C4          2.7870   -1.1890   -2.5940 ca        1 1A2      0.183900
      6 C1          1.7820    1.3960   -2.2500 ca        1 1A2      0.037900
      7 C3          2.9620   -0.2370   -3.6040 ca        1 1A2     -0.192000
      8 C4A         2.1410   -0.8620   -1.3790 ca        1 1A2     -0.329900
      9 C7          0.2620   -0.4750    0.7060 c3        1 1A2      0.475600
     10 N8          0.7510    0.6770   -0.1030 nh        1 1A2     -0.696000
     11 C8A         1.5310    0.4250   -1.2180 ca        1 1A2      0.243600
     12 C11         0.0700   -0.0420    2.1690 c2        1 1A2     -0.148200
     13 C12         1.0600    0.3600    2.9620 c2        1 1A2     -0.247000
     14 N13         2.0900   -2.6930    3.3020 n         1 1A2     -0.321500
     15 C14         3.2410   -2.5500    2.7200 c2        1 1A2      0.404400
     16 C15        -1.1360   -0.9290    0.1840 c3        1 1A2     -0.114100
     17 C16         1.5710   -3.9400    3.8900 c         1 1A2      0.665300
     18 O17         0.3580   -3.9550    4.0650 o         1 1A2     -0.419100
     19 N18         2.9710   -2.8560   -0.0820 nh        1 1A2     -0.913800
     20 C19         2.5170   -5.0120    4.2060 ce        1 1A2     -0.263400
     21 C20         3.7180   -4.8030    4.8110 cf        1 1A2      0.143600
     22 N21         4.6190   -5.8200    5.1260 nf        1 1A2     -0.560300
     23 C22         4.1960   -7.0570    5.0410 ce        1 1A2      0.553200
     24 C23         2.7970   -7.4660    4.6640 c3        1 1A2     -0.178700
     25 C24         2.0550   -6.3940    3.8830 c3        1 1A2     -0.034200
     26 C25         5.0790   -8.1420    5.3540 cg        1 1A2      0.154600
     27 N26         5.7840   -9.0320    5.6030 n1        1 1A2     -0.245800
     28 C13         1.0710    2.9890    0.8040 c3        1 1A2     -0.114100
     29 H81        -0.7290    1.7940    0.8790 h1        1 1A2      0.065200
     30 H82        -0.2980    2.3840   -0.7750 h1        1 1A2      0.065200
     31 H2          2.6410    1.8230   -4.1840 ha        1 1A2      0.173000
     32 H3          3.4700   -0.5150   -4.5400 ha        1 1A2      0.173000
     33 H111        2.0980    0.4690    2.6160 ha        1 1A2      0.122000
     34 H112       -0.9710   -0.1110    2.5250 ha        1 1A2      0.151000
     35 H121        0.8830    0.6750    4.0010 ha        1 1A2      0.122000
     36 H122        1.4080   -1.9280    3.2840 hn        1 1A2      0.392500
     37 H141       -1.5170   -1.7680    0.8140 hc        1 1A2      0.059367
     38 H142        3.9660   -3.3900    2.6530 h4        1 1A2      0.071800
     39 H151       -1.8550   -0.0780    0.2460 hc        1 1A2      0.059367
     40 H152       -1.0710   -1.2710   -0.8750 hc        1 1A2      0.059367
     41 H181        3.6540   -2.8720   -0.8150 hn        1 1A2      0.403800
     42 H182        2.5300   -3.7500    0.0080 hn        1 1A2      0.403800
     43 H20         4.0890   -3.8060    5.1190 h4        1 1A2      0.168000
     44 H231        2.8280   -8.4120    4.0570 hc        1 1A2      0.104200
     45 H232        2.2470   -7.7060    5.6180 hc        1 1A2      0.104200
     46 H241        2.1910   -6.5670    2.7790 hc        1 1A2      0.083700
     47 H242        0.9530   -6.4840    4.0970 hc        1 1A2      0.083700
     48 H131        1.4510    2.6350    1.7930 hc        1 1A2      0.050367
     49 H132        0.4980    3.9360    0.9560 hc        1 1A2      0.050367
     50 H133        1.9420    3.2050    0.1400 hc        1 1A2      0.050367
     51 F9          3.2470   -2.4450   -2.8210 f         1 1A2     -0.139900
     52 H183        3.5310   -1.5690    2.2770 h4        1 1A2      0.071800
     53 F10         1.3470    2.6760   -2.1460 f         1 1A2     -0.127900
@<TRIPOS>BOND
     1    1   10 1   
     2    1   28 1   
     3    1   29 1   
     4    1   30 1   
     5    2    3 2   
     6    2    8 1   
     7    2   19 1   
     8    3    9 1   
     9    4    6 ar  
    10    4    7 ar  
    11    4   31 1   
    12    5    7 ar  
    13    5    8 ar  
    14    5   51 1   
    15    6   11 ar  
    16    6   53 1   
    17    7   32 1   
    18    8   11 ar  
    19    9   10 1   
    20    9   12 1   
    21    9   16 1   
    22   10   11 1   
    23   12   13 2   
    24   12   34 1   
    25   13   33 1   
    26   13   35 1   
    27   14   15 2   
    28   14   17 1   
    29   14   36 1   
    30   15   38 1   
    31   15   52 1   
    32   16   37 1   
    33   16   39 1   
    34   16   40 1   
    35   17   18 2   
    36   17   20 1   
    37   19   41 1   
    38   19   42 1   
    39   20   21 2   
    40   20   25 1   
    41   21   22 1   
    42   21   43 1   
    43   22   23 2   
    44   23   24 1   
    45   23   26 1   
    46   24   25 1   
    47   24   44 1   
    48   24   45 1   
    49   25   46 1   
    50   25   47 1   
    51   26   27 3   
    52   28   48 1   
    53   28   49 1   
    54   28   50 1   
@<TRIPOS>SUBSTRUCTURE
     1 1A2         1 TEMP              0 ****  ****    0 ROOT
