@<TRIPOS>MOLECULE
1A3
   38    40     1     0     0
SMALL
bcc


@<TRIPOS>ATOM
      1 CAH        -0.5420    0.7980    0.7760 ca        1 1A3     -0.095000
      2 CAE         0.8070    1.1230    0.6550 ca        1 1A3     -0.117000
      3 CAD         1.7640    0.4370    1.4050 ca        1 1A3     -0.075000
      4 CAF         1.3700   -0.5760    2.2820 ca        1 1A3     -0.117000
      5 CAI         0.0230   -0.9070    2.4090 ca        1 1A3     -0.095000
      6 CAR        -0.9380   -0.2290    1.6450 ca        1 1A3     -0.168300
      7 CAN        -2.3810   -0.5560    1.8030 c3        1 1A3     -0.279300
      8 SAW        -2.7750   -1.7640    0.7200 s6        1 1A3      1.357900
      9 OAB        -2.8810   -1.3640   -0.5950 o         1 1A3     -0.551800
     10 OAC        -2.3400   -3.0260    1.0660 o         1 1A3     -0.551800
     11 NAO        -4.6700   -1.9900    1.1100 n4        1 1A3     -0.569300
     12 CAS        -5.2110   -1.1320    2.1480 ca        1 1A3     -0.046400
     13 CAM        -5.7200    0.1350    1.8100 ca        1 1A3     -0.119000
     14 CAJ        -5.2460   -1.5810    3.4820 ca        1 1A3     -0.122000
     15 CAG        -5.7620   -0.7430    4.4670 ca        1 1A3     -0.094000
     16 CAK        -6.2520    0.5210    4.1450 ca        1 1A3     -0.079000
     17 CAT        -6.2340    0.9670    2.8140 ca        1 1A3      0.009200
     18 CAU        -6.7600    2.2750    2.4450 cc        1 1A3      0.004400
     19 CAL        -7.4310    2.5610    1.2790 cd        1 1A3     -0.173400
     20 SAQ        -7.9140    4.1690    1.1860 ss        1 1A3      0.017800
     21 CAV        -7.2030    4.5580    2.7640 c         1 1A3      0.673100
     22 OAA        -7.1780    5.6390    3.3570 o         1 1A3     -0.545500
     23 NAP        -6.6240    3.3870    3.2880 n         1 1A3     -0.472100
     24 H1         -1.2920    1.3510    0.1890 ha        1 1A3      0.144000
     25 H2          1.1170    1.9270   -0.0320 ha        1 1A3      0.161000
     26 H3          2.8310    0.6980    1.3090 ha        1 1A3      0.161000
     27 H4          2.1240   -1.1140    2.8790 ha        1 1A3      0.161000
     28 H5         -0.2810   -1.7000    3.1090 ha        1 1A3      0.144000
     29 H6         -2.9790    0.3920    1.6610 h1        1 1A3      0.161200
     30 H7         -2.5660   -0.8390    2.8810 h1        1 1A3      0.161200
     31 H8         -5.1930   -1.8270    0.2460 hn        1 1A3      0.457300
     32 H9         -5.7320    0.4890    0.7650 ha        1 1A3      0.162000
     33 H10        -4.8860   -2.5850    3.7600 ha        1 1A3      0.161000
     34 H11        -5.7950   -1.0930    5.5140 ha        1 1A3      0.175000
     35 H12        -6.6770    1.1580    4.9400 ha        1 1A3      0.172000
     36 H13        -7.6630    1.8390    0.4970 h4        1 1A3      0.182000
     37 H14        -6.1610    3.3540    4.1620 hn        1 1A3      0.348500
     38 HAO2       -4.8260   -2.9650    1.3780 hn        1 1A3      0.457300
@<TRIPOS>BOND
     1    1    2 ar  
     2    1    6 ar  
     3    1   24 1   
     4    2    3 ar  
     5    2   25 1   
     6    3    4 ar  
     7    3   26 1   
     8    4    5 ar  
     9    4   27 1   
    10    5    6 ar  
    11    5   28 1   
    12    6    7 1   
    13    7    8 1   
    14    7   29 1   
    15    7   30 1   
    16    8    9 2   
    17    8   10 2   
    18    8   11 1   
    19   11   12 1   
    20   11   31 1   
    21   11   38 1   
    22   12   13 ar  
    23   12   14 ar  
    24   13   17 ar  
    25   13   32 1   
    26   14   15 ar  
    27   14   33 1   
    28   15   16 ar  
    29   15   34 1   
    30   16   17 ar  
    31   16   35 1   
    32   17   18 1   
    33   18   19 2   
    34   18   23 1   
    35   19   20 1   
    36   19   36 1   
    37   20   21 1   
    38   21   22 2   
    39   21   23 1   
    40   23   37 1   
@<TRIPOS>SUBSTRUCTURE
     1 1A3         1 TEMP              0 ****  ****    0 ROOT
