@<TRIPOS>MOLECULE
1A3
   37    32     1     0     0
SMALL
bcc


@<TRIPOS>ATOM
      1 CAH         3.1970   -3.4000   -0.8610 c1        1 1A3     -0.106000
      2 CAE         4.3920   -4.0260   -0.5430 c1        1 1A3     -0.124000
      3 CAD         5.5960   -3.3790   -0.7730 c1        1 1A3     -0.124000
      4 CAF         5.6050   -2.1060   -1.3210 c1        1 1A3     -0.123000
      5 CAI         4.4100   -1.4800   -1.6390 c1        1 1A3     -0.122000
      6 CAR         3.2050   -2.1270   -1.4090 c2        1 1A3     -0.072000
      7 CAN         1.9070   -1.4830   -1.8440 c3        1 1A3     -0.801000
      8 SAW         1.1770   -0.6360   -0.4670 s4        1 1A3      2.020800
      9 OAB         1.2590   -1.4220    0.7320 o         1 1A3     -0.525900
     10 OAC         1.9470    0.5190   -0.0970 o         1 1A3     -0.525900
     11 NAO        -0.3770   -0.2310   -0.8080 n2        1 1A3     -0.831000
     12 CAS        -1.2140    0.2920    0.2110 c2        1 1A3      0.084000
     13 CAM        -2.0950    1.3220   -0.0780 c2        1 1A3     -0.149000
     14 CAJ        -1.2130   -0.2860    1.4710 c1        1 1A3     -0.171000
     15 CAG        -2.0930    0.1670    2.4410 c2        1 1A3     -0.096000
     16 CAK        -2.9740    1.1970    2.1520 c1        1 1A3     -0.139000
     17 CAT        -2.9750    1.7740    0.8920 c1        1 1A3     -0.009000
     18 CAU        -3.9140    2.9180    0.5870 c2        1 1A3      0.043000
     19 CAL        -5.2310    2.6560    0.1860 c1        1 1A3     -0.433000
     20 SAQ        -6.2170    3.7900    0.5270 s         1 1A3      0.364000
     21 CAV        -5.2080    4.9730    1.3080 c2        1 1A3      0.154000
     22 OAA        -5.4520    6.1580    1.4180 o         1 1A3     -0.309000
     23 NAP        -3.7210    4.2960    1.2910 n         1 1A3     -0.312000
     24 H1          2.3490   -3.8560   -0.6990 ha        1 1A3      0.133000
     25 H2          4.3860   -4.9230   -0.1580 ha        1 1A3      0.135000
     26 H3          6.4370   -3.8200   -0.5500 ha        1 1A3      0.135000
     27 H4          6.4530   -1.6510   -1.4830 ha        1 1A3      0.138000
     28 H5          4.4160   -0.5830   -2.0240 DU        1 1A3      0.164000
     29 H6          1.2920   -2.1730   -2.1650 h1        1 1A3      0.156000
     30 H7          2.0840   -0.8440   -2.5620 h1        1 1A3      0.156000
     31 H8         -0.7040   -0.3460   -1.6520 hn        1 1A3      0.254000
     32 H9         -2.0960    1.7290   -0.9660 ha        1 1A3      0.143000
     33 H10        -0.5930   -1.0120    1.6750 DU        1 1A3      0.164000
     34 H11        -2.0920   -0.2400    3.3290 ha        1 1A3      0.145000
     35 H12        -3.5930    1.5150    2.8360 ha        1 1A3      0.141000
     36 H13        -5.4020    2.0750   -0.5790 ha        1 1A3      0.183000
     37 H14        -2.9470    4.6470    1.6220 hn        1 1A3      0.262000
@<TRIPOS>BOND
     1    1    6 1   
     2    1   24 1   
     3    2    3 1   
     4    2   25 1   
     5    3   26 1   
     6    4    5 1   
     7    4   27 1   
     8    5    6 1   
     9    6    7 1   
    10    7    8 1   
    11    7   29 1   
    12    7   30 1   
    13    8    9 1   
    14    8   10 1   
    15   11   12 1   
    16   11   31 1   
    17   12   13 1   
    18   12   14 1   
    19   13   17 1   
    20   13   32 1   
    21   14   15 1   
    22   15   16 1   
    23   15   34 1   
    24   16   35 1   
    25   17   18 1   
    26   18   19 1   
    27   18   23 1   
    28   19   36 1   
    29   20   21 1   
    30   21   22 1   
    31   21   23 1   
    32   23   37 1   
@<TRIPOS>SUBSTRUCTURE
     1 1A3         1 TEMP              0 ****  ****    0 ROOT
