@<TRIPOS>MOLECULE
1A3
   37    39     1     0     0
SMALL
bcc


@<TRIPOS>ATOM
      1 CAH        -4.7940    1.4440    0.6360 ca        1 1A3     -0.114000
      2 CAE        -6.0890    1.7860    0.2540 ca        1 1A3     -0.126000
      3 CAD        -6.4460    1.7860   -1.0950 ca        1 1A3     -0.119000
      4 CAF        -5.5030    1.4400   -2.0630 ca        1 1A3     -0.126000
      5 CAI        -4.2050    1.0970   -1.6860 ca        1 1A3     -0.114000
      6 CAR        -3.8440    1.0940   -0.3340 ca        1 1A3     -0.079300
      7 CAN        -2.4570    0.7600    0.0710 c3        1 1A3     -0.255300
      8 SAW        -2.3570   -0.7230    0.9570 s6        1 1A3      1.448900
      9 OAB        -3.0190   -0.5630    2.1920 o         1 1A3     -0.638300
     10 OAC        -2.7530   -1.7850    0.1320 o         1 1A3     -0.638300
     11 NAO        -0.7570   -0.7970    1.2950 nh        1 1A3     -0.780500
     12 CAS         0.3080   -1.0740    0.4250 ca        1 1A3      0.166600
     13 CAM         1.6050   -0.6090    0.7390 ca        1 1A3     -0.149000
     14 CAJ         0.1210   -1.8170   -0.7630 ca        1 1A3     -0.172000
     15 CAG         1.2010   -2.0630   -1.6050 ca        1 1A3     -0.096000
     16 CAK         2.4770   -1.5980   -1.2970 ca        1 1A3     -0.139000
     17 CAT         2.6790   -0.8720   -0.1170 ca        1 1A3     -0.020800
     18 CAU         4.0080   -0.3880    0.2500 cc        1 1A3      0.056400
     19 CAL         4.5160   -0.3360    1.5240 cd        1 1A3     -0.190400
     20 SAQ         6.0910    0.2800    1.5680 ss        1 1A3     -0.058200
     21 CAV         6.1320    0.5090   -0.1880 c         1 1A3      0.678100
     22 OAA         7.0500    0.9610   -0.8840 o         1 1A3     -0.584500
     23 NAP         4.9070    0.0810   -0.7200 n         1 1A3     -0.469100
     24 H1         -4.5180    1.4280    1.7030 ha        1 1A3      0.143000
     25 H2         -6.8310    2.0530    1.0200 ha        1 1A3      0.136500
     26 H3         -7.4690    2.0570   -1.3940 ha        1 1A3      0.135000
     27 H4         -5.7820    1.4370   -3.1270 ha        1 1A3      0.136500
     28 H5         -3.4670    0.8250   -2.4550 ha        1 1A3      0.143000
     29 H6         -1.8070    0.7260   -0.8450 h1        1 1A3      0.116200
     30 H7         -2.0640    1.6190    0.6820 h1        1 1A3      0.116200
     31 H8         -0.4570   -0.6060    2.2270 hn        1 1A3      0.457800
     32 H9          1.7840   -0.0350    1.6620 ha        1 1A3      0.143000
     33 H10        -0.8710   -2.2240   -1.0270 ha        1 1A3      0.175000
     34 H11         1.0410   -2.6460   -2.5260 ha        1 1A3      0.145000
     35 H12         3.3170   -1.8230   -1.9690 ha        1 1A3      0.141000
     36 H13         3.9920   -0.6620    2.4200 h4        1 1A3      0.184000
     37 H14         4.6810    0.1310   -1.6830 hn        1 1A3      0.347500
@<TRIPOS>BOND
     1    1    2 ar  
     2    1    6 ar  
     3    1   24 1   
     4    2    3 ar  
     5    2   25 1   
     6    3    4 ar  
     7    3   26 1   
     8    4    5 ar  
     9    4   27 1   
    10    5    6 ar  
    11    5   28 1   
    12    6    7 1   
    13    7    8 1   
    14    7   29 1   
    15    7   30 1   
    16    8    9 2   
    17    8   10 2   
    18    8   11 1   
    19   11   12 1   
    20   11   31 1   
    21   12   13 ar  
    22   12   14 ar  
    23   13   17 ar  
    24   13   32 1   
    25   14   15 ar  
    26   14   33 1   
    27   15   16 ar  
    28   15   34 1   
    29   16   17 ar  
    30   16   35 1   
    31   17   18 1   
    32   18   19 2   
    33   18   23 1   
    34   19   20 1   
    35   19   36 1   
    36   20   21 1   
    37   21   22 2   
    38   21   23 1   
    39   23   37 1   
@<TRIPOS>SUBSTRUCTURE
     1 1A3         1 TEMP              0 ****  ****    0 ROOT
