@<TRIPOS>MOLECULE
1A3
   37    39     1     0     0
SMALL
bcc


@<TRIPOS>ATOM
      1 CAH         0.3930   -0.4940    0.1050 ca        1 1A3     -0.114000
      2 CAE         1.7530   -0.7950    0.1040 ca        1 1A3     -0.126000
      3 CAD         2.4530   -0.8830    1.3070 ca        1 1A3     -0.119000
      4 CAF         1.7880   -0.6720    2.5150 ca        1 1A3     -0.126000
      5 CAI         0.4260   -0.3700    2.5220 ca        1 1A3     -0.114000
      6 CAR        -0.2800   -0.2820    1.3170 ca        1 1A3     -0.079300
      7 CAN        -1.7210    0.0680    1.3150 c3        1 1A3     -0.255300
      8 SAW        -2.7260   -1.2350    0.7810 s6        1 1A3      1.448900
      9 OAB        -2.4610   -1.4900   -0.5790 o         1 1A3     -0.638300
     10 OAC        -2.6200   -2.3040    1.6830 o         1 1A3     -0.638300
     11 NAO        -4.2120   -0.5510    0.8440 nh        1 1A3     -0.780500
     12 CAS        -4.9790   -0.2270    1.9730 ca        1 1A3      0.165600
     13 CAM        -5.9590    0.7860    1.8840 ca        1 1A3     -0.149000
     14 CAJ        -4.8020   -0.8950    3.2060 ca        1 1A3     -0.172000
     15 CAG        -5.5750   -0.5390    4.3060 ca        1 1A3     -0.096000
     16 CAK        -6.5370    0.4640    4.2170 ca        1 1A3     -0.139000
     17 CAT        -6.7330    1.1260    2.9980 ca        1 1A3     -0.020800
     18 CAU        -7.7480    2.1680    2.8630 cc        1 1A3      0.056400
     19 CAL        -8.5300    2.3810    1.7550 cd        1 1A3     -0.190400
     20 SAQ        -9.6000    3.6760    1.9580 ss        1 1A3     -0.058200
     21 CAV        -9.0130    4.0020    3.5980 c         1 1A3      0.678100
     22 OAA        -9.3830    4.8810    4.3870 o         1 1A3     -0.584500
     23 NAP        -8.0130    3.0690    3.9050 n         1 1A3     -0.469100
     24 H1         -0.1630   -0.4400   -0.8460 ha        1 1A3      0.143000
     25 H2          2.2730   -0.9650   -0.8510 ha        1 1A3      0.136500
     26 H3          3.5270   -1.1200    1.3040 ha        1 1A3      0.135000
     27 H4          2.3360   -0.7440    3.4660 ha        1 1A3      0.136500
     28 H5         -0.0920   -0.2060    3.4780 ha        1 1A3      0.143000
     29 H6         -1.8510    0.9710    0.6560 h1        1 1A3      0.116200
     30 H7         -2.0150    0.4070    2.3450 h1        1 1A3      0.116200
     31 H8         -4.6560   -0.2960   -0.0120 hn        1 1A3      0.457800
     32 H9         -6.1280    1.3180    0.9340 ha        1 1A3      0.143000
     33 H10        -4.0670   -1.7130    3.3070 ha        1 1A3      0.175000
     34 H11        -5.4280   -1.0700    5.2600 ha        1 1A3      0.145000
     35 H12        -7.1490    0.7140    5.0960 ha        1 1A3      0.141000
     36 H13        -8.4970    1.7900    0.8420 h4        1 1A3      0.184000
     37 H14        -7.5150    3.0610    4.7610 hn        1 1A3      0.347500
@<TRIPOS>BOND
     1    1    2 ar  
     2    1    6 ar  
     3    1   24 1   
     4    2    3 ar  
     5    2   25 1   
     6    3    4 ar  
     7    3   26 1   
     8    4    5 ar  
     9    4   27 1   
    10    5    6 ar  
    11    5   28 1   
    12    6    7 1   
    13    7    8 1   
    14    7   29 1   
    15    7   30 1   
    16    8    9 2   
    17    8   10 2   
    18    8   11 1   
    19   11   12 1   
    20   11   31 1   
    21   12   13 ar  
    22   12   14 ar  
    23   13   17 ar  
    24   13   32 1   
    25   14   15 ar  
    26   14   33 1   
    27   15   16 ar  
    28   15   34 1   
    29   16   17 ar  
    30   16   35 1   
    31   17   18 1   
    32   18   19 2   
    33   18   23 1   
    34   19   20 1   
    35   19   36 1   
    36   20   21 1   
    37   21   22 2   
    38   21   23 1   
    39   23   37 1   
@<TRIPOS>SUBSTRUCTURE
     1 1A3         1 TEMP              0 ****  ****    0 ROOT
