@<TRIPOS>MOLECULE
1A4
   31    33     1     0     0
SMALL
bcc


@<TRIPOS>ATOM
      1 CAI        -3.6150    1.9330   -0.8240 cc        1 1A4     -0.026000
      2 CAD        -3.6760    3.1270   -0.0750 cc        1 1A4     -0.179000
      3 CAF        -3.3830    2.8820    1.2650 cd        1 1A4     -0.179100
      4 SAN        -3.0700    1.3030    1.5390 ss        1 1A4      0.287200
      5 CAS        -3.2760    0.8220   -0.0300 cd        1 1A4     -0.519600
      6 SAU        -3.1900   -0.6850   -0.7110 sy        1 1A4      1.560200
      7 OAB        -3.5630   -1.6450    0.2470 o         1 1A4     -0.650300
      8 OAC        -3.8980   -0.6860   -1.9300 o         1 1A4     -0.650300
      9 NAL        -1.6040   -0.8390   -1.1010 nh        1 1A4     -0.770500
     10 CAP        -0.5150   -1.1310   -0.2670 ca        1 1A4      0.172600
     11 CAK         0.7700   -0.6490   -0.6000 ca        1 1A4     -0.151000
     12 CAG        -0.6650   -1.9140    0.9010 ca        1 1A4     -0.169000
     13 CAE         0.4390   -2.1830    1.7030 ca        1 1A4     -0.100000
     14 CAH         1.7040   -1.7040    1.3740 ca        1 1A4     -0.142000
     15 CAQ         1.8700   -0.9370    0.2140 ca        1 1A4     -0.023800
     16 CAR         3.1860   -0.4340   -0.1730 cc        1 1A4      0.058400
     17 CAJ         3.6570   -0.3320   -1.4580 cd        1 1A4     -0.191400
     18 SAO         5.2280    0.2940   -1.5250 ss        1 1A4     -0.061200
     19 CAT         5.3180    0.4570    0.2370 c         1 1A4      0.678100
     20 OAA         6.2540    0.8880    0.9230 o         1 1A4     -0.587500
     21 NAM         4.1110    0.0040    0.7870 n         1 1A4     -0.469100
     22 H1         -3.8280    1.8680   -1.8980 ha        1 1A4      0.178000
     23 H2         -3.9230    4.1030   -0.4960 ha        1 1A4      0.166000
     24 H3         -3.3690    3.6530    2.0390 h4        1 1A4      0.183000
     25 H4         -1.3280   -0.6420   -2.0390 hn        1 1A4      0.452800
     26 H5          0.9210   -0.0430   -1.5080 ha        1 1A4      0.142000
     27 H6         -1.6500   -2.3290    1.1810 ha        1 1A4      0.177000
     28 H7          0.3080   -2.7970    2.6080 ha        1 1A4      0.143000
     29 H8          2.5640   -1.9490    2.0130 ha        1 1A4      0.139000
     30 H9          3.1080   -0.6270   -2.3510 h4        1 1A4      0.184000
     31 H10         3.9140    0.0120    1.7580 hn        1 1A4      0.346500
@<TRIPOS>BOND
     1    1    2 1   
     2    1    5 2   
     3    1   22 1   
     4    2    3 2   
     5    2   23 1   
     6    3    4 1   
     7    3   24 1   
     8    4    5 1   
     9    5    6 1   
    10    6    7 2   
    11    6    8 2   
    12    6    9 1   
    13    9   10 1   
    14    9   25 1   
    15   10   11 ar  
    16   10   12 ar  
    17   11   15 ar  
    18   11   26 1   
    19   12   13 ar  
    20   12   27 1   
    21   13   14 ar  
    22   13   28 1   
    23   14   15 ar  
    24   14   29 1   
    25   15   16 1   
    26   16   17 2   
    27   16   21 1   
    28   17   18 1   
    29   17   30 1   
    30   18   19 1   
    31   19   20 2   
    32   19   21 1   
    33   21   31 1   
@<TRIPOS>SUBSTRUCTURE
     1 1A4         1 TEMP              0 ****  ****    0 ROOT
