@<TRIPOS>MOLECULE
1A4
   32    33     1     0     0
SMALL
bcc


@<TRIPOS>ATOM
      1 CAI        -0.0820   -0.2880   -0.0840 cc        1 1A4     -0.002000
      2 CAD         1.2550   -0.6560   -0.0730 cc        1 1A4     -0.154000
      3 CAF         1.7680   -0.6230    1.2440 cd        1 1A4     -0.148100
      4 SAN         0.6710   -0.1790    2.3200 ss        1 1A4      0.475200
      5 CAS        -0.5830    0.0240    1.2340 cd        1 1A4     -0.757600
      6 SAU        -2.0350    0.4950    1.4070 s4        1 1A4      1.720300
      7 OAB        -2.3960    1.0070    2.6160 o         1 1A4     -0.444900
      8 OAC        -2.7580    0.7220    0.2780 o         1 1A4     -0.444900
      9 NAL        -3.1040   -1.5230    1.7720 nh        1 1A4     -0.879200
     10 CAP        -2.5070   -2.3450    2.7870 ca        1 1A4     -0.000400
     11 CAK        -1.8850   -3.5610    2.4510 ca        1 1A4     -0.125000
     12 CAG        -2.5430   -1.9240    4.1320 ca        1 1A4     -0.135000
     13 CAE        -1.9440   -2.7090    5.1120 ca        1 1A4     -0.101000
     14 CAH        -1.3130   -3.9070    4.7820 ca        1 1A4     -0.103000
     15 CAQ        -1.2810   -4.3390    3.4480 ca        1 1A4     -0.009800
     16 CAR        -0.6260   -5.5870    3.0700 cc        1 1A4      0.029400
     17 CAJ         0.0330   -5.8100    1.8850 cd        1 1A4     -0.192400
     18 SAO         0.6830   -7.3610    1.7840 ss        1 1A4     -0.012200
     19 CAT         0.0620   -7.8090    3.3850 c         1 1A4      0.677100
     20 OAA         0.1720   -8.8830    3.9820 o         1 1A4     -0.548500
     21 NAM        -0.6060   -6.6960    3.9260 n         1 1A4     -0.468100
     22 H1         -0.7060   -0.2200   -0.9860 ha        1 1A4      0.198000
     23 H2          1.8410   -0.9280   -0.9590 ha        1 1A4      0.203000
     24 H3          2.8140   -0.8760    1.4720 h4        1 1A4      0.224000
     25 H4         -3.1670   -2.0250    0.8990 hn        1 1A4      0.415800
     26 H5         -1.8770   -3.9260    1.4110 ha        1 1A4      0.153000
     27 H6         -3.0460   -0.9840    4.4160 ha        1 1A4      0.164000
     28 H7         -1.9770   -2.3800    6.1650 ha        1 1A4      0.165000
     29 H8         -0.8380   -4.5060    5.5760 ha        1 1A4      0.162000
     30 H9          0.1460   -5.0820    1.0840 h4        1 1A4      0.172000
     31 H10        -1.1010   -6.7250    4.7850 hn        1 1A4      0.350500
     32 HAL2       -4.0390   -1.2640    2.0580 hn        1 1A4      0.415800
@<TRIPOS>BOND
     1    1    2 1   
     2    1    5 2   
     3    1   22 1   
     4    2    3 2   
     5    2   23 1   
     6    3    4 1   
     7    3   24 1   
     8    4    5 1   
     9    5    6 1   
    10    6    7 1   
    11    6    8 1   
    12    9   10 1   
    13    9   25 1   
    14    9   32 1   
    15   10   11 ar  
    16   10   12 ar  
    17   11   15 ar  
    18   11   26 1   
    19   12   13 ar  
    20   12   27 1   
    21   13   14 ar  
    22   13   28 1   
    23   14   15 ar  
    24   14   29 1   
    25   15   16 1   
    26   16   17 2   
    27   16   21 1   
    28   17   18 1   
    29   17   30 1   
    30   18   19 1   
    31   19   20 2   
    32   19   21 1   
    33   21   31 1   
@<TRIPOS>SUBSTRUCTURE
     1 1A4         1 TEMP              0 ****  ****    0 ROOT
