@<TRIPOS>MOLECULE
1A4
   31    24     1     0     0
SMALL
bcc


@<TRIPOS>ATOM
      1 CAI        -0.3950    1.0790   -4.7320 c1        1 1A4     -0.101000
      2 CAD        -0.0530    0.5840   -6.2070 c1        1 1A4     -0.101000
      3 CAF         0.9610   -0.4500   -6.1170 c1        1 1A4     -0.843500
      4 SAN         1.3020   -0.6540   -4.6170 ss        1 1A4      0.834000
      5 CAS         0.4240    0.3280   -3.7980 c1        1 1A4     -0.843500
      6 SAU         0.4820    0.5630   -2.0420 ss        1 1A4      2.910000
      7 OAB         0.0690    1.8910   -1.6790 o         1 1A4     -0.933000
      8 OAC         1.8350    0.5500   -1.5580 o         1 1A4     -0.933000
      9 NAL        -0.4330   -0.5730   -1.2850 n2        1 1A4     -0.822000
     10 CAP        -0.1820   -0.8960    0.0740 c2        1 1A4      0.103000
     11 CAK        -0.4760    0.0230    1.0700 c2        1 1A4     -0.166000
     12 CAG         0.3240   -2.1420    0.4080 c1        1 1A4     -0.170000
     13 CAE         0.5360   -2.4700    1.7380 c1        1 1A4     -0.096000
     14 CAH         0.2420   -1.5520    2.7340 c1        1 1A4     -0.149000
     15 CAQ        -0.2640   -0.3050    2.4000 c1        1 1A4      0.006000
     16 CAR        -0.5490    0.7110    3.4840 c1        1 1A4      0.037000
     17 CAJ        -1.7670    0.6770    4.1710 c1        1 1A4     -0.421000
     18 SAO        -1.6970    1.2750    5.5820 s         1 1A4      0.363000
     19 CAT        -0.0370    1.7650    5.7280 c2        1 1A4      0.152000
     20 OAA         0.3970    2.5930    6.5040 o         1 1A4     -0.316000
     21 NAM         0.6310    1.3470    4.2900 n         1 1A4     -0.313000
     22 H1         -1.0450    1.7680   -4.4970 DU        1 1A4      0.166500
     23 H2         -0.4570    0.9180   -7.0300 DU        1 1A4      0.166500
     24 H3          1.3590   -0.9310   -6.8670 DU        1 1A4      0.166500
     25 H4         -1.1010   -0.9960   -1.7390 hn        1 1A4      0.243000
     26 H5         -0.8330    0.9000    0.8340 ha        1 1A4      0.169000
     27 H6          0.5320   -2.7890   -0.2930 ha        1 1A4      0.134000
     28 H7          0.8930   -3.3480    1.9730 ha        1 1A4      0.138000
     29 H8          0.3920   -1.7830    3.6700 DU        1 1A4      0.166500
     30 H9         -2.6080    0.6940    3.6760 ha        1 1A4      0.194000
     31 H10         1.5190    1.2210    4.1270 hn        1 1A4      0.259000
@<TRIPOS>BOND
     1    1    2 1   
     2    1    5 1   
     3    2    3 1   
     4    3    4 1   
     5    4    5 1   
     6    6    7 1   
     7    6    8 1   
     8    9   10 1   
     9    9   25 1   
    10   10   11 1   
    11   10   12 1   
    12   11   15 1   
    13   11   26 1   
    14   12   27 1   
    15   13   14 1   
    16   13   28 1   
    17   14   15 1   
    18   16   17 1   
    19   16   21 1   
    20   17   30 1   
    21   18   19 1   
    22   19   20 1   
    23   19   21 1   
    24   21   31 1   
@<TRIPOS>SUBSTRUCTURE
     1 1A4         1 TEMP              0 ****  ****    0 ROOT
