@<TRIPOS>MOLECULE
1A4
   31    33     1     0     0
SMALL
bcc


@<TRIPOS>ATOM
      1 CAI        -0.2310    0.2800   -0.2150 cc        1 1A4     -0.027000
      2 CAD         1.1580    0.4990   -0.3390 cc        1 1A4     -0.180000
      3 CAF         1.7560    0.5850    0.9170 cd        1 1A4     -0.180100
      4 SAN         0.6660    0.4110    2.1210 ss        1 1A4      0.289200
      5 CAS        -0.6410    0.2050    1.1280 cd        1 1A4     -0.519600
      6 SAU        -2.2420   -0.0090    1.4920 sy        1 1A4      1.560200
      7 OAB        -2.5280    0.6390    2.7080 o         1 1A4     -0.650300
      8 OAC        -3.0250    0.3470    0.3750 o         1 1A4     -0.650300
      9 NAL        -2.3840   -1.6350    1.6540 nu        1 1A4     -0.770500
     10 CAP        -1.9960   -2.4500    2.7270 ca        1 1A4      0.171600
     11 CAK        -1.6230   -3.7920    2.4880 ca        1 1A4     -0.150000
     12 CAG        -1.9850   -1.9690    4.0560 ca        1 1A4     -0.169000
     13 CAE        -1.5920   -2.8060    5.0950 ca        1 1A4     -0.100000
     14 CAH        -1.2200   -4.1270    4.8560 ca        1 1A4     -0.141000
     15 CAQ        -1.2400   -4.6220    3.5460 ca        1 1A4     -0.024800
     16 CAR        -0.8500   -6.0000    3.2570 cc        1 1A4      0.059400
     17 CAJ        -0.1620   -6.4190    2.1460 cd        1 1A4     -0.193400
     18 SAO         0.1180   -8.0880    2.1490 ss        1 1A4     -0.063200
     19 CAT        -0.7170   -8.3010    3.6970 c         1 1A4      0.679100
     20 OAA        -0.9030   -9.3470    4.3320 o         1 1A4     -0.585500
     21 NAM        -1.1620   -7.0470    4.1380 ns        1 1A4     -0.468100
     22 H1         -0.9190    0.2000   -1.0650 ha        1 1A4      0.178000
     23 H2          1.6810    0.5920   -1.2930 ha        1 1A4      0.165000
     24 H3          2.8230    0.7530    1.0750 h4        1 1A4      0.183000
     25 H4         -2.7330   -2.1590    0.8800 hn        1 1A4      0.453800
     26 H5         -1.6400   -4.2010    1.4660 ha        1 1A4      0.143000
     27 H6         -2.2950   -0.9340    4.2850 ha        1 1A4      0.177000
     28 H7         -1.5830   -2.4160    6.1250 ha        1 1A4      0.143000
     29 H8         -0.9020   -4.7650    5.6930 ha        1 1A4      0.139000
     30 H9          0.1860   -5.7710    1.3440 h4        1 1A4      0.183000
     31 H10        -1.6890   -6.9120    4.9650 hn        1 1A4      0.347500
@<TRIPOS>BOND
     1    1    2 1   
     2    1    5 2   
     3    1   22 1   
     4    2    3 2   
     5    2   23 1   
     6    3    4 1   
     7    3   24 1   
     8    4    5 1   
     9    5    6 1   
    10    6    7 2   
    11    6    8 2   
    12    6    9 1   
    13    9   10 1   
    14    9   25 1   
    15   10   11 ar  
    16   10   12 ar  
    17   11   15 ar  
    18   11   26 1   
    19   12   13 ar  
    20   12   27 1   
    21   13   14 ar  
    22   13   28 1   
    23   14   15 ar  
    24   14   29 1   
    25   15   16 1   
    26   16   17 2   
    27   16   21 1   
    28   17   18 1   
    29   17   30 1   
    30   18   19 1   
    31   19   20 2   
    32   19   21 1   
    33   21   31 1   
@<TRIPOS>SUBSTRUCTURE
     1 1A4         1 TEMP              0 ****  ****    0 ROOT
