@<TRIPOS>MOLECULE
1A4
   31    33     1     0     0
SMALL
bcc


@<TRIPOS>ATOM
      1 CAI        -0.2330    0.2760   -0.2200 cc        1 1A4     -0.027000
      2 CAD         1.1550    0.4910   -0.3480 cc        1 1A4     -0.180000
      3 CAF         1.7580    0.5760    0.9050 cd        1 1A4     -0.180100
      4 SAN         0.6710    0.4060    2.1130 ss        1 1A4      0.289200
      5 CAS        -0.6390    0.2020    1.1250 cd        1 1A4     -0.519600
      6 SAU        -2.2400   -0.0070    1.4940 sy        1 1A4      1.560200
      7 OAB        -2.5200    0.6430    2.7100 o         1 1A4     -0.650300
      8 OAC        -3.0260    0.3500    0.3800 o         1 1A4     -0.650300
      9 NAL        -2.3860   -1.6330    1.6580 nh        1 1A4     -0.770500
     10 CAP        -1.9960   -2.4470    2.7300 ca        1 1A4      0.171600
     11 CAK        -1.6250   -3.7900    2.4910 ca        1 1A4     -0.150000
     12 CAG        -1.9800   -1.9660    4.0590 ca        1 1A4     -0.169000
     13 CAE        -1.5850   -2.8030    5.0970 ca        1 1A4     -0.100000
     14 CAH        -1.2150   -4.1240    4.8580 ca        1 1A4     -0.141000
     15 CAQ        -1.2400   -4.6200    3.5490 ca        1 1A4     -0.024800
     16 CAR        -0.8530   -5.9980    3.2590 cc        1 1A4      0.060400
     17 CAJ        -0.1690   -6.4190    2.1470 cd        1 1A4     -0.193400
     18 SAO         0.1100   -8.0880    2.1500 ss        1 1A4     -0.063200
     19 CAT        -0.7210   -8.2990    3.7010 c         1 1A4      0.679100
     20 OAA        -0.9060   -9.3450    4.3370 o         1 1A4     -0.585500
     21 NAM        -1.1630   -7.0440    4.1420 n         1 1A4     -0.468100
     22 H1         -0.9250    0.1970   -1.0670 ha        1 1A4      0.178000
     23 H2          1.6760    0.5820   -1.3040 ha        1 1A4      0.165000
     24 H3          2.8250    0.7420    1.0600 h4        1 1A4      0.183000
     25 H4         -2.7380   -2.1560    0.8850 hn        1 1A4      0.453800
     26 H5         -1.6450   -4.2000    1.4690 ha        1 1A4      0.143000
     27 H6         -2.2880   -0.9300    4.2880 ha        1 1A4      0.177000
     28 H7         -1.5720   -2.4120    6.1270 ha        1 1A4      0.143000
     29 H8         -0.8960   -4.7620    5.6940 ha        1 1A4      0.139000
     30 H9          0.1780   -5.7720    1.3430 h4        1 1A4      0.183000
     31 H10        -1.6880   -6.9090    4.9710 hn        1 1A4      0.347500
@<TRIPOS>BOND
     1    1    2 1   
     2    1    5 2   
     3    1   22 1   
     4    2    3 2   
     5    2   23 1   
     6    3    4 1   
     7    3   24 1   
     8    4    5 1   
     9    5    6 1   
    10    6    7 2   
    11    6    8 2   
    12    6    9 1   
    13    9   10 1   
    14    9   25 1   
    15   10   11 ar  
    16   10   12 ar  
    17   11   15 ar  
    18   11   26 1   
    19   12   13 ar  
    20   12   27 1   
    21   13   14 ar  
    22   13   28 1   
    23   14   15 ar  
    24   14   29 1   
    25   15   16 1   
    26   16   17 2   
    27   16   21 1   
    28   17   18 1   
    29   17   30 1   
    30   18   19 1   
    31   19   20 2   
    32   19   21 1   
    33   21   31 1   
@<TRIPOS>SUBSTRUCTURE
     1 1A4         1 TEMP              0 ****  ****    0 ROOT
