@<TRIPOS>MOLECULE
1A5
   25    21     1     0     0
SMALL
bcc


@<TRIPOS>ATOM
      1 OAC         2.7040   -1.2590    1.5700 o         1 1A5     -0.303000
      2 CAL         1.9600   -0.5470    2.2090 c1        1 1A5      0.401000
      3 OAJ         2.1580   -0.1250    3.5540 os        1 1A5     -0.229000
      4 CAH         0.9520    0.4240    4.0180 c3        1 1A5     -0.041000
      5 CAI         0.0880    0.6450    2.8190 c3        1 1A5     -0.057000
      6 NAO         0.7660    0.0790    1.7190 n2        1 1A5     -0.301000
      7 CAN         0.3070    0.0690    0.3640 c1        1 1A5      0.122000
      8 CAF         0.7170    1.0630   -0.5140 c1        1 1A5     -0.175000
      9 CAD         0.2460    1.0710   -1.8240 c1        1 1A5     -0.046000
     10 CAM        -0.6300    0.0880   -2.2510 c1        1 1A5     -0.151000
     11 CAK        -1.0470    0.0240   -3.7190 c1        1 1A5      0.347000
     12 OAB        -0.6160    0.8380   -4.5080 o         1 1A5     -0.369000
     13 NAA        -1.9440   -0.9820   -4.1580 n2        1 1A5     -0.434000
     14 CAE        -1.0410   -0.9080   -1.3700 c2        1 1A5     -0.073000
     15 CAG        -0.5710   -0.9160   -0.0630 c1        1 1A5     -0.194000
     16 H1          0.5150   -0.2710    4.5530 h1        1 1A5      0.115000
     17 H2          1.1670    1.3110    4.3740 h1        1 1A5      0.115000
     18 H3         -0.7150    0.1110    2.9540 h1        1 1A5      0.107000
     19 H4          0.0640    1.6110    2.6660 h1        1 1A5      0.107000
     20 H5          1.3340    1.7560   -0.2130 ha        1 1A5      0.177000
     21 H6          0.5340    1.7680   -2.4410 ha        1 1A5      0.163000
     22 H7         -2.1550   -1.6730   -3.6080 hn        1 1A5      0.224500
     23 H8         -2.2750   -0.9590   -5.0110 hn        1 1A5      0.224500
     24 H9         -1.6600   -1.6030   -1.6710 ha        1 1A5      0.136000
     25 H10        -0.8590   -1.6140    0.5540 ha        1 1A5      0.135000
@<TRIPOS>BOND
     1    1    2 1   
     2    2    3 1   
     3    3    4 1   
     4    4    5 1   
     5    4   16 1   
     6    4   17 1   
     7    5    6 1   
     8    5   18 1   
     9    5   19 1   
    10    6    7 1   
    11    7    8 1   
    12    8   20 1   
    13    9   10 1   
    14    9   21 1   
    15   10   14 1   
    16   11   12 1   
    17   13   22 1   
    18   13   23 1   
    19   14   15 1   
    20   14   24 1   
    21   15   25 1   
@<TRIPOS>SUBSTRUCTURE
     1 1A5         1 TEMP              0 ****  ****    0 ROOT
