@<TRIPOS>MOLECULE
1A5
   25    26     1     0     0
SMALL
bcc


@<TRIPOS>ATOM
      1 OAC        -2.6430    2.0750    0.0120 o         1 1A5     -0.582500
      2 CAL        -2.8050    0.8560   -0.0230 c         1 1A5      0.834600
      3 OAJ        -4.1130    0.3890   -0.0090 os        1 1A5     -0.390900
      4 CAH        -4.1200   -1.0560   -0.0570 c3        1 1A5      0.109400
      5 CAI        -2.6340   -1.4790   -0.1060 c3        1 1A5      0.059000
      6 NAO        -1.9050   -0.2210   -0.0980 n         1 1A5     -0.399000
      7 CAN        -0.5100   -0.1500   -0.0120 ca        1 1A5      0.115600
      8 CAF         0.2650   -1.3330   -0.0610 ca        1 1A5     -0.185000
      9 CAD         1.6510   -1.2650    0.0070 ca        1 1A5     -0.059000
     10 CAM         2.3030   -0.0310    0.1150 ca        1 1A5     -0.171600
     11 CAK         3.7890   -0.0310    0.1890 c         1 1A5      0.674700
     12 OAB         4.4220   -0.9860    0.6870 o         1 1A5     -0.615100
     13 NAA         4.4730    1.0470   -0.3170 n         1 1A5     -0.674000
     14 CAE         1.5430    1.1400    0.1750 ca        1 1A5     -0.059000
     15 CAG         0.1550    1.0920    0.1130 ca        1 1A5     -0.185000
     16 H1         -4.6390   -1.4120    0.8650 h1        1 1A5      0.076200
     17 H2         -4.6820   -1.3500   -0.9760 h1        1 1A5      0.076200
     18 H3         -2.3580   -2.1070    0.7840 h1        1 1A5      0.068700
     19 H4         -2.4040   -2.0540   -1.0440 h1        1 1A5      0.068700
     20 H5         -0.2140   -2.3190   -0.1510 ha        1 1A5      0.156000
     21 H6          2.2520   -2.1900   -0.0140 ha        1 1A5      0.149500
     22 H7          5.4620    1.0470   -0.2940 hn        1 1A5      0.312500
     23 H8          4.0040    1.7810   -0.7790 hn        1 1A5      0.312500
     24 H9          2.0280    2.1220    0.2910 ha        1 1A5      0.149500
     25 H10        -0.4200    2.0330    0.1640 ha        1 1A5      0.156000
@<TRIPOS>BOND
     1    1    2 2   
     2    2    3 1   
     3    2    6 1   
     4    3    4 1   
     5    4    5 1   
     6    4   16 1   
     7    4   17 1   
     8    5    6 1   
     9    5   18 1   
    10    5   19 1   
    11    6    7 1   
    12    7    8 ar  
    13    7   15 ar  
    14    8    9 ar  
    15    8   20 1   
    16    9   10 ar  
    17    9   21 1   
    18   10   11 1   
    19   10   14 ar  
    20   11   12 2   
    21   11   13 1   
    22   13   22 1   
    23   13   23 1   
    24   14   15 ar  
    25   14   24 1   
    26   15   25 1   
@<TRIPOS>SUBSTRUCTURE
     1 1A5         1 TEMP              0 ****  ****    0 ROOT
