@<TRIPOS>MOLECULE
1A5
   26    27     1     0     0
SMALL
bcc


@<TRIPOS>ATOM
      1 OAC        -0.0470   -0.1730    0.2890 o         1 1A5     -0.553500
      2 CAL         1.1650   -0.0960    0.1130 c         1 1A5      0.835600
      3 OAJ         1.9990   -0.0670    1.2060 os        1 1A5     -0.357900
      4 CAH         3.3840    0.0260    0.7800 c3        1 1A5      0.111400
      5 CAI         3.3460    0.0560   -0.7640 c3        1 1A5      0.048000
      6 NAO         1.9260   -0.0250   -1.0890 n         1 1A5     -0.390000
      7 CAN         1.4310   -0.0290   -2.3740 ca        1 1A5      0.204600
      8 CAF         2.3100    0.0480   -3.4910 ca        1 1A5     -0.196500
      9 CAD         1.8140    0.0440   -4.7800 ca        1 1A5     -0.014500
     10 CAM         0.4260   -0.0360   -5.0250 ca        1 1A5     -0.272600
     11 CAK         0.0080   -0.0340   -6.4070 c         1 1A5      0.583700
     12 OAB         0.6720    0.0290   -7.4340 o         1 1A5     -0.439100
     13 NAA        -1.4920   -0.1210   -6.6780 n4        1 1A5     -0.763400
     14 CAE        -0.4510   -0.1130   -3.9250 ca        1 1A5     -0.014500
     15 CAG         0.0280   -0.1100   -2.6330 ca        1 1A5     -0.196500
     16 H1          3.7940    0.9670    1.2220 h1        1 1A5      0.096700
     17 H2          3.9070   -0.8750    1.1850 h1        1 1A5      0.096700
     18 H3          3.7860    1.0090   -1.1640 h1        1 1A5      0.082700
     19 H4          3.8980   -0.8200   -1.2010 h1        1 1A5      0.082700
     20 H5          3.4010    0.1120   -3.3410 ha        1 1A5      0.184000
     21 H6          2.5110    0.1040   -5.6360 ha        1 1A5      0.148500
     22 H7         -1.8670   -0.9870   -6.2830 hn        1 1A5      0.464800
     23 H8         -1.9700    0.6750   -6.2500 hn        1 1A5      0.464800
     24 H9         -1.5430   -0.1770   -4.0600 ha        1 1A5      0.148500
     25 H10        -0.6870   -0.1710   -1.7900 ha        1 1A5      0.184000
     26 HAA3       -1.6580   -0.1110   -7.6920 hn        1 1A5      0.464800
@<TRIPOS>BOND
     1    1    2 2   
     2    2    3 1   
     3    2    6 1   
     4    3    4 1   
     5    4    5 1   
     6    4   16 1   
     7    4   17 1   
     8    5    6 1   
     9    5   18 1   
    10    5   19 1   
    11    6    7 1   
    12    7    8 ar  
    13    7   15 ar  
    14    8    9 ar  
    15    8   20 1   
    16    9   10 ar  
    17    9   21 1   
    18   10   11 1   
    19   10   14 ar  
    20   11   12 2   
    21   11   13 1   
    22   13   22 1   
    23   13   23 1   
    24   13   26 1   
    25   14   15 ar  
    26   14   24 1   
    27   15   25 1   
@<TRIPOS>SUBSTRUCTURE
     1 1A5         1 TEMP              0 ****  ****    0 ROOT
