@<TRIPOS>MOLECULE
1A5
   26    27     1     0     0
SMALL
bcc


@<TRIPOS>ATOM
      1 OAC        -0.0480   -0.1700    0.2890 o         1 1A5     -0.553500
      2 CAL         1.1630   -0.0920    0.1140 c         1 1A5      0.835600
      3 OAJ         1.9970   -0.0610    1.2070 os        1 1A5     -0.357900
      4 CAH         3.3820    0.0320    0.7820 c3        1 1A5      0.111400
      5 CAI         3.3450    0.0590   -0.7630 c3        1 1A5      0.048000
      6 NAO         1.9250   -0.0220   -1.0890 n         1 1A5     -0.390000
      7 CAN         1.4310   -0.0280   -2.3740 ca        1 1A5      0.204600
      8 CAF         2.3100    0.0480   -3.4900 ca        1 1A5     -0.196500
      9 CAD         1.8150    0.0420   -4.7800 ca        1 1A5     -0.014500
     10 CAM         0.4270   -0.0400   -5.0250 ca        1 1A5     -0.272600
     11 CAK         0.0100   -0.0390   -6.4070 c         1 1A5      0.583700
     12 OAB         0.6750    0.0220   -7.4340 o         1 1A5     -0.439100
     13 NAA        -1.4900   -0.1270   -6.6800 nz        1 1A5     -0.763400
     14 CAE        -0.4510   -0.1150   -3.9250 ca        1 1A5     -0.014500
     15 CAG         0.0280   -0.1100   -2.6330 ca        1 1A5     -0.196500
     16 H1          3.7920    0.9740    1.2220 h1        1 1A5      0.096700
     17 H2          3.9050   -0.8690    1.1870 h1        1 1A5      0.096700
     18 H3          3.7850    1.0120   -1.1640 h1        1 1A5      0.082700
     19 H4          3.8970   -0.8170   -1.1990 h1        1 1A5      0.082700
     20 H5          3.4010    0.1120   -3.3400 ha        1 1A5      0.184000
     21 H6          2.5130    0.1010   -5.6360 ha        1 1A5      0.148500
     22 H7         -1.8640   -0.9920   -6.2840 hn        1 1A5      0.464800
     23 H8         -1.6550   -0.1180   -7.6930 hn        1 1A5      0.464800
     24 H9         -1.5420   -0.1790   -4.0610 ha        1 1A5      0.148500
     25 H10        -0.6880   -0.1700   -1.7910 ha        1 1A5      0.184000
     26 HAA3       -1.9680    0.6700   -6.2520 hn        1 1A5      0.464800
@<TRIPOS>BOND
     1    1    2 2   
     2    2    3 1   
     3    2    6 1   
     4    3    4 1   
     5    4    5 1   
     6    4   16 1   
     7    4   17 1   
     8    5    6 1   
     9    5   18 1   
    10    5   19 1   
    11    6    7 1   
    12    7    8 ar  
    13    7   15 ar  
    14    8    9 ar  
    15    8   20 1   
    16    9   10 ar  
    17    9   21 1   
    18   10   11 1   
    19   10   14 ar  
    20   11   12 2   
    21   11   13 1   
    22   13   22 1   
    23   13   23 1   
    24   13   26 1   
    25   14   15 ar  
    26   14   24 1   
    27   15   25 1   
@<TRIPOS>SUBSTRUCTURE
     1 1A5         1 TEMP              0 ****  ****    0 ROOT
