@<TRIPOS>MOLECULE
1A6
   27    29     1     0     0
SMALL
bcc


@<TRIPOS>ATOM
      1 CAA         0.1380    0.0740   -0.0820 c3        1 1A6     -0.133400
      2 CAM         1.5810   -0.2130   -0.0090 cc        1 1A6      0.317600
      3 CAF         2.4430    0.1480    1.1190 cc        1 1A6     -0.332600
      4 NAJ         2.3310   -0.8370   -0.9430 nd        1 1A6     -0.353300
      5 OAK         3.5760   -0.9110   -0.5250 os        1 1A6     -0.117100
      6 CAN         3.6940   -0.3110    0.7590 cd        1 1A6      0.256000
      7 CAG         5.0240   -0.2960    1.3550 c3        1 1A6     -0.076600
      8 SAL         4.9880   -1.4520    2.7120 ss        1 1A6     -0.089300
      9 CAO         6.5430   -1.3270    3.3210 cc        1 1A6      0.196700
     10 NAH         7.1330   -0.2410    3.9450 nd        1 1A6     -0.294700
     11 NAI         8.3430   -0.5050    4.3180 nd        1 1A6     -0.081000
     12 CAP         8.6440   -1.8190    3.9710 cc        1 1A6     -0.072300
     13 NAQ         7.5020   -2.3620    3.3120 na        1 1A6     -0.033200
     14 CAE         7.4970   -3.6640    2.8690 cc        1 1A6     -0.065300
     15 CAC         8.6170   -4.4460    3.0520 cd        1 1A6     -0.153000
     16 CAB         9.7730   -3.9270    3.7020 cd        1 1A6     -0.114000
     17 CAD         9.8000   -2.6350    4.1610 cc        1 1A6     -0.083000
     18 H1         -0.3160   -0.3000   -1.0330 hc        1 1A6      0.059367
     19 H2         -0.3830   -0.4140    0.7790 hc        1 1A6      0.059367
     20 H3         -0.0250    1.1790   -0.0190 hc        1 1A6      0.059367
     21 H4          2.1330    0.6600    2.0240 ha        1 1A6      0.182000
     22 H5          5.8000   -0.5860    0.6030 h1        1 1A6      0.100700
     23 H6          5.2710    0.7300    1.7300 h1        1 1A6      0.100700
     24 H7          6.5730   -4.0150    2.3770 h4        1 1A6      0.185000
     25 H8          8.6170   -5.4850    2.6920 ha        1 1A6      0.159000
     26 H9         10.6460   -4.5850    3.8300 ha        1 1A6      0.151000
     27 H10        10.6690   -2.1960    4.6710 ha        1 1A6      0.171000
@<TRIPOS>BOND
     1    1    2 1   
     2    1   18 1   
     3    1   19 1   
     4    1   20 1   
     5    2    3 1   
     6    2    4 2   
     7    3    6 2   
     8    3   21 1   
     9    4    5 1   
    10    5    6 1   
    11    6    7 1   
    12    7    8 1   
    13    7   22 1   
    14    7   23 1   
    15    8    9 1   
    16    9   10 2   
    17    9   13 1   
    18   10   11 1   
    19   11   12 2   
    20   12   13 1   
    21   12   17 1   
    22   13   14 1   
    23   14   15 2   
    24   14   24 1   
    25   15   16 1   
    26   15   25 1   
    27   16   17 2   
    28   16   26 1   
    29   17   27 1   
@<TRIPOS>SUBSTRUCTURE
     1 1A6         1 TEMP              0 ****  ****    0 ROOT
