@<TRIPOS>MOLECULE
1A6
   27    29     1     0     0
SMALL
bcc


@<TRIPOS>ATOM
      1 CAA         6.0060    0.7550    0.8590 c3        1 1A6     -0.133400
      2 CAM         4.6870    0.5250    0.2440 cc        1 1A6      0.317600
      3 CAF         3.6010   -0.2330    0.8710 cc        1 1A6     -0.332600
      4 NAJ         4.2700    0.9590   -0.9640 nd        1 1A6     -0.353300
      5 OAK         3.0350    0.5580   -1.1690 os        1 1A6     -0.117100
      6 CAN         2.5740   -0.1880   -0.0500 cd        1 1A6      0.256000
      7 CAG         1.2200   -0.7200   -0.1310 c3        1 1A6     -0.076600
      8 SAL         0.2320    0.2170    1.0200 ss        1 1A6     -0.089300
      9 CAO        -1.2740   -0.4960    0.8550 cc        1 1A6      0.196700
     10 NAH        -1.6560   -1.7810    1.2010 nd        1 1A6     -0.294700
     11 NAI        -2.9090   -1.9880    0.9610 nd        1 1A6     -0.081000
     12 CAP        -3.4650   -0.8230    0.4380 cc        1 1A6     -0.072300
     13 NAQ        -2.4230    0.1460    0.3450 na        1 1A6     -0.033200
     14 CAE        -2.6790    1.4130   -0.1220 cc        1 1A6     -0.065300
     15 CAC        -3.9570    1.7430   -0.5200 cd        1 1A6     -0.153000
     16 CAB        -5.0140    0.7920   -0.4440 cd        1 1A6     -0.114000
     17 CAD        -4.7860   -0.4760    0.0270 cc        1 1A6     -0.083000
     18 H1          6.5020   -0.2290    1.0570 hc        1 1A6      0.059367
     19 H2          6.6740    1.3650    0.2020 hc        1 1A6      0.059367
     20 H3          5.8750    1.2910    1.8320 hc        1 1A6      0.059367
     21 H4          3.6310   -0.7090    1.8460 ha        1 1A6      0.182000
     22 H5          0.8170   -0.6280   -1.1710 h1        1 1A6      0.100700
     23 H6          1.2110   -1.8050    0.1490 h1        1 1A6      0.100700
     24 H7         -1.8230    2.1110   -0.1550 h4        1 1A6      0.185000
     25 H8         -4.1610    2.7540   -0.9010 ha        1 1A6      0.159000
     26 H9         -6.0210    1.0960   -0.7690 ha        1 1A6      0.151000
     27 H10        -5.5740   -1.2380    0.1070 ha        1 1A6      0.171000
@<TRIPOS>BOND
     1    1    2 1   
     2    1   18 1   
     3    1   19 1   
     4    1   20 1   
     5    2    3 1   
     6    2    4 2   
     7    3    6 2   
     8    3   21 1   
     9    4    5 1   
    10    5    6 1   
    11    6    7 1   
    12    7    8 1   
    13    7   22 1   
    14    7   23 1   
    15    8    9 1   
    16    9   10 2   
    17    9   13 1   
    18   10   11 1   
    19   11   12 2   
    20   12   13 1   
    21   12   17 1   
    22   13   14 1   
    23   14   15 2   
    24   14   24 1   
    25   15   16 1   
    26   15   25 1   
    27   16   17 2   
    28   16   26 1   
    29   17   27 1   
@<TRIPOS>SUBSTRUCTURE
     1 1A6         1 TEMP              0 ****  ****    0 ROOT
