@<TRIPOS>MOLECULE
1A6
   27    24     1     0     0
SMALL
bcc


@<TRIPOS>ATOM
      1 CAA        -0.4000    5.9160    1.1240 c3        1 1A6     -0.157000
      2 CAM        -0.6210    4.6740    0.2900 c2        1 1A6     -0.105000
      3 CAF        -0.5690    3.3730    0.7440 c1        1 1A6     -0.202000
      4 NAJ        -0.8650    4.6430   -1.0370 n2        1 1A6     -0.018000
      5 OAK        -0.9670    3.3120   -1.4240 os        1 1A6     -0.060000
      6 CAN        -0.7850    2.5410   -0.3260 c1        1 1A6     -0.033000
      7 CAG        -0.8540    1.0300   -0.2790 c2        1 1A6     -0.243000
      8 SAL         0.5960    0.3480   -1.0360 ss        1 1A6      0.317000
      9 CAO         0.5430   -1.4210   -0.9280 c2        1 1A6     -0.354000
     10 NAH         0.6330   -1.5680   -2.2670 n2        1 1A6     -0.007000
     11 NAI         0.7340   -2.8900   -2.5380 n2        1 1A6     -0.081000
     12 CAP         0.7070   -3.5640   -1.3580 c1        1 1A6     -0.048000
     13 NAQ         0.5890   -2.6590   -0.3650 n2        1 1A6     -0.043000
     14 CAE         0.5350   -3.0790    0.9520 c1        1 1A6     -0.041000
     15 CAC         0.6020   -4.4320    1.2530 c1        1 1A6     -0.133500
     16 CAB         0.7220   -5.3510    0.2460 c1        1 1A6     -0.133500
     17 CAD         0.7750   -4.9350   -1.0550 c1        1 1A6     -0.083000
     18 H1          0.4940    5.8860    1.5240 hc        1 1A6      0.098667
     19 H2         -1.0750    5.9580    1.8340 hc        1 1A6      0.098667
     20 H3         -0.4770    6.7100    0.5550 hc        1 1A6      0.098667
     21 H4         -0.4080    3.0930    1.6650 DU        1 1A6      0.182000
     22 H5         -1.6480    0.7250   -0.7620 h4        1 1A6      0.140000
     23 H6         -0.9060    0.7350    0.6520 h4        1 1A6      0.140000
     24 H7          0.4490   -2.4230    1.6700 ha        1 1A6      0.185000
     25 H8          0.5640   -4.7280    2.1820 ha        1 1A6      0.155000
     26 H9          0.7700   -6.3030    0.4570 ha        1 1A6      0.155000
     27 H10         0.8610   -5.5910   -1.7730 ha        1 1A6      0.171000
@<TRIPOS>BOND
     1    1    2 1   
     2    1   18 1   
     3    1   19 1   
     4    1   20 1   
     5    2    3 1   
     6    2    4 1   
     7    3    6 1   
     8    4    5 1   
     9    5    6 1   
    10    7    8 1   
    11    7   22 1   
    12    7   23 1   
    13    8    9 1   
    14    9   10 1   
    15    9   13 1   
    16   10   11 1   
    17   11   12 1   
    18   12   17 1   
    19   13   14 1   
    20   14   24 1   
    21   15   16 1   
    22   15   25 1   
    23   16   26 1   
    24   17   27 1   
@<TRIPOS>SUBSTRUCTURE
     1 1A6         1 TEMP              0 ****  ****    0 ROOT
