@<TRIPOS>MOLECULE
1A6
   27    29     1     0     0
SMALL
bcc


@<TRIPOS>ATOM
      1 CAA         0.1450    0.0460   -0.1190 c3        1 1A6     -0.133400
      2 CAM         1.5910   -0.2240   -0.0340 cc        1 1A6      0.317600
      3 CAF         2.4340    0.1270    1.1110 cc        1 1A6     -0.332600
      4 NAJ         2.3590   -0.8220   -0.9700 nd        1 1A6     -0.353300
      5 OAK         3.6000   -0.8880   -0.5380 os        1 1A6     -0.117100
      6 CAN         3.6950   -0.3100    0.7570 cd        1 1A6      0.256000
      7 CAG         5.0170   -0.2900    1.3700 c3        1 1A6     -0.076600
      8 SAL         4.9800   -1.4690    2.7060 ss        1 1A6     -0.089300
      9 CAO         6.5250   -1.3360    3.3370 cc        1 1A6      0.196700
     10 NAH         7.0950   -0.2540    3.9860 nd        1 1A6     -0.294700
     11 NAI         8.3040   -0.5100    4.3690 nd        1 1A6     -0.081000
     12 CAP         8.6250   -1.8140    4.0040 cc        1 1A6     -0.072300
     13 NAQ         7.4980   -2.3590    3.3210 na        1 1A6     -0.033200
     14 CAE         7.5130   -3.6530    2.8570 cc        1 1A6     -0.065300
     15 CAC         8.6410   -4.4250    3.0400 cd        1 1A6     -0.153000
     16 CAB         9.7830   -3.9030    3.7120 cd        1 1A6     -0.114000
     17 CAD         9.7880   -2.6180    4.1930 cc        1 1A6     -0.083000
     18 H1         -0.2900   -0.3010   -1.0890 hc        1 1A6      0.059367
     19 H2         -0.3820   -0.4790    0.7170 hc        1 1A6      0.059367
     20 H3         -0.0350    1.1460   -0.0200 hc        1 1A6      0.059367
     21 H4          2.1070    0.6200    2.0210 ha        1 1A6      0.182000
     22 H5          5.8060   -0.5570    0.6220 h1        1 1A6      0.100700
     23 H6          5.2470    0.7330    1.7650 h1        1 1A6      0.100700
     24 H7          6.5990   -4.0070    2.3470 h4        1 1A6      0.185000
     25 H8          8.6570   -5.4570    2.6620 ha        1 1A6      0.159000
     26 H9         10.6610   -4.5530    3.8410 ha        1 1A6      0.151000
     27 H10        10.6460   -2.1780    4.7220 ha        1 1A6      0.171000
@<TRIPOS>BOND
     1    1    2 1   
     2    1   18 1   
     3    1   19 1   
     4    1   20 1   
     5    2    3 1   
     6    2    4 2   
     7    3    6 2   
     8    3   21 1   
     9    4    5 1   
    10    5    6 1   
    11    6    7 1   
    12    7    8 1   
    13    7   22 1   
    14    7   23 1   
    15    8    9 1   
    16    9   10 2   
    17    9   13 1   
    18   10   11 1   
    19   11   12 2   
    20   12   13 1   
    21   12   17 1   
    22   13   14 1   
    23   14   15 2   
    24   14   24 1   
    25   15   16 1   
    26   15   25 1   
    27   16   17 2   
    28   16   26 1   
    29   17   27 1   
@<TRIPOS>SUBSTRUCTURE
     1 1A6         1 TEMP              0 ****  ****    0 ROOT
