@<TRIPOS>MOLECULE
1A7
   19    20     1     0     0
SMALL
bcc


@<TRIPOS>ATOM
      1 FAB         1.4380   -2.0430    0.5870 f         1 1A7     -0.130900
      2 CAJ         1.9020   -0.8060    0.2950 ca        1 1A7      0.149900
      3 CAE         3.2930   -0.5800    0.3290 ca        1 1A7     -0.165000
      4 CAC         3.7970    0.6810    0.0350 ca        1 1A7     -0.094000
      5 CAD         2.9310    1.7240   -0.2970 ca        1 1A7     -0.142000
      6 CAF         1.5570    1.5080   -0.3310 ca        1 1A7     -0.095000
      7 CAL         1.0180    0.2470   -0.0350 ca        1 1A7     -0.080800
      8 CAK        -0.4250    0.0350   -0.0860 cc        1 1A7      0.052400
      9 CAG        -1.0620   -1.0760   -0.5770 cd        1 1A7     -0.175400
     10 SAI        -2.7470   -0.9490   -0.4900 ss        1 1A7     -0.057200
     11 CAM        -2.6630    0.6590    0.2480 c         1 1A7      0.677100
     12 OAA        -3.5960    1.3910    0.6060 o         1 1A7     -0.588500
     13 NAH        -1.3160    1.0210    0.3730 n         1 1A7     -0.470100
     14 H1          3.9640   -1.4110    0.5910 ha        1 1A7      0.154000
     15 H2          4.8840    0.8540    0.0620 ha        1 1A7      0.143000
     16 H3          3.3350    2.7200   -0.5340 ha        1 1A7      0.143000
     17 H4          0.8870    2.3370   -0.6100 ha        1 1A7      0.143000
     18 H5         -0.5590   -1.9570   -0.9720 h4        1 1A7      0.191000
     19 H6         -1.0120    1.8600    0.8030 hn        1 1A7      0.345500
@<TRIPOS>BOND
     1    1    2 1   
     2    2    3 ar  
     3    2    7 ar  
     4    3    4 ar  
     5    3   14 1   
     6    4    5 ar  
     7    4   15 1   
     8    5    6 ar  
     9    5   16 1   
    10    6    7 ar  
    11    6   17 1   
    12    7    8 1   
    13    8    9 2   
    14    8   13 1   
    15    9   10 1   
    16    9   18 1   
    17   10   11 1   
    18   11   12 2   
    19   11   13 1   
    20   13   19 1   
@<TRIPOS>SUBSTRUCTURE
     1 1A7         1 TEMP              0 ****  ****    0 ROOT
