@<TRIPOS>MOLECULE
1A7
   19    20     1     0     0
SMALL
bcc


@<TRIPOS>ATOM
      1 FAB         0.0470    0.4890   -0.0170 f         1 1A7     -0.130900
      2 CAJ         1.3760    0.2330   -0.0180 ca        1 1A7      0.149900
      3 CAE         2.0750    0.2760    1.2050 ca        1 1A7     -0.165000
      4 CAC         3.4400    0.0180    1.2320 ca        1 1A7     -0.094000
      5 CAD         4.1210   -0.2860    0.0520 ca        1 1A7     -0.142000
      6 CAF         3.4370   -0.3300   -1.1590 ca        1 1A7     -0.095000
      7 CAL         2.0600   -0.0700   -1.2190 ca        1 1A7     -0.080800
      8 CAK         1.3560   -0.1300   -2.4950 cc        1 1A7      0.052400
      9 CAG         0.1050   -0.6520   -2.7060 cd        1 1A7     -0.175400
     10 SAI        -0.3700   -0.5660   -4.3270 ss        1 1A7     -0.057200
     11 CAM         1.1450    0.2160   -4.8080 c         1 1A7      0.677100
     12 OAA         1.4930    0.5920   -5.9350 o         1 1A7     -0.588500
     13 NAH         1.9540    0.3540   -3.6720 ns        1 1A7     -0.470100
     14 H1          1.5260    0.5160    2.1270 ha        1 1A7      0.154000
     15 H2          3.9830    0.0520    2.1890 ha        1 1A7      0.143000
     16 H3          5.2010   -0.4960    0.0790 ha        1 1A7      0.143000
     17 H4          3.9850   -0.5880   -2.0790 ha        1 1A7      0.143000
     18 H5         -0.5330   -1.0700   -1.9280 h4        1 1A7      0.191000
     19 H6          2.8340    0.8070   -3.6790 hn        1 1A7      0.345500
@<TRIPOS>BOND
     1    1    2 1   
     2    2    3 ar  
     3    2    7 ar  
     4    3    4 ar  
     5    3   14 1   
     6    4    5 ar  
     7    4   15 1   
     8    5    6 ar  
     9    5   16 1   
    10    6    7 ar  
    11    6   17 1   
    12    7    8 1   
    13    8    9 2   
    14    8   13 1   
    15    9   10 1   
    16    9   18 1   
    17   10   11 1   
    18   11   12 2   
    19   11   13 1   
    20   13   19 1   
@<TRIPOS>SUBSTRUCTURE
     1 1A7         1 TEMP              0 ****  ****    0 ROOT
