@<TRIPOS>MOLECULE
1A7
   19    20     1     0     0
SMALL
bcc


@<TRIPOS>ATOM
      1 FAB         0.0440    0.4690   -0.0130 f         1 1A7     -0.130900
      2 CAJ         1.3750    0.2260   -0.0170 ca        1 1A7      0.149900
      3 CAE         2.0760    0.2780    1.2040 ca        1 1A7     -0.165000
      4 CAC         3.4440    0.0330    1.2300 ca        1 1A7     -0.094000
      5 CAD         4.1260   -0.2650    0.0490 ca        1 1A7     -0.142000
      6 CAF         3.4400   -0.3160   -1.1610 ca        1 1A7     -0.095000
      7 CAL         2.0610   -0.0700   -1.2190 ca        1 1A7     -0.080800
      8 CAK         1.3550   -0.1380   -2.4940 cc        1 1A7      0.052400
      9 CAG         0.1100   -0.6730   -2.7020 cd        1 1A7     -0.175400
     10 SAI        -0.3690   -0.5930   -4.3230 ss        1 1A7     -0.057200
     11 CAM         1.1370    0.2050   -4.8060 c         1 1A7      0.677100
     12 OAA         1.4790    0.5840   -5.9350 o         1 1A7     -0.588500
     13 NAH         1.9460    0.3520   -3.6720 n         1 1A7     -0.470100
     14 H1          1.5260    0.5120    2.1280 ha        1 1A7      0.154000
     15 H2          3.9880    0.0740    2.1860 ha        1 1A7      0.143000
     16 H3          5.2080   -0.4630    0.0740 ha        1 1A7      0.143000
     17 H4          3.9890   -0.5680   -2.0820 ha        1 1A7      0.143000
     18 H5         -0.5230   -1.0970   -1.9230 h4        1 1A7      0.191000
     19 H6          2.8210    0.8140   -3.6800 hn        1 1A7      0.345500
@<TRIPOS>BOND
     1    1    2 1   
     2    2    3 ar  
     3    2    7 ar  
     4    3    4 ar  
     5    3   14 1   
     6    4    5 ar  
     7    4   15 1   
     8    5    6 ar  
     9    5   16 1   
    10    6    7 ar  
    11    6   17 1   
    12    7    8 1   
    13    8    9 2   
    14    8   13 1   
    15    9   10 1   
    16    9   18 1   
    17   10   11 1   
    18   11   12 2   
    19   11   13 1   
    20   13   19 1   
@<TRIPOS>SUBSTRUCTURE
     1 1A7         1 TEMP              0 ****  ****    0 ROOT
