@<TRIPOS>MOLECULE
1A7
   19    15     1     0     0
SMALL
bcc


@<TRIPOS>ATOM
      1 FAB        -1.7100    0.0700    1.3450 f         1 1A7     -0.104000
      2 CAJ        -0.3710    0.0540    1.3220 c1        1 1A7      0.102000
      3 CAE         0.3410   -0.0030    2.5090 c1        1 1A7     -0.120750
      4 CAC         1.7260   -0.0600    2.4850 c1        1 1A7     -0.120750
      5 CAD         2.3980   -0.0580    1.2730 c1        1 1A7     -0.120750
      6 CAF         1.6860   -0.0000    0.0850 c1        1 1A7     -0.120750
      7 CAL         0.3010    0.0560    0.1100 c1        1 1A7     -0.066000
      8 CAK        -0.4750    0.1560   -1.1840 c2        1 1A7      0.048000
      9 CAG        -1.0950    1.3590   -1.5360 c1        1 1A7     -0.433000
     10 SAI        -2.3080    1.1820   -2.4570 s         1 1A7      0.359000
     11 CAM        -2.3960   -0.5380   -2.6790 c1        1 1A7      0.155000
     12 OAA        -2.9530   -1.1120   -3.5930 o         1 1A7     -0.309000
     13 NAH        -1.1410   -1.1190   -1.7980 n2        1 1A7     -0.306000
     14 H1         -0.1320   -0.0040    3.3630 ha        1 1A7      0.147250
     15 H2          2.2280   -0.1000    3.3210 ha        1 1A7      0.147250
     16 H3          3.3730   -0.0980    1.2550 ha        1 1A7      0.147250
     17 H4          2.1590    0.0010   -0.7680 ha        1 1A7      0.147250
     18 H5         -0.5760    2.1850   -1.5660 ha        1 1A7      0.183000
     19 H6         -1.0540   -1.9720   -1.4860 hn        1 1A7      0.267000
@<TRIPOS>BOND
     1    1    2 1   
     2    2    7 1   
     3    3    4 1   
     4    3   14 1   
     5    4   15 1   
     6    5    6 1   
     7    5   16 1   
     8    6   17 1   
     9    7    8 1   
    10    8    9 1   
    11    8   13 1   
    12    9   18 1   
    13   10   11 1   
    14   11   12 1   
    15   13   19 1   
@<TRIPOS>SUBSTRUCTURE
     1 1A7         1 TEMP              0 ****  ****    0 ROOT
