@<TRIPOS>MOLECULE
1A8
   44    46     1     0     0
SMALL
bcc


@<TRIPOS>ATOM
      1 CAA        -4.5020    6.2870   -0.5730 c3        1 1A8     -0.095100
      2 CAM        -4.0140    4.9920    0.0220 c3        1 1A8     -0.076400
      3 CAN        -2.6520    4.6200   -0.5250 c3        1 1A8     -0.150400
      4 CAT        -2.1670    3.3110    0.0770 c         1 1A8      0.661100
      5 OAB        -2.8300    2.6750    0.9110 o         1 1A8     -0.561100
      6 NAO        -0.9260    2.8660   -0.3840 n         1 1A8     -0.485100
      7 CAU        -0.2470    1.7150    0.0460 ca        1 1A8      0.097600
      8 CAJ        -0.9320    0.5860    0.5370 ca        1 1A8     -0.174000
      9 CAK         1.1640    1.6900   -0.0460 ca        1 1A8     -0.193000
     10 CAW         1.8680    0.5560    0.3620 ca        1 1A8     -0.004800
     11 CAX         3.3290    0.5260    0.2920 cc        1 1A8      0.057400
     12 CAI         4.1600   -0.0360    1.2270 cd        1 1A8     -0.189400
     13 SAS         5.7950    0.1170    0.8150 ss        1 1A8     -0.060200
     14 CAZ         5.4130    0.9660   -0.6920 c         1 1A8      0.677100
     15 OAC         6.1930    1.3990   -1.5510 o         1 1A8     -0.588500
     16 NAQ         4.0210    1.0960   -0.7870 n         1 1A8     -0.470100
     17 CAL         1.1950   -0.5640    0.8540 ca        1 1A8     -0.170000
     18 CAV        -0.2140   -0.5590    0.9370 ca        1 1A8      0.185600
     19 NAP        -0.8800   -1.6940    1.4290 nh        1 1A8     -0.774500
     20 SBA        -2.2610   -2.3840    0.8810 sy        1 1A8      1.557200
     21 OAD        -2.6780   -3.2880    1.8800 o         1 1A8     -0.646800
     22 OAE        -3.1840   -1.4080    0.4690 o         1 1A8     -0.646800
     23 CAY        -1.7580   -3.2420   -0.4470 cc        1 1A8     -0.511600
     24 SAR        -1.6280   -2.7800   -2.0300 ss        1 1A8      0.284200
     25 CAG        -1.1250   -4.2350   -2.5790 cc        1 1A8     -0.181100
     26 CAF        -1.0370   -5.1730   -1.5530 cd        1 1A8     -0.180000
     27 CAH        -1.4050   -4.5970   -0.3180 cd        1 1A8     -0.029000
     28 H1         -5.5060    6.5440   -0.1580 hc        1 1A8      0.035700
     29 H2         -3.7990    7.1220   -0.3380 hc        1 1A8      0.035700
     30 H3         -4.5900    6.2060   -1.6840 hc        1 1A8      0.035700
     31 H4         -3.9550    5.0780    1.1390 hc        1 1A8      0.062200
     32 H5         -4.7410    4.1660   -0.2000 hc        1 1A8      0.062200
     33 H6         -2.7070    4.5150   -1.6410 hc        1 1A8      0.064200
     34 H7         -1.9140    5.4310   -0.2900 hc        1 1A8      0.064200
     35 H8         -0.3930    3.5000   -0.9360 hn        1 1A8      0.314500
     36 H9         -2.0380    0.6050    0.6190 ha        1 1A8      0.205000
     37 H10         1.7110    2.5700   -0.4140 ha        1 1A8      0.136000
     38 H11         3.8320   -0.5200    2.1450 h4        1 1A8      0.186000
     39 H12         1.7740   -1.4440    1.1740 ha        1 1A8      0.144000
     40 H13        -0.3730   -2.1480    2.1580 hn        1 1A8      0.453800
     41 H14        -0.8910   -4.4480   -3.6240 h4        1 1A8      0.181000
     42 H15        -0.7310   -6.2140   -1.6770 ha        1 1A8      0.164000
     43 H16        -1.4370   -5.1440    0.6310 ha        1 1A8      0.177000
     44 H17         3.5610    1.5110   -1.5600 hn        1 1A8      0.345500
@<TRIPOS>BOND
     1    1    2 1   
     2    1   28 1   
     3    1   29 1   
     4    1   30 1   
     5    2    3 1   
     6    2   31 1   
     7    2   32 1   
     8    3    4 1   
     9    3   33 1   
    10    3   34 1   
    11    4    5 2   
    12    4    6 1   
    13    6    7 1   
    14    6   35 1   
    15    7    8 ar  
    16    7    9 ar  
    17    8   18 ar  
    18    8   36 1   
    19    9   10 ar  
    20    9   37 1   
    21   10   11 1   
    22   10   17 ar  
    23   11   12 2   
    24   11   16 1   
    25   12   13 1   
    26   12   38 1   
    27   13   14 1   
    28   14   15 2   
    29   14   16 1   
    30   16   44 1   
    31   17   18 ar  
    32   17   39 1   
    33   18   19 1   
    34   19   20 1   
    35   19   40 1   
    36   20   21 2   
    37   20   22 2   
    38   20   23 1   
    39   23   24 1   
    40   23   27 2   
    41   24   25 1   
    42   25   26 2   
    43   25   41 1   
    44   26   27 1   
    45   26   42 1   
    46   27   43 1   
@<TRIPOS>SUBSTRUCTURE
     1 1A8         1 TEMP              0 ****  ****    0 ROOT
