@<TRIPOS>MOLECULE
1A8
   46    47     1     0     0
SMALL
bcc


@<TRIPOS>ATOM
      1 CAA         1.2480   -2.4050   -0.7860 c3        1 1A8     -0.106100
      2 CAM         2.0630   -1.1450   -0.6390 c3        1 1A8     -0.079400
      3 CAN         2.3380   -0.8670    0.8300 c3        1 1A8     -0.151400
      4 CAT         3.1270    0.3950    0.9860 c         1 1A8      0.567100
      5 OAB         3.5060    1.2010    0.1580 o         1 1A8     -0.403100
      6 NAO         3.5060    0.7510    2.4380 n4        1 1A8     -0.569200
      7 CAU         4.9170    0.4680    2.7210 ca        1 1A8     -0.012400
      8 CAJ         5.9070    1.2420    2.0920 ca        1 1A8     -0.130000
      9 CAK         5.2510   -0.5610    3.6120 ca        1 1A8     -0.110000
     10 CAW         6.6040   -0.8260    3.8760 ca        1 1A8      0.048200
     11 CAX         6.9840   -1.9080    4.7720 cc        1 1A8     -0.030600
     12 CAI         8.0730   -2.7330    4.5970 cd        1 1A8     -0.154400
     13 SAS         8.2030   -3.9040    5.7860 ss        1 1A8      0.063800
     14 CAZ         6.7670   -3.3060    6.6450 c         1 1A8      0.666100
     15 OAC         6.2620   -3.7130    7.6920 o         1 1A8     -0.521500
     16 NAQ         6.2200   -2.2380    5.9030 n         1 1A8     -0.474100
     17 CAL         7.6020   -0.0630    3.2560 ca        1 1A8     -0.095000
     18 CAV         7.2620    0.9790    2.3700 ca        1 1A8      0.074600
     19 NAP         8.2840    1.8010    1.8000 nh        1 1A8     -0.868200
     20 SBA         8.8150    3.8150    3.2730 s4        1 1A8      1.743300
     21 OAD         7.5460    4.2390    3.0530 o         1 1A8     -0.435900
     22 OAE         9.1300    2.9720    4.2840 o         1 1A8     -0.435900
     23 CAY         9.9420    4.4450    2.4800 cc        1 1A8     -0.804600
     24 SAR        11.6140    4.3080    2.5730 ss        1 1A8      0.497200
     25 CAG        11.9480    5.3720    1.4350 cc        1 1A8     -0.128100
     26 CAF        10.7840    5.9480    0.8640 cd        1 1A8     -0.139000
     27 CAH         9.6460    5.4280    1.4510 cd        1 1A8     -0.005000
     28 H1          1.7890   -3.2850   -0.3630 hc        1 1A8      0.060367
     29 H2          0.2630   -2.3080   -0.2670 hc        1 1A8      0.060367
     30 H3          1.0540   -2.5990   -1.8700 hc        1 1A8      0.060367
     31 H4          3.0340   -1.2490   -1.1910 hc        1 1A8      0.071700
     32 H5          1.5130   -0.2770   -1.0900 hc        1 1A8      0.071700
     33 H6          1.3620   -0.7650    1.3840 hc        1 1A8      0.108200
     34 H7          2.9080   -1.7260    1.2810 hc        1 1A8      0.108200
     35 H8          3.3430    1.7560    2.5880 hn        1 1A8      0.466800
     36 H9          5.6240    2.0440    1.3860 ha        1 1A8      0.175000
     37 H10         4.4730   -1.1780    4.0960 ha        1 1A8      0.173000
     38 H11         8.7770   -2.6670    3.7650 h4        1 1A8      0.185000
     39 H12         8.6590   -0.2870    3.4850 ha        1 1A8      0.178000
     40 H13         9.1280    1.2650    1.6750 hn        1 1A8      0.406300
     41 H14        12.9600    5.6620    1.1070 h4        1 1A8      0.239000
     42 H15        10.7980    6.7070    0.0700 ha        1 1A8      0.216000
     43 H16         8.6180    5.7230    1.1980 ha        1 1A8      0.200000
     44 H17         5.5230   -1.6390    6.2710 hn        1 1A8      0.340500
     45 HAO2        2.9140    0.2190    3.0860 hn        1 1A8      0.466800
     46 HAP2        7.9860    2.1630    0.9080 hn        1 1A8      0.406300
@<TRIPOS>BOND
     1    1    2 1   
     2    1   28 1   
     3    1   29 1   
     4    1   30 1   
     5    2    3 1   
     6    2   31 1   
     7    2   32 1   
     8    3    4 1   
     9    3   33 1   
    10    3   34 1   
    11    4    5 2   
    12    4    6 1   
    13    6    7 1   
    14    6   35 1   
    15    6   45 1   
    16    7    8 ar  
    17    7    9 ar  
    18    8   18 ar  
    19    8   36 1   
    20    9   10 ar  
    21    9   37 1   
    22   10   11 1   
    23   10   17 ar  
    24   11   12 2   
    25   11   16 1   
    26   12   13 1   
    27   12   38 1   
    28   13   14 1   
    29   14   15 2   
    30   14   16 1   
    31   16   44 1   
    32   17   18 ar  
    33   17   39 1   
    34   18   19 1   
    35   19   40 1   
    36   19   46 1   
    37   20   21 1   
    38   20   22 1   
    39   20   23 1   
    40   23   24 1   
    41   23   27 2   
    42   24   25 1   
    43   25   26 2   
    44   25   41 1   
    45   26   27 1   
    46   26   42 1   
    47   27   43 1   
@<TRIPOS>SUBSTRUCTURE
     1 1A8         1 TEMP              0 ****  ****    0 ROOT
