@<TRIPOS>MOLECULE
1A8
   44    46     1     0     0
SMALL
bcc


@<TRIPOS>ATOM
      1 CAA        -0.2980   -0.0780    0.2280 c3        1 1A8     -0.095100
      2 CAM         1.1980   -0.0090    0.0700 c3        1 1A8     -0.076400
      3 CAN         1.8950   -0.1550    1.4060 c3        1 1A8     -0.150400
      4 CAT         3.4030   -0.0810    1.2410 c         1 1A8      0.661100
      5 OAB         3.9460    0.0730    0.1360 o         1 1A8     -0.562100
      6 NAO         4.1400   -0.1890    2.4220 ns        1 1A8     -0.487100
      7 CAU         5.5400   -0.1730    2.5290 ca        1 1A8      0.097600
      8 CAJ         6.3500    0.5160    1.6040 ca        1 1A8     -0.174000
      9 CAK         6.1420   -0.8480    3.6170 ca        1 1A8     -0.192000
     10 CAW         7.5290   -0.8340    3.7630 ca        1 1A8     -0.005800
     11 CAX         8.1630   -1.5250    4.8860 cc        1 1A8      0.058400
     12 CAI         9.2450   -1.0680    5.5940 cd        1 1A8     -0.191400
     13 SAS         9.7070   -2.1310    6.8280 ss        1 1A8     -0.063200
     14 CAZ         8.4250   -3.2840    6.4170 c         1 1A8      0.678100
     15 OAC         8.1660   -4.3700    6.9520 o         1 1A8     -0.586500
     16 NAQ         7.6880   -2.7640    5.3440 ns        1 1A8     -0.469100
     17 CAL         8.3360   -0.1520    2.8510 ca        1 1A8     -0.169000
     18 CAV         7.7500    0.5370    1.7670 ca        1 1A8      0.185600
     19 NAP         8.5720    1.2230    0.8590 nu        1 1A8     -0.775500
     20 SBA         8.3270    2.6890    0.1700 sy        1 1A8      1.557200
     21 OAD         9.2760    2.8050   -0.8670 o         1 1A8     -0.646800
     22 OAE         6.9760    2.8690   -0.1690 o         1 1A8     -0.646800
     23 CAY         8.7210    3.7510    1.3840 cc        1 1A8     -0.511600
     24 SAR         7.7780    4.4150    2.5690 ss        1 1A8      0.285200
     25 CAG         8.9650    5.3280    3.2240 cc        1 1A8     -0.183100
     26 CAF        10.1710    5.1720    2.5450 cd        1 1A8     -0.180000
     27 CAH        10.0290    4.2590    1.4780 cd        1 1A8     -0.029000
     28 H1         -0.6650    0.7390    0.8960 hc        1 1A8      0.036033
     29 H2         -0.7930    0.0320   -0.7670 hc        1 1A8      0.036033
     30 H3         -0.6060   -1.0570    0.6680 hc        1 1A8      0.036033
     31 H4          1.4940    0.9690   -0.3970 hc        1 1A8      0.062200
     32 H5          1.5520   -0.8170   -0.6240 hc        1 1A8      0.062200
     33 H6          1.6210   -1.1390    1.8710 hc        1 1A8      0.064200
     34 H7          1.5590    0.6600    2.1010 hc        1 1A8      0.064200
     35 H8          3.6470   -0.4460    3.2470 hn        1 1A8      0.315500
     36 H9          5.8820    1.0320    0.7420 ha        1 1A8      0.205000
     37 H10         5.5190   -1.3720    4.3570 ha        1 1A8      0.136000
     38 H11         9.7600   -0.1270    5.4110 h4        1 1A8      0.184000
     39 H12         9.4290   -0.1650    2.9820 ha        1 1A8      0.145000
     40 H13         9.4360    0.7540    0.6950 hn        1 1A8      0.454800
     41 H14         8.8280    5.9850    4.0840 h4        1 1A8      0.181000
     42 H15        11.1030    5.6840    2.7920 ha        1 1A8      0.164000
     43 H16        10.8350    3.9910    0.7850 ha        1 1A8      0.177000
     44 H17         6.9510   -3.2530    4.8970 hn        1 1A8      0.347500
@<TRIPOS>BOND
     1    1    2 1   
     2    1   28 1   
     3    1   29 1   
     4    1   30 1   
     5    2    3 1   
     6    2   31 1   
     7    2   32 1   
     8    3    4 1   
     9    3   33 1   
    10    3   34 1   
    11    4    5 2   
    12    4    6 1   
    13    6    7 1   
    14    6   35 1   
    15    7    8 ar  
    16    7    9 ar  
    17    8   18 ar  
    18    8   36 1   
    19    9   10 ar  
    20    9   37 1   
    21   10   11 1   
    22   10   17 ar  
    23   11   12 2   
    24   11   16 1   
    25   12   13 1   
    26   12   38 1   
    27   13   14 1   
    28   14   15 2   
    29   14   16 1   
    30   16   44 1   
    31   17   18 ar  
    32   17   39 1   
    33   18   19 1   
    34   19   20 1   
    35   19   40 1   
    36   20   21 2   
    37   20   22 2   
    38   20   23 1   
    39   23   24 1   
    40   23   27 2   
    41   24   25 1   
    42   25   26 2   
    43   25   41 1   
    44   26   27 1   
    45   26   42 1   
    46   27   43 1   
@<TRIPOS>SUBSTRUCTURE
     1 1A8         1 TEMP              0 ****  ****    0 ROOT
