@<TRIPOS>MOLECULE
1A8
   44    36     1     0     0
SMALL
bcc


@<TRIPOS>ATOM
      1 CAA        -6.2740   -2.2140   -2.3420 c3        1 1A8     -0.213000
      2 CAM        -4.8640   -1.6840   -2.1980 c3        1 1A8     -0.158000
      3 CAN        -4.5710   -1.4210   -0.7370 c3        1 1A8     -0.185000
      4 CAT        -3.1560   -0.9030   -0.5920 c1        1 1A8      0.315000
      5 OAB        -2.9370    0.2900   -0.6540 o         1 1A8     -0.355000
      6 NAO        -2.0920   -1.8070   -0.3420 n2        1 1A8     -0.334000
      7 CAU        -0.7690   -1.3170   -0.1650 c2        1 1A8      0.116000
      8 CAJ        -0.5560   -0.1320    0.5240 c1        1 1A8     -0.202000
      9 CAK         0.3120   -2.0750   -0.5900 c2        1 1A8     -0.192000
     10 CAW         1.6050   -1.6480   -0.3270 c1        1 1A8      0.020000
     11 CAX         2.7800   -2.5200   -0.7090 c2        1 1A8      0.044000
     12 CAI         3.5930   -3.0730    0.2850 c1        1 1A8     -0.432000
     13 SAS         5.0240   -3.3680   -0.1810 s         1 1A8      0.358000
     14 CAZ         5.0190   -2.8580   -1.8410 c1        1 1A8      0.154000
     15 OAC         5.9960   -2.5660   -2.5000 o         1 1A8     -0.310000
     16 NAQ         3.4910   -2.3150   -2.0870 n2        1 1A8     -0.312000
     17 CAL         1.8170   -0.4630    0.3610 c1        1 1A8     -0.197000
     18 CAV         0.7370    0.2960    0.7870 c1        1 1A8      0.139000
     19 NAP         0.9540    1.4540    1.5840 n2        1 1A8     -0.811000
     20 SBA         1.2300    2.9060    0.8640 s4        1 1A8      2.117800
     21 OAD         0.0180    3.4640    0.3330 o         1 1A8     -0.536400
     22 OAE         2.0140    2.7560   -0.3290 o         1 1A8     -0.536400
     23 CAY         2.0040    4.0200    2.0080 c1        1 1A8     -0.867000
     24 SAR         1.5640    4.2720    3.4750 ss        1 1A8      0.905000
     25 CAG         2.4600    5.4040    4.0450 c1        1 1A8     -0.867000
     26 CAF         3.3800    5.8140    3.0000 c1        1 1A8     -0.106500
     27 CAH         3.0900    4.9340    1.7050 c1        1 1A8     -0.106500
     28 H1         -6.3730   -3.0300   -1.8080 hc        1 1A8      0.078667
     29 H2         -6.4520   -2.4180   -3.2850 hc        1 1A8      0.078667
     30 H3         -6.9110   -1.5390   -2.0280 hc        1 1A8      0.078667
     31 H4         -4.2310   -2.3440   -2.5440 hc        1 1A8      0.089000
     32 H5         -4.7760   -0.8510   -2.7040 hc        1 1A8      0.089000
     33 H6         -5.1990   -0.7540   -0.3940 hc        1 1A8      0.114000
     34 H7         -4.6680   -2.2520   -0.2300 hc        1 1A8      0.114000
     35 H8         -2.2530   -2.7050   -0.3160 hn        1 1A8      0.235000
     36 H9         -1.3160    0.4020    0.8230 ha        1 1A8      0.185000
     37 H10         0.1620   -2.9150   -1.0640 ha        1 1A8      0.142000
     38 H11         3.1950   -3.6000    1.0040 ha        1 1A8      0.184000
     39 H12         2.7280   -0.1620    0.5460 ha        1 1A8      0.139000
     40 H13         0.9640    1.3860    2.4930 hn        1 1A8      0.246000
     41 H14         2.4130    5.7750    4.9460 DU        1 1A8      0.173333
     42 H15         4.0590    6.5100    3.0780 DU        1 1A8      0.173333
     43 H16         3.5620    4.9990    0.8530 DU        1 1A8      0.173333
     44 H17         3.2240   -1.7470   -2.7480 hn        1 1A8      0.262000
@<TRIPOS>BOND
     1    1    2 1   
     2    1   28 1   
     3    1   29 1   
     4    1   30 1   
     5    2    3 1   
     6    2   31 1   
     7    2   32 1   
     8    3    4 1   
     9    3   33 1   
    10    3   34 1   
    11    4    5 1   
    12    6    7 1   
    13    6   35 1   
    14    7    8 1   
    15    7    9 1   
    16    8   36 1   
    17    9   10 1   
    18    9   37 1   
    19   10   11 1   
    20   11   12 1   
    21   11   16 1   
    22   12   38 1   
    23   13   14 1   
    24   14   15 1   
    25   16   44 1   
    26   17   18 1   
    27   17   39 1   
    28   19   20 1   
    29   19   40 1   
    30   20   21 1   
    31   20   22 1   
    32   23   24 1   
    33   23   27 1   
    34   24   25 1   
    35   25   26 1   
    36   26   27 1   
@<TRIPOS>SUBSTRUCTURE
     1 1A8         1 TEMP              0 ****  ****    0 ROOT
