@<TRIPOS>MOLECULE
1A8
   44    46     1     0     0
SMALL
bcc


@<TRIPOS>ATOM
      1 CAA        -0.2830   -0.0830    0.1910 c3        1 1A8     -0.095100
      2 CAM         1.2140   -0.0090    0.0410 c3        1 1A8     -0.076400
      3 CAN         1.9040   -0.1660    1.3800 c3        1 1A8     -0.150400
      4 CAT         3.4130   -0.0880    1.2230 c         1 1A8      0.661100
      5 OAB         3.9620    0.0690    0.1220 o         1 1A8     -0.562100
      6 NAO         4.1430   -0.1960    2.4090 n         1 1A8     -0.487100
      7 CAU         5.5420   -0.1770    2.5240 ca        1 1A8      0.097600
      8 CAJ         6.3560    0.5140    1.6050 ca        1 1A8     -0.174000
      9 CAK         6.1390   -0.8510    3.6150 ca        1 1A8     -0.192000
     10 CAW         7.5260   -0.8340    3.7700 ca        1 1A8     -0.005800
     11 CAX         8.1550   -1.5240    4.8960 cc        1 1A8      0.058400
     12 CAI         9.2300   -1.0640    5.6120 cd        1 1A8     -0.191400
     13 SAS         9.6870   -2.1270    6.8470 ss        1 1A8     -0.063200
     14 CAZ         8.4110   -3.2830    6.4280 c         1 1A8      0.678100
     15 OAC         8.1520   -4.3690    6.9610 o         1 1A8     -0.586500
     16 NAQ         7.6800   -2.7640    5.3500 n         1 1A8     -0.469100
     17 CAL         8.3360   -0.1490    2.8630 ca        1 1A8     -0.169000
     18 CAV         7.7550    0.5390    1.7760 ca        1 1A8      0.185600
     19 NAP         8.5810    1.2270    0.8730 nh        1 1A8     -0.775500
     20 SBA         8.3360    2.6930    0.1820 sy        1 1A8      1.557200
     21 OAD         9.2930    2.8120   -0.8470 o         1 1A8     -0.646800
     22 OAE         6.9870    2.8680   -0.1670 o         1 1A8     -0.646800
     23 CAY         8.7170    3.7560    1.4000 cc        1 1A8     -0.511600
     24 SAR         7.7610    4.4170    2.5760 ss        1 1A8      0.285200
     25 CAG         8.9400    5.3340    3.2410 cc        1 1A8     -0.183100
     26 CAF        10.1520    5.1820    2.5730 cd        1 1A8     -0.180000
     27 CAH        10.0220    4.2680    1.5050 cd        1 1A8     -0.029000
     28 H1         -0.6560    0.7270    0.8640 hc        1 1A8      0.036033
     29 H2         -0.7730    0.0340   -0.8060 hc        1 1A8      0.036033
     30 H3         -0.5920   -1.0660    0.6210 hc        1 1A8      0.036033
     31 H4          1.5730   -0.8110   -0.6570 hc        1 1A8      0.062200
     32 H5          1.5100    0.9730   -0.4150 hc        1 1A8      0.062200
     33 H6          1.6300   -1.1550    1.8350 hc        1 1A8      0.064200
     34 H7          1.5620    0.6420    2.0800 hc        1 1A8      0.064200
     35 H8          3.6450   -0.4560    3.2300 hn        1 1A8      0.315500
     36 H9          5.8930    1.0300    0.7390 ha        1 1A8      0.205000
     37 H10         5.5130   -1.3770    4.3510 ha        1 1A8      0.136000
     38 H11         9.7440   -0.1220    5.4320 h4        1 1A8      0.184000
     39 H12         9.4290   -0.1600    3.0010 ha        1 1A8      0.145000
     40 H13         9.4470    0.7610    0.7160 hn        1 1A8      0.454800
     41 H14         8.7930    5.9910    4.1010 h4        1 1A8      0.181000
     42 H15        11.0810    5.6970    2.8280 ha        1 1A8      0.164000
     43 H16        10.8350    4.0020    0.8190 ha        1 1A8      0.177000
     44 H17         6.9470   -3.2550    4.8990 hn        1 1A8      0.347500
@<TRIPOS>BOND
     1    1    2 1   
     2    1   28 1   
     3    1   29 1   
     4    1   30 1   
     5    2    3 1   
     6    2   31 1   
     7    2   32 1   
     8    3    4 1   
     9    3   33 1   
    10    3   34 1   
    11    4    5 2   
    12    4    6 1   
    13    6    7 1   
    14    6   35 1   
    15    7    8 ar  
    16    7    9 ar  
    17    8   18 ar  
    18    8   36 1   
    19    9   10 ar  
    20    9   37 1   
    21   10   11 1   
    22   10   17 ar  
    23   11   12 2   
    24   11   16 1   
    25   12   13 1   
    26   12   38 1   
    27   13   14 1   
    28   14   15 2   
    29   14   16 1   
    30   16   44 1   
    31   17   18 ar  
    32   17   39 1   
    33   18   19 1   
    34   19   20 1   
    35   19   40 1   
    36   20   21 2   
    37   20   22 2   
    38   20   23 1   
    39   23   24 1   
    40   23   27 2   
    41   24   25 1   
    42   25   26 2   
    43   25   41 1   
    44   26   27 1   
    45   26   42 1   
    46   27   43 1   
@<TRIPOS>SUBSTRUCTURE
     1 1A8         1 TEMP              0 ****  ****    0 ROOT
