@<TRIPOS>MOLECULE
1A9
   59    61     1     0     0
SMALL
bcc


@<TRIPOS>ATOM
      1 CAP        -0.5290    0.7420    0.4600 c3        1 1A9     -0.073400
      2 CAM         0.6320    1.0120    1.3970 c3        1 1A9     -0.078400
      3 CAL         0.2970    0.6160    2.8190 c3        1 1A9     -0.082400
      4 CAN        -0.1510   -0.8290    2.8960 c3        1 1A9     -0.078400
      5 CAQ        -1.3100   -1.0990    1.9580 c3        1 1A9     -0.073400
      6 CBE        -0.9530   -0.7190    0.5260 c3        1 1A9     -0.066700
      7 CAR        -2.1470   -0.9920   -0.3840 c3        1 1A9     -0.080400
      8 CAO        -1.7260   -1.0040   -1.8400 c3        1 1A9     -0.160400
      9 CAX        -2.8720   -1.2680   -2.7680 c         1 1A9      0.568100
     10 OAA        -3.3670   -0.5450   -3.6130 o         1 1A9     -0.407100
     11 NAS        -3.4900   -2.6730   -2.6690 n4        1 1A9     -0.565200
     12 CAY        -4.9020   -2.6500   -2.2730 ca        1 1A9     -0.011400
     13 CAI        -5.8570   -2.1360   -3.1670 ca        1 1A9     -0.124000
     14 CAJ        -5.2720   -3.1520   -1.0180 ca        1 1A9     -0.107000
     15 CBA        -6.6280   -3.1540   -0.6540 ca        1 1A9      0.045200
     16 CBB        -7.0490   -3.6950    0.6300 cc        1 1A9     -0.028600
     17 CAH        -8.2100   -4.4050    0.8440 cd        1 1A9     -0.153400
     18 SAW        -8.3750   -4.9200    2.4290 ss        1 1A9      0.061800
     19 CBD        -6.8530   -4.1500    2.9250 c         1 1A9      0.667100
     20 OAB        -6.3300   -4.1070    4.0390 o         1 1A9     -0.524500
     21 NAU        -6.2610   -3.5680    1.7850 n         1 1A9     -0.474100
     22 CAK        -7.5920   -2.6530   -1.5380 ca        1 1A9     -0.094000
     23 CAZ        -7.2150   -2.1460   -2.7970 ca        1 1A9      0.069600
     24 NAT        -8.2190   -1.6830   -3.7060 nh        1 1A9     -0.870200
     25 SBF        -9.4010   -3.6080   -4.8470 s4        1 1A9      1.744300
     26 OAC        -8.2190   -3.9650   -5.4060 o         1 1A9     -0.437400
     27 OAD        -9.7910   -4.0550   -3.6280 o         1 1A9     -0.437400
     28 CBC       -10.4040   -2.8440   -5.6870 cc        1 1A9     -0.803600
     29 SAV       -11.9950   -2.3760   -5.4170 ss        1 1A9      0.494200
     30 CAF       -12.2390   -1.7210   -6.8490 cc        1 1A9     -0.128100
     31 CAE       -11.0990   -1.8010   -7.6900 cd        1 1A9     -0.140000
     32 CAG       -10.0590   -2.4360   -7.0380 cd        1 1A9     -0.004000
     33 H1         -1.3950    1.3970    0.7410 hc        1 1A9      0.038700
     34 H2         -0.2280    1.0050   -0.5870 hc        1 1A9      0.038700
     35 H3          0.8890    2.1030    1.3600 hc        1 1A9      0.055450
     36 H4          1.5340    0.4420    1.0500 hc        1 1A9      0.055450
     37 H5         -0.5150    1.2830    3.2140 hc        1 1A9      0.056700
     38 H6          1.1980    0.7630    3.4700 hc        1 1A9      0.056700
     39 H7          0.7080   -1.5020    2.6350 hc        1 1A9      0.055450
     40 H8         -2.2050   -0.5090    2.2880 hc        1 1A9      0.038700
     41 H9         -0.0870   -1.3590    0.1950 hc        1 1A9      0.059700
     42 H10        -2.5960   -1.9820   -0.1060 hc        1 1A9      0.046700
     43 H11        -2.9260   -0.2030   -0.2170 hc        1 1A9      0.046700
     44 H12        -0.9170   -1.7670   -2.0130 hc        1 1A9      0.125200
     45 H13        -1.3040    0.0060   -2.1230 hc        1 1A9      0.125200
     46 H14        -2.9550   -3.2270   -1.9880 hn        1 1A9      0.468300
     47 H15        -5.5430   -1.7210   -4.1410 ha        1 1A9      0.174000
     48 H16        -4.5220   -3.5640   -0.3200 ha        1 1A9      0.173000
     49 H17        -8.9460   -4.6420    0.0740 h4        1 1A9      0.188000
     50 H18        -8.6540   -2.6680   -1.2300 ha        1 1A9      0.180000
     51 H19        -8.9150   -1.1540   -3.2030 hn        1 1A9      0.406800
     52 H20       -13.1790   -1.2550   -7.1890 h4        1 1A9      0.239000
     53 H21       -11.0630   -1.4160   -8.7170 ha        1 1A9      0.216000
     54 H22        -9.0720   -2.6390   -7.4790 ha        1 1A9      0.200000
     55 H23        -0.4610   -1.0710    3.9460 hc        1 1A9      0.055450
     56 H24        -1.5800   -2.1860    2.0040 hc        1 1A9      0.038700
     57 H25        -5.4920   -2.9470    1.8430 hn        1 1A9      0.339500
     58 HAS2       -3.4220   -3.1280   -3.5900 hn        1 1A9      0.468300
     59 HAT2       -7.8090   -1.0970   -4.4150 hn        1 1A9      0.406800
@<TRIPOS>BOND
     1    1    2 1   
     2    1    6 1   
     3    1   33 1   
     4    1   34 1   
     5    2    3 1   
     6    2   35 1   
     7    2   36 1   
     8    3    4 1   
     9    3   37 1   
    10    3   38 1   
    11    4    5 1   
    12    4   39 1   
    13    4   55 1   
    14    5    6 1   
    15    5   40 1   
    16    5   56 1   
    17    6    7 1   
    18    6   41 1   
    19    7    8 1   
    20    7   42 1   
    21    7   43 1   
    22    8    9 1   
    23    8   44 1   
    24    8   45 1   
    25    9   10 2   
    26    9   11 1   
    27   11   12 1   
    28   11   46 1   
    29   11   58 1   
    30   12   13 ar  
    31   12   14 ar  
    32   13   23 ar  
    33   13   47 1   
    34   14   15 ar  
    35   14   48 1   
    36   15   16 1   
    37   15   22 ar  
    38   16   17 2   
    39   16   21 1   
    40   17   18 1   
    41   17   49 1   
    42   18   19 1   
    43   19   20 2   
    44   19   21 1   
    45   21   57 1   
    46   22   23 ar  
    47   22   50 1   
    48   23   24 1   
    49   24   51 1   
    50   24   59 1   
    51   25   26 1   
    52   25   27 1   
    53   25   28 1   
    54   28   29 1   
    55   28   32 2   
    56   29   30 1   
    57   30   31 2   
    58   30   52 1   
    59   31   32 1   
    60   31   53 1   
    61   32   54 1   
@<TRIPOS>SUBSTRUCTURE
     1 1A9         1 TEMP              0 ****  ****    0 ROOT
