@<TRIPOS>MOLECULE
1A9
   57    51     1     0     0
SMALL
bcc


@<TRIPOS>ATOM
      1 CAP        -1.4950    1.5240    5.6530 c3        1 1A9     -0.151500
      2 CAM        -1.2660    2.9910    5.3640 c3        1 1A9     -0.155500
      3 CAL        -2.4910    3.6650    4.7770 c3        1 1A9     -0.155000
      4 CAN        -3.0450    2.9180    3.5790 c3        1 1A9     -0.155500
      5 CAQ        -3.2750    1.4510    3.8670 c3        1 1A9     -0.151500
      6 CBE        -2.0490    0.7770    4.4540 c3        1 1A9     -0.099000
      7 CAR        -0.9650    0.6980    3.3770 c3        1 1A9     -0.153000
      8 CAO        -1.1400   -0.5760    2.5780 c3        1 1A9     -0.185000
      9 CAX        -0.3090   -0.4970    1.3130 c2        1 1A9      0.307000
     10 OAA        -0.2720    0.5360    0.6750 o         1 1A9     -0.326000
     11 NAS         0.3740   -1.6480    0.8410 n         1 1A9     -0.337000
     12 CAY         1.1030   -1.5920   -0.3780 c2        1 1A9      0.105000
     13 CAI         0.4490   -1.2820   -1.5610 c2        1 1A9     -0.173000
     14 CAJ         2.4490   -1.9210   -0.3950 c1        1 1A9     -0.191000
     15 CBA         3.1430   -1.9380   -1.5960 c1        1 1A9      0.025000
     16 CBB         4.5990   -2.3550   -1.6230 c1        1 1A9      0.025000
     17 CAH         5.5800   -1.5020   -1.1060 c1        1 1A9     -0.300500
     18 SAW         6.8350   -2.2320   -0.6130 s         1 1A9      0.360000
     19 CBD         6.4770   -3.9020   -0.9260 c2        1 1A9      0.153000
     20 OAB         7.2910   -4.7980   -1.0390 o         1 1A9     -0.311000
     21 NAU         4.9790   -3.8710   -1.5930 n2        1 1A9     -0.313000
     22 CAK         2.4900   -1.6280   -2.7790 c1        1 1A9     -0.300500
     23 CAZ         1.1430   -1.2990   -2.7620 c1        1 1A9      0.103000
     24 NAT         0.4570   -1.0580   -3.9810 n3        1 1A9     -0.825000
     25 SBF        -0.3560    0.3520   -4.2010 s4        1 1A9      2.112800
     26 OAC        -1.3530    0.5430   -3.1850 o         1 1A9     -0.534400
     27 OAD         0.4960    1.4860   -3.9720 o         1 1A9     -0.534400
     28 CBC        -1.0730    0.4030   -5.8240 c1        1 1A9     -0.839000
     29 SAV        -0.5030    1.1670   -7.0480 ss        1 1A9      0.824000
     30 CAF        -1.5210    1.0140   -8.2100 c1        1 1A9     -0.839000
     31 CAE        -2.6310    0.2140   -7.7290 c1        1 1A9     -0.105000
     32 CAG        -2.3460   -0.1750   -6.2110 c1        1 1A9     -0.105000
     33 H1         -0.6450    1.1170    5.9140 hc        1 1A9      0.080250
     34 H2         -2.1260    1.4430    6.3960 hc        1 1A9      0.080250
     35 H3         -0.5240    3.0770    4.7310 hc        1 1A9      0.080750
     36 H4         -1.0250    3.4440    6.1970 hc        1 1A9      0.080750
     37 H5         -2.2520    4.5720    4.5010 hc        1 1A9      0.080000
     38 H6         -3.1840    3.7160    5.4660 hc        1 1A9      0.080000
     39 H7         -3.8960    3.3260    3.3180 hc        1 1A9      0.080750
     40 H8         -3.5160    0.9990    3.0340 hc        1 1A9      0.080250
     41 H9         -2.2880   -0.1290    4.7290 hc        1 1A9      0.082000
     42 H10        -1.0410    1.4700    2.7810 hc        1 1A9      0.089000
     43 H11        -0.0830    0.6990    3.8010 hc        1 1A9      0.089000
     44 H12        -2.0830   -0.6860    2.3420 hc        1 1A9      0.114000
     45 H13        -0.8470   -1.3400    3.1140 hc        1 1A9      0.114000
     46 H14         0.3500   -2.4230    1.3220 hn        1 1A9      0.231000
     47 H15        -0.4980   -1.0500   -1.5490 ha        1 1A9      0.205000
     48 H16         2.9020   -2.1680    0.4330 ha        1 1A9      0.136000
     49 H17         5.3240   -0.6480   -0.7090 ha        1 1A9      0.164500
     50 H18         2.9780   -1.6400   -3.6240 ha        1 1A9      0.164500
     51 H19         0.4900   -1.6740   -4.6530 hn        1 1A9      0.250000
     52 H20        -1.4300    1.3900   -9.1070 DU        1 1A9      0.174000
     53 H21        -3.4170   -0.0420   -8.2470 DU        1 1A9      0.174000
     54 H22        -2.9280   -0.7100   -5.6400 DU        1 1A9      0.174000
     55 H23        -2.4140    3.0000    2.8370 hc        1 1A9      0.080750
     56 H24        -4.0160    1.3650    4.5000 hc        1 1A9      0.080250
     57 H25         4.3950   -4.5710   -1.6320 hn        1 1A9      0.261000
@<TRIPOS>BOND
     1    1    2 1   
     2    1    6 1   
     3    1   33 1   
     4    1   34 1   
     5    2    3 1   
     6    2   35 1   
     7    2   36 1   
     8    3    4 1   
     9    3   37 1   
    10    3   38 1   
    11    4    5 1   
    12    4   39 1   
    13    4   55 1   
    14    5    6 1   
    15    5   40 1   
    16    5   56 1   
    17    6    7 1   
    18    6   41 1   
    19    7    8 1   
    20    7   42 1   
    21    7   43 1   
    22    8    9 1   
    23    8   44 1   
    24    8   45 1   
    25    9   10 1   
    26    9   11 1   
    27   11   12 1   
    28   11   46 1   
    29   12   13 1   
    30   12   14 1   
    31   13   23 1   
    32   13   47 1   
    33   14   48 1   
    34   15   22 1   
    35   16   17 1   
    36   17   49 1   
    37   18   19 1   
    38   19   20 1   
    39   19   21 1   
    40   21   57 1   
    41   22   50 1   
    42   23   24 1   
    43   24   25 1   
    44   24   51 1   
    45   25   26 1   
    46   25   27 1   
    47   28   29 1   
    48   28   32 1   
    49   29   30 1   
    50   30   31 1   
    51   31   32 1   
@<TRIPOS>SUBSTRUCTURE
     1 1A9         1 TEMP              0 ****  ****    0 ROOT
