@<TRIPOS>MOLECULE
1A9
   57    60     1     0     0
SMALL
bcc


@<TRIPOS>ATOM
      1 CAP        -0.0020    0.2960    0.3740 c3        1 1A9     -0.073900
      2 CAM         1.4830    0.5560    0.2230 c3        1 1A9     -0.076400
      3 CAL         2.2640   -0.0160    1.3870 c3        1 1A9     -0.077400
      4 CAN         1.9760   -1.4930    1.5650 c3        1 1A9     -0.076400
      5 CAQ         0.4920   -1.7530    1.7120 c3        1 1A9     -0.073900
      6 CBE        -0.2900   -1.1900    0.5310 c3        1 1A9     -0.064700
      7 CAR        -1.7750   -1.4510    0.7280 c3        1 1A9     -0.072400
      8 CAO        -2.5510   -1.2960   -0.5630 c3        1 1A9     -0.151400
      9 CAX        -4.0240   -1.6020   -0.3460 c         1 1A9      0.667100
     10 OAA        -4.4790   -1.9150    0.7670 o         1 1A9     -0.586100
     11 NAS        -4.8230   -1.5160   -1.4850 ns        1 1A9     -0.478100
     12 CAY        -6.2140   -1.6830   -1.5610 ca        1 1A9      0.103600
     13 CAI        -6.8650   -1.2630   -2.7450 ca        1 1A9     -0.228000
     14 CAJ        -6.9710   -2.2610   -0.5220 ca        1 1A9     -0.168000
     15 CBA        -8.3550   -2.3930   -0.6640 ca        1 1A9      0.000200
     16 CBB        -9.1550   -2.9800    0.4110 cc        1 1A9      0.061400
     17 CAH       -10.2670   -3.7650    0.2360 cd        1 1A9     -0.194400
     18 SAW       -10.9420   -4.2670    1.7050 ss        1 1A9     -0.071200
     19 CBD        -9.7100   -3.4080    2.6490 c         1 1A9      0.681100
     20 OAB        -9.5980   -3.3440    3.8800 o         1 1A9     -0.584500
     21 NAU        -8.8340   -2.7710    1.7610 ns        1 1A9     -0.464100
     22 CAK        -9.0020   -1.9860   -1.8330 ca        1 1A9     -0.176000
     23 CAZ        -8.2550   -1.4260   -2.8920 ca        1 1A9      0.193600
     24 NAT        -8.9110   -1.0200   -4.0660 nu        1 1A9     -0.773500
     25 SBF        -8.3560   -1.0420   -5.6070 sy        1 1A9      1.560200
     26 OAC        -9.2480   -0.2560   -6.3660 o         1 1A9     -0.652800
     27 OAD        -6.9950   -0.6820   -5.6520 o         1 1A9     -0.652800
     28 CBC        -8.5120   -2.6290   -6.0530 cc        1 1A9     -0.518600
     29 SAV        -7.4860   -3.9090   -5.8400 ss        1 1A9      0.285200
     30 CAF        -8.4260   -4.9980   -6.6140 cc        1 1A9     -0.178100
     31 CAE        -9.5990   -4.4200   -7.0940 cd        1 1A9     -0.179000
     32 CAG        -9.6480   -3.0480   -6.7690 cd        1 1A9     -0.027000
     33 H1         -0.5420    0.6920   -0.5240 hc        1 1A9      0.040700
     34 H2         -0.3900    0.8470    1.2710 hc        1 1A9      0.040700
     35 H3          1.8470    0.0970   -0.7340 hc        1 1A9      0.039950
     36 H4          1.6630    1.6610    0.1560 hc        1 1A9      0.039950
     37 H5          1.9910    0.5330    2.3260 hc        1 1A9      0.040200
     38 H6          3.3610    0.1350    1.2150 hc        1 1A9      0.040200
     39 H7          2.5130   -1.8740    2.4720 hc        1 1A9      0.039950
     40 H8          0.1180   -1.2840    2.6600 hc        1 1A9      0.040700
     41 H9          0.0530   -1.7200   -0.4020 hc        1 1A9      0.045700
     42 H10        -2.1890   -0.7500    1.5000 hc        1 1A9      0.061200
     43 H11        -1.9270   -2.4920    1.1210 hc        1 1A9      0.061200
     44 H12        -2.4480   -0.2470   -0.9490 hc        1 1A9      0.068200
     45 H13        -2.1390   -1.9920   -1.3410 hc        1 1A9      0.068200
     46 H14        -4.3860   -1.1910   -2.3200 hn        1 1A9      0.322500
     47 H15        -6.2780   -0.7960   -3.5560 ha        1 1A9      0.173000
     48 H16        -6.4730   -2.6160    0.3950 ha        1 1A9      0.177000
     49 H17       -10.6830   -4.0570   -0.7260 h4        1 1A9      0.182000
     50 H18       -10.0940   -2.0960   -1.9150 ha        1 1A9      0.144000
     51 H19        -9.8580   -0.7570   -3.9030 hn        1 1A9      0.455800
     52 H20        -8.1650   -6.0500   -6.7440 h4        1 1A9      0.183000
     53 H21       -10.3790   -4.9460   -7.6490 ha        1 1A9      0.166000
     54 H22       -10.4650   -2.3750   -7.0580 ha        1 1A9      0.179000
     55 H23         2.3690   -2.0590    0.6790 hc        1 1A9      0.039950
     56 H24         0.3110   -2.8570    1.7880 hc        1 1A9      0.040700
     57 H25        -8.0520   -2.2340    2.0500 hn        1 1A9      0.355500
@<TRIPOS>BOND
     1    1    2 1   
     2    1    6 1   
     3    1   33 1   
     4    1   34 1   
     5    2    3 1   
     6    2   35 1   
     7    2   36 1   
     8    3    4 1   
     9    3   37 1   
    10    3   38 1   
    11    4    5 1   
    12    4   39 1   
    13    4   55 1   
    14    5    6 1   
    15    5   40 1   
    16    5   56 1   
    17    6    7 1   
    18    6   41 1   
    19    7    8 1   
    20    7   42 1   
    21    7   43 1   
    22    8    9 1   
    23    8   44 1   
    24    8   45 1   
    25    9   10 2   
    26    9   11 1   
    27   11   12 1   
    28   11   46 1   
    29   12   13 ar  
    30   12   14 ar  
    31   13   23 ar  
    32   13   47 1   
    33   14   15 ar  
    34   14   48 1   
    35   15   16 1   
    36   15   22 ar  
    37   16   17 2   
    38   16   21 1   
    39   17   18 1   
    40   17   49 1   
    41   18   19 1   
    42   19   20 2   
    43   19   21 1   
    44   21   57 1   
    45   22   23 ar  
    46   22   50 1   
    47   23   24 1   
    48   24   25 1   
    49   24   51 1   
    50   25   26 2   
    51   25   27 2   
    52   25   28 1   
    53   28   29 1   
    54   28   32 2   
    55   29   30 1   
    56   30   31 2   
    57   30   52 1   
    58   31   32 1   
    59   31   53 1   
    60   32   54 1   
@<TRIPOS>SUBSTRUCTURE
     1 1A9         1 TEMP              0 ****  ****    0 ROOT
