@<TRIPOS>MOLECULE
1A9
   57    60     1     0     0
SMALL
bcc


@<TRIPOS>ATOM
      1 CAP         6.7360   -1.7800   -0.7650 c3        1 1A9     -0.073900
      2 CAM         7.9560   -2.6450   -0.5260 c3        1 1A9     -0.076400
      3 CAL         9.1170   -1.8280    0.0030 c3        1 1A9     -0.077400
      4 CAN         8.7250   -1.0670    1.2520 c3        1 1A9     -0.076400
      5 CAQ         7.5030   -0.2040    1.0140 c3        1 1A9     -0.073900
      6 CBE         6.3320   -1.0320    0.4980 c3        1 1A9     -0.064700
      7 CAR         5.1350   -0.1280    0.2500 c3        1 1A9     -0.072400
      8 CAO         3.8470   -0.9160    0.1390 c3        1 1A9     -0.151400
      9 CAX         2.6620    0.0140   -0.0680 c         1 1A9      0.667100
     10 OAA         2.7940    1.2470   -0.1470 o         1 1A9     -0.586100
     11 NAS         1.4210   -0.6140   -0.1520 n         1 1A9     -0.478100
     12 CAY         0.1790   -0.0100   -0.4020 ca        1 1A9      0.103600
     13 CAI        -0.9060   -0.8510   -0.7430 ca        1 1A9     -0.228000
     14 CAJ        -0.0250    1.3810   -0.3110 ca        1 1A9     -0.168000
     15 CBA        -1.2890    1.9150   -0.5770 ca        1 1A9      0.000200
     16 CBB        -1.5120    3.3590   -0.4970 cc        1 1A9      0.061400
     17 CAH        -2.6680    3.9620   -0.0680 cd        1 1A9     -0.194400
     18 SAW        -2.5710    5.6510   -0.1120 ss        1 1A9     -0.071200
     19 CBD        -0.9110    5.6140   -0.7350 c         1 1A9      0.681100
     20 OAB        -0.1780    6.5710   -1.0160 o         1 1A9     -0.584500
     21 NAU        -0.5200    4.2760   -0.8760 n         1 1A9     -0.464100
     22 CAK        -2.3650    1.0890   -0.9070 ca        1 1A9     -0.176000
     23 CAZ        -2.1830   -0.3090   -0.9820 ca        1 1A9      0.193600
     24 NAT        -3.2690   -1.1340   -1.3120 nh        1 1A9     -0.773500
     25 SBF        -3.5890   -2.6580   -0.8030 sy        1 1A9      1.560200
     26 OAC        -4.6030   -3.1590   -1.6450 o         1 1A9     -0.652800
     27 OAD        -2.4030   -3.4130   -0.7160 o         1 1A9     -0.652800
     28 CBC        -4.2040   -2.4370    0.7190 cc        1 1A9     -0.518600
     29 SAV        -3.4350   -2.2860    2.1750 ss        1 1A9      0.285200
     30 CAF        -4.8000   -2.1600    3.0650 cc        1 1A9     -0.178100
     31 CAE        -5.9420   -2.2360    2.2720 cd        1 1A9     -0.179000
     32 CAG        -5.5970   -2.3970    0.9130 cd        1 1A9     -0.027000
     33 H1          6.9540   -1.0410   -1.5800 hc        1 1A9      0.040700
     34 H2          5.8860   -2.4230   -1.1110 hc        1 1A9      0.040700
     35 H3          7.7030   -3.4530    0.2100 hc        1 1A9      0.039950
     36 H4          8.2530   -3.1440   -1.4850 hc        1 1A9      0.039950
     37 H5          9.9810   -2.5050    0.2300 hc        1 1A9      0.040200
     38 H6          9.4530   -1.1040   -0.7860 hc        1 1A9      0.040200
     39 H7          8.5140   -1.7930    2.0810 hc        1 1A9      0.039950
     40 H8          7.2110    0.3020    1.9700 hc        1 1A9      0.040700
     41 H9          6.0610   -1.7880    1.2880 hc        1 1A9      0.045700
     42 H10         5.0380    0.6100    1.0910 hc        1 1A9      0.061200
     43 H11         5.2910    0.4680   -0.6880 hc        1 1A9      0.061200
     44 H12         3.9070   -1.6300   -0.7260 hc        1 1A9      0.068200
     45 H13         3.6860   -1.5180    1.0730 hc        1 1A9      0.068200
     46 H14         1.4180   -1.6110   -0.1480 hn        1 1A9      0.322500
     47 H15        -0.7480   -1.9410   -0.8300 ha        1 1A9      0.173000
     48 H16         0.8060    2.0460   -0.0210 ha        1 1A9      0.177000
     49 H17        -3.5560    3.4380    0.2790 h4        1 1A9      0.182000
     50 H18        -3.3480    1.5380   -1.1180 ha        1 1A9      0.144000
     51 H19        -3.9450   -0.6680   -1.8790 hn        1 1A9      0.455800
     52 H20        -4.8150   -2.0350    4.1490 h4        1 1A9      0.183000
     53 H21        -6.9690   -2.1820    2.6400 ha        1 1A9      0.166000
     54 H22        -6.3250   -2.5010    0.1000 ha        1 1A9      0.179000
     55 H23         9.5790   -0.4190    1.5810 hc        1 1A9      0.039950
     56 H24         7.7460    0.5970    0.2680 hc        1 1A9      0.040700
     57 H25         0.3750    3.9960   -1.2000 hn        1 1A9      0.355500
@<TRIPOS>BOND
     1    1    2 1   
     2    1    6 1   
     3    1   33 1   
     4    1   34 1   
     5    2    3 1   
     6    2   35 1   
     7    2   36 1   
     8    3    4 1   
     9    3   37 1   
    10    3   38 1   
    11    4    5 1   
    12    4   39 1   
    13    4   55 1   
    14    5    6 1   
    15    5   40 1   
    16    5   56 1   
    17    6    7 1   
    18    6   41 1   
    19    7    8 1   
    20    7   42 1   
    21    7   43 1   
    22    8    9 1   
    23    8   44 1   
    24    8   45 1   
    25    9   10 2   
    26    9   11 1   
    27   11   12 1   
    28   11   46 1   
    29   12   13 ar  
    30   12   14 ar  
    31   13   23 ar  
    32   13   47 1   
    33   14   15 ar  
    34   14   48 1   
    35   15   16 1   
    36   15   22 ar  
    37   16   17 2   
    38   16   21 1   
    39   17   18 1   
    40   17   49 1   
    41   18   19 1   
    42   19   20 2   
    43   19   21 1   
    44   21   57 1   
    45   22   23 ar  
    46   22   50 1   
    47   23   24 1   
    48   24   25 1   
    49   24   51 1   
    50   25   26 2   
    51   25   27 2   
    52   25   28 1   
    53   28   29 1   
    54   28   32 2   
    55   29   30 1   
    56   30   31 2   
    57   30   52 1   
    58   31   32 1   
    59   31   53 1   
    60   32   54 1   
@<TRIPOS>SUBSTRUCTURE
     1 1A9         1 TEMP              0 ****  ****    0 ROOT
