@<TRIPOS>MOLECULE
1AA
   60    62     1     0     0
SMALL
bcc


@<TRIPOS>ATOM
      1 O1          0.0000    0.0000    0.0000 o         1 1AA     -0.650500
      2 C1          1.2190    0.0000    0.0000 c         1 1AA      0.704900
      3 N4          1.8750    0.0000    1.1600 nc        1 1AA     -0.619100
      4 C9'         3.2010    0.0010    1.1880 cd        1 1AA      0.042500
      5 N3          3.8670    0.0010    2.3910 nz        1 1AA      0.278400
      6 C8'         3.9240    0.0060   -0.0220 cd        1 1AA     -0.319600
      7 C7'         3.2440    0.0000   -1.1930 cc        1 1AA     -0.113400
      8 N2          1.8810    0.0000   -1.1720 n         1 1AA      0.068000
      9 C2          1.1330    0.0010   -2.4310 c3        1 1AA      0.196500
     10 O2'         0.1600    1.0680   -2.4380 os        1 1AA     -0.353600
     11 C3          0.3020   -1.2960   -2.5630 c3        1 1AA      0.113100
     12 O4'         0.9770   -2.2490   -3.3860 oh        1 1AA     -0.563800
     13 C4         -1.0100   -0.8310   -3.2370 c3        1 1AA      0.148100
     14 O3'        -1.1850   -1.4820   -4.4970 oh        1 1AA     -0.565800
     15 C5         -0.8140    0.6890   -3.4350 c3        1 1AA      0.152100
     16 C6         -2.1310    1.4320   -3.2030 c3        1 1AA      0.246400
     17 O2         -1.9350    2.8300   -3.4340 os        1 1AA     -0.465200
     18 P1         -3.3530    3.5470   -3.1750 p5        1 1AA      0.983800
     19 O1'        -4.4180    3.0440   -4.2720 o         1 1AA     -0.528500
     20 O9         -3.8400    3.2000   -1.8200 o         1 1AA     -0.528500
     21 O3         -3.1760    5.1430   -3.2900 os        1 1AA     -0.462800
     22 P2         -4.4260    5.8070   -2.5230 p5        1 1AA      0.969800
     23 O8         -5.7490    5.6650   -3.4300 o         1 1AA     -0.558500
     24 O7         -4.6370    5.1140   -1.2320 o         1 1AA     -0.558500
     25 O4         -4.1250    7.3650   -2.2520 os        1 1AA     -0.468200
     26 C7         -5.2100    7.8660   -1.4700 c3        1 1AA      0.239400
     27 C8         -4.9860    9.3510   -1.1780 c3        1 1AA      0.221400
     28 O5         -5.0280   10.1010   -2.4200 os        1 1AA     -0.388900
     29 C9         -4.8530   11.4370   -2.4060 c         1 1AA      0.738700
     30 O6         -4.6600   12.0140   -1.3540 o         1 1AA     -0.641000
     31 C1'        -4.8960   12.1990   -3.6670 ca        1 1AA     -0.210600
     32 C2'        -4.9950   11.5300   -4.8900 ca        1 1AA      0.001000
     33 C3'        -5.0350   12.2480   -6.0640 ca        1 1AA     -0.173000
     34 C4'        -4.9770   13.6320   -6.0410 ca        1 1AA     -0.044000
     35 C5'        -4.8790   14.3080   -4.8420 ca        1 1AA     -0.205000
     36 C6'        -4.8430   13.6020   -3.6460 ca        1 1AA      0.102600
     37 N1         -4.7450   14.2800   -2.4380 nv        1 1AA     -0.466200
     38 HN31        3.2030   -0.0150    3.1400 hn        1 1AA      0.164800
     39 HN32        4.4540   -0.8080    2.4490 hn        1 1AA      0.164800
     40 H8'         5.0080    0.0070   -0.0160 ha        1 1AA      0.104000
     41 H7'         3.7710    0.1520   -2.1270 h4        1 1AA      0.130000
     42 H2          1.8050    0.1020   -3.2750 h2        1 1AA      0.037700
     43 H3          0.0950   -1.7110   -1.5840 h1        1 1AA      0.036700
     44 H4'         1.1250   -3.0400   -2.8940 ho        1 1AA      0.376000
     45 H4         -1.8550   -1.0200   -2.5850 h1        1 1AA      0.029700
     46 H6         -1.9920   -1.9700   -4.4900 ho        1 1AA      0.385000
     47 H5         -0.4310    0.8900   -4.4280 h1        1 1AA      0.033700
     48 H61        -2.4590    1.2770   -2.1820 h1        1 1AA      0.019700
     49 H62        -2.8840    1.0550   -3.8850 h1        1 1AA      0.019700
     50 H71        -6.1370    7.7420   -2.0170 h1        1 1AA      0.016200
     51 H72        -5.2660    7.3190   -0.5370 h1        1 1AA      0.016200
     52 H81        -4.0190    9.4840   -0.7080 h1        1 1AA     -0.004300
     53 H82        -5.7620    9.7090   -0.5130 h1        1 1AA     -0.004300
     54 H2'        -5.0410   10.4480   -4.9140 ha        1 1AA      0.135000
     55 H3'        -5.1120   11.7270   -7.0110 ha        1 1AA      0.107000
     56 H1         -5.0070   14.1870   -6.9710 ha        1 1AA      0.088000
     57 H5'        -4.8370   15.3900   -4.8340 ha        1 1AA      0.102000
     58 HN11       -4.1460   15.0780   -2.3610 hn        1 1AA      0.277300
     59 HN12       -5.3220   14.0110   -1.6660 hn        1 1AA      0.277300
     60 H33         4.4290    0.8260    2.4620 hn        1 1AA      0.164800
@<TRIPOS>BOND
     1    1    2 2   
     2    2    3 1   
     3    2    8 1   
     4    3    4 2   
     5    4    5 1   
     6    4    6 1   
     7    5   38 1   
     8    5   39 1   
     9    5   60 1   
    10    6    7 2   
    11    6   40 1   
    12    7    8 1   
    13    7   41 1   
    14    8    9 1   
    15    9   10 1   
    16    9   11 1   
    17    9   42 1   
    18   10   15 1   
    19   11   12 1   
    20   11   13 1   
    21   11   43 1   
    22   12   44 1   
    23   13   14 1   
    24   13   15 1   
    25   13   45 1   
    26   14   46 1   
    27   15   16 1   
    28   15   47 1   
    29   16   17 1   
    30   16   48 1   
    31   16   49 1   
    32   17   18 1   
    33   18   19 1   
    34   18   20 1   
    35   18   21 1   
    36   21   22 1   
    37   22   23 1   
    38   22   24 1   
    39   22   25 1   
    40   25   26 1   
    41   26   27 1   
    42   26   50 1   
    43   26   51 1   
    44   27   28 1   
    45   27   52 1   
    46   27   53 1   
    47   28   29 1   
    48   29   30 2   
    49   29   31 1   
    50   31   32 ar  
    51   31   36 ar  
    52   32   33 ar  
    53   32   54 1   
    54   33   34 ar  
    55   33   55 1   
    56   34   35 ar  
    57   34   56 1   
    58   35   36 ar  
    59   35   57 1   
    60   36   37 1   
    61   37   58 1   
    62   37   59 1   
@<TRIPOS>SUBSTRUCTURE
     1 1AA         1 TEMP              0 ****  ****    0 ROOT
