@<TRIPOS>MOLECULE
1AA
   59    56     1     0     0
SMALL
bcc


@<TRIPOS>ATOM
      1 O1         -4.0900   -1.9120    6.1660 o         1 1AA     -0.384000
      2 C1         -3.1920   -2.6630    5.9450 c1        1 1AA      0.345000
      3 N4         -2.1730   -2.9160    6.9790 n1        1 1AA     -0.311000
      4 C9'        -1.1270   -3.8710    6.7410 c1        1 1AA      0.196000
      5 N3         -0.1810   -4.1880    7.7960 n2        1 1AA     -0.336000
      6 C8'        -1.0660   -4.5890    5.4540 c2        1 1AA     -0.370000
      7 C7'        -2.0620   -4.3000    4.3990 c1        1 1AA      0.096000
      8 N2         -3.1070   -3.3440    4.6420 n2        1 1AA     -0.267000
      9 C2         -4.1730   -3.1730    3.6690 c3        1 1AA      0.106000
     10 O2'        -3.7200   -3.3010    2.4920 os        1 1AA     -0.289000
     11 C3         -4.7410   -1.7110    3.7290 c3        1 1AA     -0.013000
     12 O4'        -6.1160   -1.7270    3.7350 oh        1 1AA     -0.288000
     13 C4         -4.2290   -1.0260    2.4830 c3        1 1AA      0.039000
     14 O3'        -5.3450   -0.8560    1.4940 oh        1 1AA     -0.339000
     15 C5         -3.3220   -1.8310    2.0060 c3        1 1AA     -0.029000
     16 C6         -1.9330   -1.4430    2.5640 c3        1 1AA      0.038000
     17 O2         -1.5350   -0.1730    2.0080 os        1 1AA     -0.741000
     18 P1          0.0290    0.0860    1.7070 p5        1 1AA      2.081000
     19 O1'         0.6440   -1.1640    1.1060 o         1 1AA     -0.887500
     20 O9          0.7450    0.4280    3.0020 o         1 1AA     -0.887500
     21 O3          0.1770    1.2900    0.6890 os        1 1AA     -1.296000
     22 P2          1.5350    1.9570    0.3320 p5        1 1AA      2.075000
     23 O8          1.9280    2.9210    1.4340 o         1 1AA     -0.874500
     24 O7          2.5990    0.8930    0.1930 o         1 1AA     -0.874500
     25 O4          1.3910    2.7620   -1.0690 os        1 1AA     -0.750000
     26 C7          2.5520    2.9870   -1.8380 c3        1 1AA      0.018000
     27 C8          2.1820    3.7470   -3.1100 c3        1 1AA     -0.051000
     28 O5          3.2040    3.5490   -4.1010 os        1 1AA     -0.276000
     29 C9          2.7460    3.7000   -5.4430 c2        1 1AA      0.362000
     30 O6          1.6180    4.0630   -5.6550 o         1 1AA     -0.397000
     31 C1'         3.6340    3.3020   -6.5900 c2        1 1AA     -0.222000
     32 C2'         4.7030    4.1230   -6.9600 c2        1 1AA     -0.028000
     33 C3'         5.5990    3.7070   -7.9820 c1        1 1AA     -0.256000
     34 C4'         5.4100    2.4720   -8.6210 c1        1 1AA     -0.156000
     35 C5'         4.3240    1.6380   -8.2450 c1        1 1AA     -0.156000
     36 C6'         3.4420    2.0470   -7.2390 c1        1 1AA      0.182000
     37 N1          2.3890    1.1700   -6.8070 n3        1 1AA     -0.296000
     38 HN31       -0.3630   -3.9380    8.6700 hn        1 1AA      0.198500
     39 HN32        0.5760   -4.6900    7.6060 hn        1 1AA      0.198500
     40 H8'        -0.3680   -5.2280    5.2930 ha        1 1AA      0.155000
     41 H7'        -2.0360   -4.8000    3.5430 ha        1 1AA      0.204000
     42 H2         -4.8980   -3.8320    3.8320 h2        1 1AA      0.136000
     43 H3         -4.4010   -1.2460    4.5350 h1        1 1AA      0.085000
     44 H4'        -6.4190   -1.2830    4.4620 ho        1 1AA      0.198000
     45 H4         -3.8340   -0.1580    2.7080 h1        1 1AA      0.162000
     46 H6         -5.4210    0.0310    1.2680 ho        1 1AA      0.273000
     47 H5         -3.3150   -1.7910    1.0570 h1        1 1AA      0.142000
     48 H61        -1.9820   -1.3690    3.5530 h1        1 1AA      0.062000
     49 H62        -1.2610   -2.1490    2.3130 h1        1 1AA      0.062000
     50 H71         2.9560    2.1310   -2.0760 h1        1 1AA      0.083000
     51 H72         3.1760    3.5030   -1.3280 h1        1 1AA      0.083000
     52 H81         2.1020    4.7150   -2.9070 h1        1 1AA      0.107000
     53 H82         1.3260    3.4130   -3.4520 h1        1 1AA      0.107000
     54 H2'         4.8350    4.9810   -6.5150 ha        1 1AA      0.127000
     55 H3'         6.2720    4.3120   -8.3020 ha        1 1AA      0.110000
     56 H1          6.0310    2.1830   -9.3300 ha        1 1AA      0.116000
     57 H5'         4.1930    0.7810   -8.6880 ha        1 1AA      0.116000
     58 HN11        1.5050    1.3600   -7.0260 hn        1 1AA      0.257500
     59 HN12        2.5890    0.4180   -6.3240 hn        1 1AA      0.257500
@<TRIPOS>BOND
     1    1    2 1   
     2    2    8 1   
     3    3    4 1   
     4    4    6 1   
     5    5   38 1   
     6    5   39 1   
     7    6    7 1   
     8    6   40 1   
     9    7   41 1   
    10    8    9 1   
    11    9   10 1   
    12    9   11 1   
    13    9   42 1   
    14   10   15 1   
    15   11   12 1   
    16   11   13 1   
    17   11   43 1   
    18   12   44 1   
    19   13   14 1   
    20   13   15 1   
    21   13   45 1   
    22   14   46 1   
    23   15   16 1   
    24   15   47 1   
    25   16   17 1   
    26   16   48 1   
    27   16   49 1   
    28   17   18 1   
    29   18   19 1   
    30   18   20 1   
    31   18   21 1   
    32   21   22 1   
    33   22   23 1   
    34   22   24 1   
    35   22   25 1   
    36   25   26 1   
    37   26   27 1   
    38   26   50 1   
    39   26   51 1   
    40   27   28 1   
    41   27   52 1   
    42   27   53 1   
    43   28   29 1   
    44   29   30 1   
    45   29   31 1   
    46   31   32 1   
    47   31   36 1   
    48   32   33 1   
    49   32   54 1   
    50   33   55 1   
    51   34   35 1   
    52   34   56 1   
    53   35   57 1   
    54   36   37 1   
    55   37   58 1   
    56   37   59 1   
@<TRIPOS>SUBSTRUCTURE
     1 1AA         1 TEMP              0 ****  ****    0 ROOT
