@<TRIPOS>MOLECULE
1AA
   59    61     1     0     0
SMALL
bcc


@<TRIPOS>ATOM
      1 O1         -8.4980    0.3970    2.2530 o         1 1AA     -0.639500
      2 C1         -8.0290    0.9730    1.2470 c         1 1AA      0.831900
      3 N4         -8.8140    1.8480    0.4770 nc        1 1AA     -0.742100
      4 C9'        -8.2470    2.4780   -0.5660 cd        1 1AA      0.729500
      5 N3         -8.9830    3.4170   -1.2880 nh        1 1AA     -0.905800
      6 C8'        -6.8610    2.2580   -0.9440 cd        1 1AA     -0.450600
      7 C7'        -6.1230    1.3780   -0.1870 cc        1 1AA      0.090600
      8 N2         -6.6610    0.7060    0.8750 n         1 1AA     -0.376000
      9 C2         -5.8480   -0.2190    1.6730 c3        1 1AA      0.253500
     10 O2'        -4.5690    0.3540    1.9310 os        1 1AA     -0.427600
     11 C3         -5.6240   -1.6070    0.9860 c3        1 1AA      0.109100
     12 O4'        -5.9450   -2.6270    1.9040 oh        1 1AA     -0.594800
     13 C4         -4.1450   -1.5830    0.5430 c3        1 1AA      0.117100
     14 O3'        -3.5410   -2.7920    0.9410 oh        1 1AA     -0.648800
     15 C5         -3.5130   -0.3820    1.2760 c3        1 1AA      0.055100
     16 C6         -2.7200    0.5750    0.3640 c3        1 1AA      0.206400
     17 O2         -1.3830    0.2240    0.3340 os        1 1AA     -0.560200
     18 P1         -0.8950   -0.5450   -1.0790 p5        1 1AA      1.526800
     19 O1'        -1.0510    0.4000   -2.2020 o         1 1AA     -0.879500
     20 O9         -1.6210   -1.8290   -0.9090 o         1 1AA     -0.879500
     21 O3          0.6750   -0.5310   -1.0490 os        1 1AA     -0.695800
     22 P2          1.5480    0.3460   -2.0860 p5        1 1AA      1.537800
     23 O8          1.6230    1.7920   -1.7970 o         1 1AA     -0.856500
     24 O7          1.6530   -0.2520   -3.4370 o         1 1AA     -0.856500
     25 O4          3.0110   -0.1850   -1.3920 os        1 1AA     -0.563200
     26 C7          4.1260   -0.0250   -2.1810 c3        1 1AA      0.216400
     27 C8          5.0760    1.0380   -1.6040 c3        1 1AA      0.103400
     28 O5          5.9680    0.3240   -0.7130 os        1 1AA     -0.411900
     29 C9          6.9150    1.0390   -0.0680 c         1 1AA      0.648700
     30 O6          7.0980    2.2280   -0.3790 o         1 1AA     -0.605000
     31 C1'         7.6310    0.2690    0.9700 ca        1 1AA     -0.186600
     32 C2'         7.0310   -0.8940    1.4670 ca        1 1AA     -0.026000
     33 C3'         7.6310   -1.6300    2.4840 ca        1 1AA     -0.200000
     34 C4'         8.8440   -1.2010    3.0200 ca        1 1AA     -0.080000
     35 C5'         9.4630   -0.0550    2.5420 ca        1 1AA     -0.229000
     36 C6'         8.8800    0.7030    1.4920 ca        1 1AA      0.194600
     37 N1          9.5770    1.7840    0.9590 nh        1 1AA     -0.832200
     38 HN31       -9.9690    3.4210   -1.1650 hn        1 1AA      0.409800
     39 HN32       -8.6630    3.5800   -2.2130 hn        1 1AA      0.409800
     40 H8'        -6.4050    2.7880   -1.7860 ha        1 1AA      0.159000
     41 H7'        -5.0510    1.1810   -0.4090 h4        1 1AA      0.195000
     42 H2         -6.3590   -0.3420    2.6750 h2        1 1AA      0.118700
     43 H3         -6.3130   -1.7680    0.1160 h1        1 1AA      0.076700
     44 H4'        -5.1350   -2.8740    2.3710 ho        1 1AA      0.426000
     45 H4         -4.0760   -1.4630   -0.5720 h1        1 1AA      0.086700
     46 H6         -2.7090   -2.8640    0.4290 ho        1 1AA      0.496000
     47 H5         -2.8370   -0.7420    2.1010 h1        1 1AA      0.092700
     48 H61        -3.1480    0.5690   -0.6790 h1        1 1AA      0.020200
     49 H62        -2.8090    1.6130    0.7940 h1        1 1AA      0.020200
     50 H71         4.6880   -1.0020   -2.2370 h1        1 1AA      0.023700
     51 H72         3.8460    0.2980   -3.2250 h1        1 1AA      0.023700
     52 H81         5.6980    1.5190   -2.4010 h1        1 1AA      0.054200
     53 H82         4.5250    1.8130   -1.0140 h1        1 1AA      0.054200
     54 H2'         6.0620   -1.2150    1.0390 ha        1 1AA      0.184000
     55 H3'         7.1440   -2.5380    2.8650 ha        1 1AA      0.132000
     56 H1          9.3170   -1.7720    3.8320 ha        1 1AA      0.114000
     57 H5'        10.4210    0.2650    2.9770 ha        1 1AA      0.117000
     58 HN11       10.1590    2.2580    1.6110 hn        1 1AA      0.406300
     59 HN12        9.0400    2.3960    0.3780 hn        1 1AA      0.406300
@<TRIPOS>BOND
     1    1    2 2   
     2    2    3 1   
     3    2    8 1   
     4    3    4 2   
     5    4    5 1   
     6    4    6 1   
     7    5   38 1   
     8    5   39 1   
     9    6    7 2   
    10    6   40 1   
    11    7    8 1   
    12    7   41 1   
    13    8    9 1   
    14    9   10 1   
    15    9   11 1   
    16    9   42 1   
    17   10   15 1   
    18   11   12 1   
    19   11   13 1   
    20   11   43 1   
    21   12   44 1   
    22   13   14 1   
    23   13   15 1   
    24   13   45 1   
    25   14   46 1   
    26   15   16 1   
    27   15   47 1   
    28   16   17 1   
    29   16   48 1   
    30   16   49 1   
    31   17   18 1   
    32   18   19 1   
    33   18   20 1   
    34   18   21 1   
    35   21   22 1   
    36   22   23 1   
    37   22   24 1   
    38   22   25 1   
    39   25   26 1   
    40   26   27 1   
    41   26   50 1   
    42   26   51 1   
    43   27   28 1   
    44   27   52 1   
    45   27   53 1   
    46   28   29 1   
    47   29   30 2   
    48   29   31 1   
    49   31   32 ar  
    50   31   36 ar  
    51   32   33 ar  
    52   32   54 1   
    53   33   34 ar  
    54   33   55 1   
    55   34   35 ar  
    56   34   56 1   
    57   35   36 ar  
    58   35   57 1   
    59   36   37 1   
    60   37   58 1   
    61   37   59 1   
@<TRIPOS>SUBSTRUCTURE
     1 1AA         1 TEMP              0 ****  ****    0 ROOT
