@<TRIPOS>MOLECULE
1AB
   20    20     1     0     0
SMALL
bcc


@<TRIPOS>ATOM
      1 O4         -2.0340    0.7100    0.0660 oh        1 1AB     -0.595800
      2 C4         -0.7000    0.7100    0.0660 c3        1 1AB      0.122100
      3 C3         -0.1730    0.7100    1.4920 c3        1 1AB      0.075100
      4 O3          0.9020    1.7100    1.6400 oh        1 1AB     -0.593800
      5 C2          0.3120   -0.5260    1.6860 c3        1 1AB      0.116800
      6 N1          0.7490   -1.0720    0.2470 n3        1 1AB     -0.798200
      7 C5         -0.1460   -0.6330   -0.6010 c3        1 1AB      0.118500
      8 C6          0.4910   -0.3350   -1.9310 c3        1 1AB      0.145400
      9 O6          0.6630   -1.5350   -2.6500 oh        1 1AB     -0.599800
     10 HO4        -2.3300    1.4890   -0.2400 ho        1 1AB      0.409000
     11 H4         -0.3630    1.4890   -0.4160 h1        1 1AB      0.071700
     12 H3         -0.8970    0.8930    2.1220 h1        1 1AB      0.051700
     13 HO3         0.7160    2.2460    2.3220 ho        1 1AB      0.406000
     14 H21        -0.3790   -1.1010    2.0670 h1        1 1AB      0.056700
     15 H22         1.0860   -0.4920    2.2810 h1        1 1AB      0.056700
     16 HN1         0.7410   -1.9840    0.2520 hn        1 1AB      0.361800
     17 H5         -0.8660   -1.2840   -0.7050 h1        1 1AB      0.084700
     18 H61        -0.0830    0.2700   -2.4390 h1        1 1AB      0.049700
     19 H62         1.3610    0.0860   -1.7890 h1        1 1AB      0.049700
     20 HO6         0.9500   -1.3510   -3.4690 ho        1 1AB      0.411000
@<TRIPOS>BOND
     1    1    2 1   
     2    1   10 1   
     3    2    3 1   
     4    2    7 1   
     5    2   11 1   
     6    3    4 1   
     7    3    5 1   
     8    3   12 1   
     9    4   13 1   
    10    5    6 1   
    11    5   14 1   
    12    5   15 1   
    13    6    7 1   
    14    6   16 1   
    15    7    8 1   
    16    7   17 1   
    17    8    9 1   
    18    8   18 1   
    19    8   19 1   
    20    9   20 1   
@<TRIPOS>SUBSTRUCTURE
     1 1AB         1 TEMP              0 ****  ****    0 ROOT
