@<TRIPOS>MOLECULE
1AB
   20    20     1     0     0
SMALL
bcc


@<TRIPOS>ATOM
      1 O4         -0.1350   -0.0990   -0.0760 oh        1 1AB     -0.587800
      2 C4          1.2750    0.0000   -0.0760 c3        1 1AB      0.129100
      3 C3          1.8420    0.0730    1.3610 c3        1 1AB      0.088100
      4 O3          2.4720    1.3330    1.5000 oh        1 1AB     -0.601800
      5 C2          2.8420   -1.0990    1.4740 c3        1 1AB      0.123800
      6 N1          2.6750   -1.9740    0.3230 n7        1 1AB     -0.795200
      7 C5          1.8310   -1.3210   -0.6780 c3        1 1AB      0.168500
      8 C6          2.5200   -0.9920   -2.0130 c3        1 1AB      0.106400
      9 O6          3.0630   -2.1960   -2.5260 oh        1 1AB     -0.597800
     10 HO4        -0.4710    0.7270    0.2930 ho        1 1AB      0.407000
     11 H4          1.5990    0.9000   -0.6660 h1        1 1AB      0.060700
     12 H3          1.0190   -0.0280    2.1190 h1        1 1AB      0.057700
     13 HO3         2.8930    1.3420    2.3680 ho        1 1AB      0.407000
     14 H21         3.8880   -0.6940    1.5690 h1        1 1AB      0.045200
     15 H22         2.6220   -1.7090    2.3920 h1        1 1AB      0.045200
     16 HN1         3.5560   -2.2430   -0.0720 hn        1 1AB      0.376800
     17 H5          0.9770   -2.0290   -0.8870 h1        1 1AB      0.102700
     18 H61         3.3440   -0.2410   -1.8690 h1        1 1AB      0.029700
     19 H62         1.7570   -0.5710   -2.7210 h1        1 1AB      0.029700
     20 HO6         3.3680   -2.0010   -3.4200 ho        1 1AB      0.403000
@<TRIPOS>BOND
     1    1    2 1   
     2    1   10 1   
     3    2    3 1   
     4    2    7 1   
     5    2   11 1   
     6    3    4 1   
     7    3    5 1   
     8    3   12 1   
     9    4   13 1   
    10    5    6 1   
    11    5   14 1   
    12    5   15 1   
    13    6    7 1   
    14    6   16 1   
    15    7    8 1   
    16    7   17 1   
    17    8    9 1   
    18    8   18 1   
    19    8   19 1   
    20    9   20 1   
@<TRIPOS>SUBSTRUCTURE
     1 1AB         1 TEMP              0 ****  ****    0 ROOT
