@<TRIPOS>MOLECULE
1AB
   20    20     1     0     0
SMALL
bcc


@<TRIPOS>ATOM
      1 O4         -0.7070    2.0180   -0.9060 oh        1 1AB     -0.595800
      2 C4         -0.5030    0.9590    0.0080 c3        1 1AB      0.122100
      3 C3         -1.5760   -0.1430   -0.1710 c3        1 1AB      0.075100
      4 O3         -2.2720   -0.2580    1.0550 oh        1 1AB     -0.593800
      5 C2         -0.7850   -1.4240   -0.5280 c3        1 1AB      0.116800
      6 N1          0.5850   -1.0650   -0.8680 n3        1 1AB     -0.798200
      7 C5          0.8510    0.2890   -0.3650 c3        1 1AB      0.118500
      8 C6          1.7650    0.2740    0.8740 c3        1 1AB      0.145400
      9 O6          3.0630   -0.1770    0.5580 oh        1 1AB     -0.599800
     10 HO4        -1.4960    2.4910   -0.6130 ho        1 1AB      0.409000
     11 H4         -0.5040    1.3400    1.0640 h1        1 1AB      0.071700
     12 H3         -2.2950    0.1300   -0.9900 h1        1 1AB      0.051700
     13 HO3        -2.8260   -1.0460    0.9910 ho        1 1AB      0.406000
     14 H21        -1.2820   -1.9780   -1.3660 h1        1 1AB      0.056700
     15 H22        -0.7490   -2.1010    0.3710 h1        1 1AB      0.056700
     16 HN1         0.7140   -1.0850   -1.8630 hn        1 1AB      0.361800
     17 H5          1.3640    0.9060   -1.1590 h1        1 1AB      0.084700
     18 H61         1.3180   -0.3510    1.6910 h1        1 1AB      0.049700
     19 H62         1.9100    1.3280    1.2350 h1        1 1AB      0.049700
     20 HO6         2.9890   -1.0930    0.2620 ho        1 1AB      0.411000
@<TRIPOS>BOND
     1    1    2 1   
     2    1   10 1   
     3    2    3 1   
     4    2    7 1   
     5    2   11 1   
     6    3    4 1   
     7    3    5 1   
     8    3   12 1   
     9    4   13 1   
    10    5    6 1   
    11    5   14 1   
    12    5   15 1   
    13    6    7 1   
    14    6   16 1   
    15    7    8 1   
    16    7   17 1   
    17    8    9 1   
    18    8   18 1   
    19    8   19 1   
    20    9   20 1   
@<TRIPOS>SUBSTRUCTURE
     1 1AB         1 TEMP              0 ****  ****    0 ROOT
