@<TRIPOS>MOLECULE
1AB
   20    20     1     0     0
SMALL
bcc


@<TRIPOS>ATOM
      1 O4         -0.1740   -0.2610    0.0870 oh        1 1AB     -0.595800
      2 C4          1.2180   -0.0600   -0.0600 c3        1 1AB      0.122100
      3 C3          1.9220   -0.0280    1.3190 c3        1 1AB      0.075100
      4 O3          2.5430    1.2360    1.4460 oh        1 1AB     -0.593800
      5 C2          2.9430   -1.1900    1.2780 c3        1 1AB      0.116800
      6 N1          2.6510   -2.0480    0.1380 n3        1 1AB     -0.798200
      7 C5          1.7850   -1.3120   -0.7910 c3        1 1AB      0.118500
      8 C6          2.5450   -0.8590   -2.0500 c3        1 1AB      0.145400
      9 O6          2.9470   -1.9560   -2.8400 oh        1 1AB     -0.599800
     10 HO4        -0.5370    0.5550    0.4520 ho        1 1AB      0.409000
     11 H4          1.4240    0.8850   -0.6280 h1        1 1AB      0.071700
     12 H3          1.1790   -0.1700    2.1490 h1        1 1AB      0.051700
     13 HO3         3.1080    1.1940    2.2270 ho        1 1AB      0.406000
     14 H21         2.9260   -1.7680    2.2400 h1        1 1AB      0.056700
     15 H22         3.9780   -0.7710    1.1360 h1        1 1AB      0.056700
     16 HN1         2.1840   -2.8840    0.4410 hn        1 1AB      0.361800
     17 H5          0.9280   -1.9650   -1.1270 h1        1 1AB      0.084700
     18 H61         1.8480   -0.2740   -2.7090 h1        1 1AB      0.049700
     19 H62         3.4290   -0.2250   -1.7760 h1        1 1AB      0.049700
     20 HO6         3.5690   -2.4770   -2.3170 ho        1 1AB      0.411000
@<TRIPOS>BOND
     1    1    2 1   
     2    1   10 1   
     3    2    3 1   
     4    2    7 1   
     5    2   11 1   
     6    3    4 1   
     7    3    5 1   
     8    3   12 1   
     9    4   13 1   
    10    5    6 1   
    11    5   14 1   
    12    5   15 1   
    13    6    7 1   
    14    6   16 1   
    15    7    8 1   
    16    7   17 1   
    17    8    9 1   
    18    8   18 1   
    19    8   19 1   
    20    9   20 1   
@<TRIPOS>SUBSTRUCTURE
     1 1AB         1 TEMP              0 ****  ****    0 ROOT
