@<TRIPOS>MOLECULE
1AB
   20    20     1     0     0
SMALL
bcc


@<TRIPOS>ATOM
      1 O4         -0.1800   -0.2870    0.0660 oh        1 1AB     -0.595800
      2 C4          1.2100   -0.0710   -0.0720 c3        1 1AB      0.122100
      3 C3          1.9030   -0.0210    1.3120 c3        1 1AB      0.075100
      4 O3          2.5080    1.2520    1.4360 oh        1 1AB     -0.593800
      5 C2          2.9390   -1.1710    1.2880 c3        1 1AB      0.116800
      6 N1          2.6660   -2.0400    0.1510 n3        1 1AB     -0.798200
      7 C5          1.7970   -1.3210   -0.7890 c3        1 1AB      0.118500
      8 C6          2.5610   -0.8680   -2.0470 c3        1 1AB      0.145400
      9 O6          2.9820   -1.9670   -2.8250 oh        1 1AB     -0.599800
     10 HO4        -0.5550    0.5270    0.4220 ho        1 1AB      0.409000
     11 H4          1.4100    0.8720   -0.6450 h1        1 1AB      0.071700
     12 H3          1.1560   -0.1660    2.1380 h1        1 1AB      0.051700
     13 HO3         3.0680    1.2230    2.2210 ho        1 1AB      0.406000
     14 H21         2.9230   -1.7410    2.2530 h1        1 1AB      0.056700
     15 H22         3.9700   -0.7390    1.1490 h1        1 1AB      0.056700
     16 HN1         2.2080   -2.8790    0.4570 hn        1 1AB      0.361800
     17 H5          0.9510   -1.9880   -1.1260 h1        1 1AB      0.084700
     18 H61         1.8610   -0.2970   -2.7150 h1        1 1AB      0.049700
     19 H62         3.4360   -0.2220   -1.7710 h1        1 1AB      0.049700
     20 HO6         3.6060   -2.4770   -2.2940 ho        1 1AB      0.411000
@<TRIPOS>BOND
     1    1    2 1   
     2    1   10 1   
     3    2    3 1   
     4    2    7 1   
     5    2   11 1   
     6    3    4 1   
     7    3    5 1   
     8    3   12 1   
     9    4   13 1   
    10    5    6 1   
    11    5   14 1   
    12    5   15 1   
    13    6    7 1   
    14    6   16 1   
    15    7    8 1   
    16    7   17 1   
    17    8    9 1   
    18    8   18 1   
    19    8   19 1   
    20    9   20 1   
@<TRIPOS>SUBSTRUCTURE
     1 1AB         1 TEMP              0 ****  ****    0 ROOT
