@<TRIPOS>MOLECULE
1AC
   13    13     1     0     0
SMALL
bcc


@<TRIPOS>ATOM
      1 CB         -0.7050   -0.7220   -1.6220 cx        1 1AC     -0.122400
      2 CG         -0.6430    0.7710   -1.5120 cx        1 1AC     -0.122400
      3 CA          0.2690   -0.0820   -0.6470 cx        1 1AC     -0.017800
      4 C          -0.1180   -0.1760    0.8480 c         1 1AC      0.915600
      5 OXT         0.8220   -0.2770    1.6890 o         1 1AC     -0.842800
      6 O          -1.3420   -0.1470    1.1530 o         1 1AC     -0.842800
      7 N           1.6830   -0.1190   -0.9410 n3        1 1AC     -0.864800
      8 HB1        -0.3250   -1.2070   -2.5360 hc        1 1AC      0.056200
      9 HB2        -1.5710   -1.2480   -1.1800 hc        1 1AC      0.056200
     10 HG1        -1.4660    1.2960   -0.9940 hc        1 1AC      0.056200
     11 HG2        -0.2190    1.3510   -2.3480 hc        1 1AC      0.056200
     12 H           2.1090    0.6330   -0.4250 hn        1 1AC      0.336800
     13 H2          2.0420   -0.9710   -0.5420 hn        1 1AC      0.336800
@<TRIPOS>BOND
     1    1    2 1   
     2    1    3 1   
     3    1    8 1   
     4    1    9 1   
     5    2    3 1   
     6    2   10 1   
     7    2   11 1   
     8    3    4 1   
     9    3    7 1   
    10    4    5 1   
    11    4    6 1   
    12    7   12 1   
    13    7   13 1   
@<TRIPOS>SUBSTRUCTURE
     1 1AC         1 TEMP              0 ****  ****    0 ROOT
