@<TRIPOS>MOLECULE
1AD
   44    43     1     0     0
SMALL
bcc


@<TRIPOS>ATOM
      1 C2          0.7400   -1.1580   -2.5500 c3        1 1AD      0.140000
      2 C3          1.2010   -1.5190   -0.2230 c3        1 1AD      0.032000
      3 C4         -0.4520    0.2350   -0.4540 c1        1 1AD      0.260000
      4 C5          2.0740   -1.4050   -2.5700 c3        1 1AD     -0.167000
      5 C6          0.4350   -0.1010   -3.4820 c1        1 1AD     -0.176000
      6 C7          2.4430   -1.8640   -1.1290 c3        1 1AD     -0.161000
      7 C8          1.6590   -0.7750    1.0460 c3        1 1AD     -0.093000
      8 C9         -0.6470    0.4990    1.3400 c2        1 1AD     -0.023000
      9 N1          0.4530   -0.7600   -0.9360 n3        1 1AD     -0.325000
     10 O10        -1.1070    0.8910   -1.2400 o         1 1AD     -0.370000
     11 C11         0.1840    0.7730   -4.2520 c1        1 1AD     -0.146000
     12 N12         2.9550   -1.2310    1.4230 n3        1 1AD     -0.351000
     13 C13        -1.3870    0.6850    1.4910 c3        1 1AD     -0.105000
     14 N14         0.3830    1.8080    1.8380 n3        1 1AD     -0.328000
     15 C15        -0.1360    1.8810   -5.2280 c2        1 1AD     -0.110000
     16 C16        -1.5960    0.8540    2.9310 c3        1 1AD     -0.153000
     17 C17        -1.8740    0.1160    1.2480 c3        1 1AD     -0.153000
     18 C18        -2.7370    0.7580    3.1040 c3        1 1AD     -0.158500
     19 C19        -3.0850    0.1360    2.2640 c3        1 1AD     -0.158500
     20 H2          0.1350   -1.8630   -2.8550 h1        1 1AD      0.130000
     21 H3          0.7210   -2.3370    0.0180 h1        1 1AD      0.089000
     22 H51         2.5650   -0.5890   -2.8010 hc        1 1AD      0.097500
     23 H52         2.2770   -2.1160   -3.2130 hc        1 1AD      0.097500
     24 H71         3.2330   -1.3800   -0.8140 hc        1 1AD      0.102000
     25 H72         2.6120   -2.8280   -1.1160 hc        1 1AD      0.102000
     26 H81         1.0280   -0.9500    1.7730 h1        1 1AD      0.076500
     27 H82         1.6910    0.1870    0.8670 h1        1 1AD      0.076500
     28 H9         -0.4040   -0.3180    1.8250 h4        1 1AD      0.107000
     29 H121        2.8780   -1.8520    2.0920 hn        1 1AD      0.148000
     30 H122        3.4530   -0.5230    1.7210 hn        1 1AD      0.148000
     31 H13        -1.6130    1.5270    1.0290 hc        1 1AD      0.113000
     32 H141        0.7400    2.2120    1.1000 hn        1 1AD      0.156000
     33 H142        1.0570    1.4820    2.3630 hn        1 1AD      0.156000
     34 H151        0.3630    1.7380   -6.0590 ha        1 1AD      0.094333
     35 H152       -1.0970    1.8800   -5.4210 ha        1 1AD      0.094333
     36 H153        0.1180    2.7430   -4.8390 ha        1 1AD      0.094333
     37 H161       -1.2850    1.7390    3.2160 hc        1 1AD      0.085500
     38 H162       -1.1190    0.1540    3.4250 hc        1 1AD      0.085500
     39 H171       -2.1920    0.3060    0.3350 hc        1 1AD      0.085500
     40 H172       -1.4190   -0.7560    1.2780 hc        1 1AD      0.085500
     41 H181       -2.9190    0.3110    3.9610 hc        1 1AD      0.080500
     42 H182       -3.1660    1.6430    3.0790 hc        1 1AD      0.080500
     43 H191       -3.2870   -0.7730    2.5720 hc        1 1AD      0.080500
     44 H192       -3.8760    0.5400    1.8450 hc        1 1AD      0.080500
@<TRIPOS>BOND
     1    1    4 1   
     2    1    5 1   
     3    1    9 1   
     4    1   20 1   
     5    2    6 1   
     6    2    7 1   
     7    2    9 1   
     8    2   21 1   
     9    3    9 1   
    10    3   10 1   
    11    4    6 1   
    12    4   22 1   
    13    4   23 1   
    14    5   11 1   
    15    6   24 1   
    16    6   25 1   
    17    7   12 1   
    18    7   26 1   
    19    7   27 1   
    20    8   13 1   
    21    8   14 1   
    22    8   28 1   
    23   12   29 1   
    24   12   30 1   
    25   13   16 1   
    26   13   17 1   
    27   13   31 1   
    28   14   32 1   
    29   14   33 1   
    30   15   34 1   
    31   15   35 1   
    32   15   36 1   
    33   16   18 1   
    34   16   37 1   
    35   16   38 1   
    36   17   19 1   
    37   17   39 1   
    38   17   40 1   
    39   18   19 1   
    40   18   41 1   
    41   18   42 1   
    42   19   43 1   
    43   19   44 1   
@<TRIPOS>SUBSTRUCTURE
     1 1AD         1 TEMP              0 ****  ****    0 ROOT
