@<TRIPOS>MOLECULE
1AD
   44    45     1     0     0
SMALL
bcc


@<TRIPOS>ATOM
      1 C2         -1.5850   -0.7400   -1.1190 c3        1 1AD      0.197800
      2 C3         -2.5140    1.0340    0.2340 c3        1 1AD      0.054700
      3 C4         -0.1200    1.1710   -0.3690 c         1 1AD      0.623100
      4 C5         -3.1270   -0.7810   -1.3100 c3        1 1AD     -0.083400
      5 C6         -1.1200   -1.9820   -0.5350 c1        1 1AD     -0.170100
      6 C7         -3.7070    0.2940   -0.4040 c3        1 1AD     -0.087400
      7 C8         -2.5980    0.9450    1.7810 c3        1 1AD      0.154800
      8 C9          1.1550    0.5780   -1.0180 c3        1 1AD      0.123500
      9 N1         -1.2930    0.4460   -0.3180 n         1 1AD     -0.460800
     10 O10        -0.0810    2.3130    0.1450 o         1 1AD     -0.640100
     11 C11        -0.7500   -3.0220   -0.0720 c1        1 1AD     -0.104100
     12 N12        -1.5480    1.5860    2.5210 n3        1 1AD     -0.896800
     13 C13         1.8320   -0.3370    0.0220 c3        1 1AD     -0.068700
     14 N14         2.0350    1.5910   -1.5600 n3        1 1AD     -0.889800
     15 C15        -0.3050   -4.2630    0.4710 c3        1 1AD     -0.024000
     16 C16         3.0710   -1.0200   -0.5580 c3        1 1AD     -0.080900
     17 C17         2.3050    0.4180    1.2650 c3        1 1AD     -0.080900
     18 C18         4.2880   -0.2940   -0.0030 c3        1 1AD     -0.079400
     19 C19         3.8210    0.5370    1.1850 c3        1 1AD     -0.079400
     20 H2         -1.0910   -0.6340   -2.1350 h1        1 1AD      0.066700
     21 H3         -2.5360    2.1270   -0.0530 h1        1 1AD      0.068700
     22 H51        -3.3700   -0.5760   -2.3820 hc        1 1AD      0.059700
     23 H52        -3.5290   -1.7900   -1.0510 hc        1 1AD      0.059700
     24 H71        -4.3340    1.0130   -0.9870 hc        1 1AD      0.056200
     25 H72        -4.3550   -0.1600    0.3870 hc        1 1AD      0.056200
     26 H81        -3.5750    1.4250    2.0730 h1        1 1AD      0.053200
     27 H82        -2.6370   -0.1390    2.0850 h1        1 1AD      0.053200
     28 H9          0.8490   -0.0660   -1.8980 h1        1 1AD      0.070700
     29 H121       -0.6700    1.1280    2.3640 hn        1 1AD      0.354300
     30 H122       -1.4480    2.5430    2.2360 hn        1 1AD      0.354300
     31 H13         1.0710   -1.1130    0.3110 hc        1 1AD      0.067700
     32 H141        1.5040    2.3580   -1.9250 hn        1 1AD      0.361300
     33 H142        2.6540    1.9370   -0.8500 hn        1 1AD      0.361300
     34 H151       -0.8880   -4.5210    1.3930 hc        1 1AD      0.059033
     35 H152       -0.4390   -5.0890   -0.2760 hc        1 1AD      0.059033
     36 H153        0.7810   -4.2050    0.7440 hc        1 1AD      0.059033
     37 H161        3.0840   -2.0940   -0.2400 hc        1 1AD      0.050700
     38 H162        3.0670   -1.0010   -1.6760 hc        1 1AD      0.050700
     39 H171        1.8230    1.4260    1.3380 hc        1 1AD      0.050700
     40 H172        2.0120   -0.1540    2.1820 hc        1 1AD      0.050700
     41 H181        5.0780   -1.0240    0.3040 hc        1 1AD      0.042450
     42 H182        4.7320    0.3690   -0.7880 hc        1 1AD      0.042450
     43 H191        4.2920    0.1720    2.1330 hc        1 1AD      0.042450
     44 H192        4.1250    1.6060    1.0570 hc        1 1AD      0.042450
@<TRIPOS>BOND
     1    1    4 1   
     2    1    5 1   
     3    1    9 1   
     4    1   20 1   
     5    2    6 1   
     6    2    7 1   
     7    2    9 1   
     8    2   21 1   
     9    3    8 1   
    10    3    9 1   
    11    3   10 2   
    12    4    6 1   
    13    4   22 1   
    14    4   23 1   
    15    5   11 3   
    16    6   24 1   
    17    6   25 1   
    18    7   12 1   
    19    7   26 1   
    20    7   27 1   
    21    8   13 1   
    22    8   14 1   
    23    8   28 1   
    24   11   15 1   
    25   12   29 1   
    26   12   30 1   
    27   13   16 1   
    28   13   17 1   
    29   13   31 1   
    30   14   32 1   
    31   14   33 1   
    32   15   34 1   
    33   15   35 1   
    34   15   36 1   
    35   16   18 1   
    36   16   37 1   
    37   16   38 1   
    38   17   19 1   
    39   17   39 1   
    40   17   40 1   
    41   18   19 1   
    42   18   41 1   
    43   18   42 1   
    44   19   43 1   
    45   19   44 1   
@<TRIPOS>SUBSTRUCTURE
     1 1AD         1 TEMP              0 ****  ****    0 ROOT
