@<TRIPOS>MOLECULE
1AD
   46    47     1     0     0
SMALL
bcc


@<TRIPOS>ATOM
      1 C2         -0.0520    0.1680    0.1060 c3        1 1AD      0.207800
      2 C3          0.6360   -1.0140    2.1170 c3        1 1AD      0.084700
      3 C4         -1.6970   -1.2800    1.3700 c         1 1AD      0.659100
      4 C5          1.4970    0.0860    0.0840 c3        1 1AD     -0.087400
      5 C6         -0.4980    1.5360    0.1790 c1        1 1AD     -0.285100
      6 C7          1.9260   -0.5510    1.3960 c3        1 1AD     -0.087400
      7 C8          0.6130   -0.3690    3.5220 c3        1 1AD      0.084800
      8 C9         -2.7710   -1.1630    0.2650 c3        1 1AD      0.070500
      9 N1         -0.4910   -0.6560    1.2540 n         1 1AD     -0.438800
     10 O10        -1.9700   -1.9580    2.3980 o         1 1AD     -0.689100
     11 C11        -0.8010    2.6970    0.1700 c1        1 1AD      0.011900
     12 N12        -0.3630   -0.9940    4.4540 nz        1 1AD     -0.835600
     13 C13        -3.5870    0.1310    0.4400 c3        1 1AD     -0.096700
     14 N14        -3.6650   -2.3710    0.3030 nz        1 1AD     -0.836600
     15 C15        -1.1540    4.0780    0.1430 c3        1 1AD     -0.062000
     16 C16        -4.5480    0.3420   -0.7340 c3        1 1AD     -0.104400
     17 C17        -4.4610    0.1190    1.6940 c3        1 1AD     -0.104400
     18 C18        -5.9420   -0.0470   -0.2560 c3        1 1AD     -0.101400
     19 C19        -5.8720   -0.2510    1.2520 c3        1 1AD     -0.101400
     20 H2         -0.4580   -0.2960   -0.8450 h1        1 1AD      0.075700
     21 H3          0.6460   -2.1400    2.2360 h1        1 1AD      0.088700
     22 H51         1.8250   -0.5340   -0.7890 hc        1 1AD      0.098200
     23 H52         1.9410    1.1060   -0.0370 hc        1 1AD      0.098200
     24 H71         2.5900   -1.4350    1.2180 hc        1 1AD      0.090200
     25 H72         2.4970    0.1840    2.0190 hc        1 1AD      0.090200
     26 H81         1.6420   -0.4920    3.9770 hx        1 1AD      0.128200
     27 H82         0.3800    0.7330    3.4520 hx        1 1AD      0.128200
     28 H9         -2.2840   -1.1550   -0.7590 hx        1 1AD      0.131700
     29 H121       -0.2820   -0.5730    5.3850 hn        1 1AD      0.469467
     30 H122       -0.1910   -2.0050    4.5230 hn        1 1AD      0.469467
     31 H13        -2.8360    0.9700    0.4810 hc        1 1AD      0.113700
     32 H141       -3.8940   -2.5950    1.2840 hn        1 1AD      0.476800
     33 H142       -3.2030   -3.1790   -0.1240 hn        1 1AD      0.476800
     34 H151       -1.3850    4.4020   -0.9070 hc        1 1AD      0.089367
     35 H152       -0.3040    4.7070    0.5230 hc        1 1AD      0.089367
     36 H153       -2.0540    4.2750    0.7830 hc        1 1AD      0.089367
     37 H161       -4.5340    1.4260   -1.0240 hc        1 1AD      0.070450
     38 H162       -4.2440   -0.2370   -1.6410 hc        1 1AD      0.070450
     39 H171       -4.0700   -0.5820    2.4730 hc        1 1AD      0.070450
     40 H172       -4.4650    1.1460    2.1440 hc        1 1AD      0.070450
     41 H181       -6.6760    0.7620   -0.5090 hc        1 1AD      0.069950
     42 H182       -6.3050   -0.9730   -0.7710 hc        1 1AD      0.069950
     43 H191       -6.1100   -1.3110    1.5240 hc        1 1AD      0.069950
     44 H192       -6.6270    0.3910    1.7760 hc        1 1AD      0.069950
     45 H123       -1.3240   -0.8710    4.1030 hn        1 1AD      0.469467
     46 H143       -4.5380   -2.1550   -0.2020 hn        1 1AD      0.476800
@<TRIPOS>BOND
     1    1    4 1   
     2    1    5 1   
     3    1    9 1   
     4    1   20 1   
     5    2    6 1   
     6    2    7 1   
     7    2    9 1   
     8    2   21 1   
     9    3    8 1   
    10    3    9 1   
    11    3   10 2   
    12    4    6 1   
    13    4   22 1   
    14    4   23 1   
    15    5   11 3   
    16    6   24 1   
    17    6   25 1   
    18    7   12 1   
    19    7   26 1   
    20    7   27 1   
    21    8   13 1   
    22    8   14 1   
    23    8   28 1   
    24   11   15 1   
    25   12   29 1   
    26   12   30 1   
    27   12   45 1   
    28   13   16 1   
    29   13   17 1   
    30   13   31 1   
    31   14   32 1   
    32   14   33 1   
    33   14   46 1   
    34   15   34 1   
    35   15   35 1   
    36   15   36 1   
    37   16   18 1   
    38   16   37 1   
    39   16   38 1   
    40   17   19 1   
    41   17   39 1   
    42   17   40 1   
    43   18   19 1   
    44   18   41 1   
    45   18   42 1   
    46   19   43 1   
    47   19   44 1   
@<TRIPOS>SUBSTRUCTURE
     1 1AD         1 TEMP              0 ****  ****    0 ROOT
