@<TRIPOS>MOLECULE
1AD
   46    47     1     0     0
SMALL
bcc


@<TRIPOS>ATOM
      1 C2         -0.0340    0.0720    0.0400 c3        1 1AD      0.207800
      2 C3          0.6400   -1.0030    2.1140 c3        1 1AD      0.084700
      3 C4         -1.6990   -1.2730    1.3890 c         1 1AD      0.659100
      4 C5          1.5130   -0.0370    0.0190 c3        1 1AD     -0.087400
      5 C6         -0.4570    1.4500    0.0340 c1        1 1AD     -0.285100
      6 C7          1.9350   -0.6040    1.3660 c3        1 1AD     -0.087400
      7 C8          0.6320   -0.2770    3.4800 c3        1 1AD      0.084800
      8 C9         -2.7740   -1.2020    0.2800 c3        1 1AD      0.070500
      9 N1         -0.4840   -0.6760    1.2340 n         1 1AD     -0.438800
     10 O10        -1.9800   -1.8850    2.4540 o         1 1AD     -0.689100
     11 C11        -0.7400    2.6130   -0.0410 c1        1 1AD      0.011900
     12 N12        -0.3520   -0.8310    4.4480 n4        1 1AD     -0.835600
     13 C13        -3.5680    0.1140    0.3820 c3        1 1AD     -0.096700
     14 N14        -3.6890   -2.3900    0.3900 n4        1 1AD     -0.836600
     15 C15        -1.0690    3.9960   -0.1470 c3        1 1AD     -0.062000
     16 C16        -4.5290    0.2720   -0.8000 c3        1 1AD     -0.104400
     17 C17        -4.4390    0.1900    1.6350 c3        1 1AD     -0.104400
     18 C18        -5.9280   -0.0640   -0.2980 c3        1 1AD     -0.101400
     19 C19        -5.8560   -0.1810    1.2190 c3        1 1AD     -0.101400
     20 H2         -0.4510   -0.4390   -0.8820 h1        1 1AD      0.075700
     21 H3          0.6310   -2.1200    2.2990 h1        1 1AD      0.088700
     22 H51         1.8280   -0.7120   -0.8160 hc        1 1AD      0.098200
     23 H52         1.9740    0.9670   -0.1620 hc        1 1AD      0.098200
     24 H71         2.5840   -1.5080    1.2370 hc        1 1AD      0.090200
     25 H72         2.5200    0.1560    1.9430 hc        1 1AD      0.090200
     26 H81         0.4170    0.8230    3.3460 hx        1 1AD      0.128200
     27 H82         1.6600   -0.3910    3.9390 hx        1 1AD      0.128200
     28 H9         -2.2900   -1.2610   -0.7430 hx        1 1AD      0.131700
     29 H121       -0.1960   -1.8380    4.5760 hn        1 1AD      0.469467
     30 H122       -0.2610   -0.3580    5.3540 hn        1 1AD      0.469467
     31 H13        -2.8020    0.9410    0.3730 hc        1 1AD      0.113700
     32 H141       -3.9180   -2.5520    1.3830 hn        1 1AD      0.476800
     33 H142       -3.2420   -3.2290    0.0100 hn        1 1AD      0.476800
     34 H151       -1.9420    4.2520    0.5090 hc        1 1AD      0.089367
     35 H152       -1.3320    4.2560   -1.2080 hc        1 1AD      0.089367
     36 H153       -0.1950    4.6310    0.1610 hc        1 1AD      0.089367
     37 H161       -4.2380   -0.3630   -1.6730 hc        1 1AD      0.070450
     38 H162       -4.4970    1.3370   -1.1530 hc        1 1AD      0.070450
     39 H171       -4.4240    1.2420    2.0250 hc        1 1AD      0.070450
     40 H172       -4.0570   -0.4710    2.4540 hc        1 1AD      0.070450
     41 H181       -6.6490    0.7410   -0.5970 hc        1 1AD      0.069950
     42 H182       -6.3070   -1.0120   -0.7580 hc        1 1AD      0.069950
     43 H191       -6.1120   -1.2190    1.5520 hc        1 1AD      0.069950
     44 H192       -6.5990    0.5030    1.7060 hc        1 1AD      0.069950
     45 H123       -1.3120   -0.7120    4.0930 hn        1 1AD      0.469467
     46 H143       -4.5590   -2.1890   -0.1240 hn        1 1AD      0.476800
@<TRIPOS>BOND
     1    1    4 1   
     2    1    5 1   
     3    1    9 1   
     4    1   20 1   
     5    2    6 1   
     6    2    7 1   
     7    2    9 1   
     8    2   21 1   
     9    3    8 1   
    10    3    9 1   
    11    3   10 2   
    12    4    6 1   
    13    4   22 1   
    14    4   23 1   
    15    5   11 3   
    16    6   24 1   
    17    6   25 1   
    18    7   12 1   
    19    7   26 1   
    20    7   27 1   
    21    8   13 1   
    22    8   14 1   
    23    8   28 1   
    24   11   15 1   
    25   12   29 1   
    26   12   30 1   
    27   12   45 1   
    28   13   16 1   
    29   13   17 1   
    30   13   31 1   
    31   14   32 1   
    32   14   33 1   
    33   14   46 1   
    34   15   34 1   
    35   15   35 1   
    36   15   36 1   
    37   16   18 1   
    38   16   37 1   
    39   16   38 1   
    40   17   19 1   
    41   17   39 1   
    42   17   40 1   
    43   18   19 1   
    44   18   41 1   
    45   18   42 1   
    46   19   43 1   
    47   19   44 1   
@<TRIPOS>SUBSTRUCTURE
     1 1AD         1 TEMP              0 ****  ****    0 ROOT
