@<TRIPOS>MOLECULE
1AD
   46    47     1     0     0
SMALL
bcc


@<TRIPOS>ATOM
      1 C2         -0.0160    0.1180    0.1090 c3        1 1AD      0.207800
      2 C3          0.6350   -1.0030    2.1670 c3        1 1AD      0.084700
      3 C4         -1.6870   -1.2850    1.3900 c         1 1AD      0.659100
      4 C5          1.5320    0.0300    0.1140 c3        1 1AD     -0.087400
      5 C6         -0.4590    1.4890    0.1300 c1        1 1AD     -0.285100
      6 C7          1.9370   -0.5670    1.4530 c3        1 1AD     -0.087400
      7 C8          0.5910   -0.3130    3.5500 c3        1 1AD      0.084800
      8 C9         -2.7420   -1.2000    0.2640 c3        1 1AD      0.070500
      9 N1         -0.4770   -0.6680    1.2740 n         1 1AD     -0.438800
     10 O10        -1.9790   -1.9290    2.4340 o         1 1AD     -0.689100
     11 C11        -0.7580    2.6490    0.0800 c1        1 1AD      0.011900
     12 N12        -0.4030   -0.9060    4.4850 n4        1 1AD     -0.835600
     13 C13        -3.5560    0.1020    0.3850 c3        1 1AD     -0.096700
     14 N14        -3.6410   -2.4030    0.3250 n4        1 1AD     -0.836600
     15 C15        -1.1050    4.0300    0.0040 c3        1 1AD     -0.062000
     16 C16        -4.4980    0.2780   -0.8100 c3        1 1AD     -0.104400
     17 C17        -4.4510    0.1320    1.6240 c3        1 1AD     -0.104400
     18 C18        -5.9010   -0.0910   -0.3440 c3        1 1AD     -0.101400
     19 C19        -5.8560   -0.2470    1.1710 c3        1 1AD     -0.101400
     20 H2         -0.4080   -0.3750   -0.8350 h1        1 1AD      0.075700
     21 H3          0.6380   -2.1240    2.3220 h1        1 1AD      0.088700
     22 H51         1.9820    1.0450   -0.0310 hc        1 1AD      0.098200
     23 H52         1.8730   -0.6180   -0.7330 hc        1 1AD      0.098200
     24 H71         2.6010   -1.4580    1.3130 hc        1 1AD      0.090200
     25 H72         2.5010    0.1860    2.0610 hc        1 1AD      0.090200
     26 H81         1.6120   -0.4250    4.0250 hx        1 1AD      0.128200
     27 H82         0.3620    0.7870    3.4410 hx        1 1AD      0.128200
     28 H9         -2.2380   -1.2250   -0.7510 hx        1 1AD      0.131700
     29 H121       -1.3580   -0.7900    4.1150 hn        1 1AD      0.469467
     30 H122       -0.2360   -1.9130    4.5890 hn        1 1AD      0.469467
     31 H13        -2.8030    0.9390    0.4120 hc        1 1AD      0.113700
     32 H141       -3.8870   -2.5950    1.3090 hn        1 1AD      0.476800
     33 H142       -3.1750   -3.2250   -0.0680 hn        1 1AD      0.476800
     34 H151       -0.2710    4.6670    0.4050 hc        1 1AD      0.089033
     35 H152       -1.2900    4.3280   -1.0630 hc        1 1AD      0.089033
     36 H153       -2.0320    4.2440    0.5980 hc        1 1AD      0.089033
     37 H161       -4.1810   -0.3300   -1.6940 hc        1 1AD      0.070450
     38 H162       -4.4750    1.3520   -1.1350 hc        1 1AD      0.070450
     39 H171       -4.0760   -0.5450    2.4310 hc        1 1AD      0.070450
     40 H172       -4.4590    1.1730    2.0410 hc        1 1AD      0.070450
     41 H181       -6.6280    0.7120   -0.6350 hc        1 1AD      0.069950
     42 H182       -6.2580   -1.0310   -0.8350 hc        1 1AD      0.069950
     43 H191       -6.6170    0.4130    1.6610 hc        1 1AD      0.069950
     44 H192       -6.1020   -1.2970    1.4720 hc        1 1AD      0.069950
     45 H123       -0.3360   -0.4550    5.4040 hn        1 1AD      0.469467
     46 H143       -4.5050   -2.2010   -0.2000 hn        1 1AD      0.476800
@<TRIPOS>BOND
     1    1    4 1   
     2    1    5 1   
     3    1    9 1   
     4    1   20 1   
     5    2    6 1   
     6    2    7 1   
     7    2    9 1   
     8    2   21 1   
     9    3    8 1   
    10    3    9 1   
    11    3   10 2   
    12    4    6 1   
    13    4   22 1   
    14    4   23 1   
    15    5   11 3   
    16    6   24 1   
    17    6   25 1   
    18    7   12 1   
    19    7   26 1   
    20    7   27 1   
    21    8   13 1   
    22    8   14 1   
    23    8   28 1   
    24   11   15 1   
    25   12   29 1   
    26   12   30 1   
    27   12   45 1   
    28   13   16 1   
    29   13   17 1   
    30   13   31 1   
    31   14   32 1   
    32   14   33 1   
    33   14   46 1   
    34   15   34 1   
    35   15   35 1   
    36   15   36 1   
    37   16   18 1   
    38   16   37 1   
    39   16   38 1   
    40   17   19 1   
    41   17   39 1   
    42   17   40 1   
    43   18   19 1   
    44   18   41 1   
    45   18   42 1   
    46   19   43 1   
    47   19   44 1   
@<TRIPOS>SUBSTRUCTURE
     1 1AD         1 TEMP              0 ****  ****    0 ROOT
