@<TRIPOS>MOLECULE
1AE
   22    20     1     0     0
SMALL
bcc


@<TRIPOS>ATOM
      1 C1          0.0960   -0.0980   -0.2830 c3        1 1AE     -0.202000
      2 C2          1.5770   -0.2470   -0.0510 c3        1 1AE     -0.150000
      3 C3          2.0270    0.4870    1.1940 c3        1 1AE     -0.197000
      4 C4          3.5370    0.4540    1.3430 c2        1 1AE      0.284000
      5 O4          4.2470    0.7740    0.3510 o         1 1AE     -0.499000
      6 C5          4.0440    0.1160    2.6260 c2        1 1AE     -0.416000
      7 O5          5.4340   -0.0230    2.7450 oh        1 1AE     -0.297000
      8 C6          3.2310   -0.1150    3.7440 c1        1 1AE     -0.071000
      9 O7          3.7740   -0.3550    4.9330 oh        1 1AE     -0.304000
     10 P           3.6000   -0.5710    7.2900 p3        1 1AE      2.450000
     11 O8          2.9730   -1.8950    7.4860 o         1 1AE     -1.151333
     12 O9          2.8710    0.6340    7.7360 o         1 1AE     -1.151333
     13 O10         5.0570   -0.4860    7.0420 o         1 1AE     -1.151333
     14 H11        -0.1740    0.9760   -0.4290 hc        1 1AE      0.051333
     15 H12        -0.4780   -0.4840    0.5940 hc        1 1AE      0.051333
     16 H13        -0.2220   -0.6660   -1.1910 hc        1 1AE      0.051333
     17 H21         1.8340   -1.3340    0.0510 hc        1 1AE      0.076500
     18 H22         2.1470    0.1460   -0.9350 hc        1 1AE      0.076500
     19 H31         1.7100    1.5610    1.1320 hc        1 1AE      0.096000
     20 H32         1.5500    0.0400    2.1070 hc        1 1AE      0.096000
     21 HO5         5.7970    0.8590    2.6000 ho        1 1AE      0.152000
     22 H62         4.7560   -0.3520    4.9520 ho        1 1AE      0.206000
@<TRIPOS>BOND
     1    1    2 1   
     2    1   14 1   
     3    1   15 1   
     4    1   16 1   
     5    2    3 1   
     6    2   17 1   
     7    2   18 1   
     8    3    4 1   
     9    3   19 1   
    10    3   20 1   
    11    4    5 1   
    12    4    6 1   
    13    6    7 1   
    14    6    8 1   
    15    7   21 1   
    16    8    9 1   
    17    9   22 1   
    18   10   11 1   
    19   10   12 1   
    20   10   13 1   
@<TRIPOS>SUBSTRUCTURE
     1 1AE         1 TEMP              0 ****  ****    0 ROOT
