@<TRIPOS>MOLECULE
1AE
   22    21     1     0     0
SMALL
bcc


@<TRIPOS>ATOM
      1 C1          0.9600    0.1690   -0.8280 c3        1 1AE     -0.088100
      2 C2          1.1170    1.6670   -0.8050 c3        1 1AE     -0.067400
      3 C3          2.1930    2.1300   -1.7620 c3        1 1AE     -0.184400
      4 C4          2.3590    3.6390   -1.7600 c         1 1AE      0.603300
      5 O4          1.6000    4.3360   -1.0440 o         1 1AE     -0.689100
      6 C5          3.4020    4.1440   -2.5920 ce        1 1AE     -0.340100
      7 O5          3.6340    5.5200   -2.4980 oh        1 1AE     -0.523100
      8 C6          4.1900    3.3750   -3.4540 c2        1 1AE      0.270100
      9 O7          5.0650    3.9000   -4.2420 os        1 1AE     -0.349500
     10 P           5.8250    2.6390   -5.3620 p5        1 1AE      1.277900
     11 O8          4.5820    2.3140   -6.1250 o         1 1AE     -0.892167
     12 O9          6.2070    1.6660   -4.2920 o         1 1AE     -0.892167
     13 O10         6.8970    3.4250   -6.0360 o         1 1AE     -0.892167
     14 H11         0.1630   -0.1550   -0.1160 hc        1 1AE      0.016700
     15 H12         0.6820   -0.1810   -1.8520 hc        1 1AE      0.016700
     16 H13         1.9160   -0.3320   -0.5400 hc        1 1AE      0.016700
     17 H21         0.1460    2.1600   -1.0750 hc        1 1AE      0.036700
     18 H22         1.3730    2.0100    0.2320 hc        1 1AE      0.036700
     19 H31         3.1730    1.6600   -1.4880 hc        1 1AE      0.061200
     20 H32         1.9410    1.8010   -2.8040 hc        1 1AE      0.061200
     21 HO5         3.8160    5.8030   -3.4060 ho        1 1AE      0.386000
     22 H62         4.0620    2.2700   -3.5080 h4        1 1AE      0.136000
@<TRIPOS>BOND
     1    1    2 1   
     2    1   14 1   
     3    1   15 1   
     4    1   16 1   
     5    2    3 1   
     6    2   17 1   
     7    2   18 1   
     8    3    4 1   
     9    3   19 1   
    10    3   20 1   
    11    4    5 2   
    12    4    6 1   
    13    6    7 1   
    14    6    8 2   
    15    7   21 1   
    16    8    9 1   
    17    8   22 1   
    18    9   10 1   
    19   10   11 1   
    20   10   12 1   
    21   10   13 1   
@<TRIPOS>SUBSTRUCTURE
     1 1AE         1 TEMP              0 ****  ****    0 ROOT
