@<TRIPOS>MOLECULE
1AE
   22    20     1     0     0
SMALL
bcc


@<TRIPOS>ATOM
      1 C1         -3.4060    0.1160   -1.8100 c3        1 1AE     -0.202000
      2 C2         -1.8930    0.1160   -1.8100 c3        1 1AE     -0.152000
      3 C3         -1.3890    0.1160   -0.3830 c3        1 1AE     -0.204000
      4 C4          0.1240    0.1600   -0.3830 c2        1 1AE      0.295000
      5 O4          0.7490   -0.4330   -1.2390 o         1 1AE     -0.413000
      6 C5          0.8570    0.9420    0.6840 c2        1 1AE     -0.405000
      7 O5          0.5430    2.2950    0.9060 oh        1 1AE     -0.291000
      8 C6          1.8110    0.3420    1.4230 c1        1 1AE      0.281000
      9 O7          2.1250   -1.0100    1.2010 o         1 1AE     -0.710750
     10 P           3.3810   -1.6220    1.9400 p5        1 1AE      1.189000
     11 O8          3.1600   -1.5760    3.4330 o         1 1AE     -0.710750
     12 O9          4.6120   -0.8200    1.5890 o         1 1AE     -0.710750
     13 O10         3.5720   -3.0550    1.5030 o         1 1AE     -0.710750
     14 H11        -3.7310    0.9180   -1.3580 hc        1 1AE      0.050000
     15 H12        -3.7310   -0.6760   -1.3410 hc        1 1AE      0.050000
     16 H13        -3.7310    0.1050   -2.7300 hc        1 1AE      0.050000
     17 H21        -1.5680   -0.6810   -2.2700 hc        1 1AE      0.084000
     18 H22        -1.5680    0.9130   -2.2700 hc        1 1AE      0.084000
     19 H31        -1.7370    0.8980    0.0850 hc        1 1AE      0.078000
     20 H32        -1.6900   -0.6950    0.0680 hc        1 1AE      0.078000
     21 HO5         1.2250    2.8030    0.6510 ho        1 1AE      0.148000
     22 H62         2.2850    0.8460    2.1110 ha        1 1AE      0.125000
@<TRIPOS>BOND
     1    1    2 1   
     2    1   14 1   
     3    1   15 1   
     4    1   16 1   
     5    2    3 1   
     6    2   17 1   
     7    2   18 1   
     8    3    4 1   
     9    3   19 1   
    10    3   20 1   
    11    4    5 1   
    12    4    6 1   
    13    6    7 1   
    14    6    8 1   
    15    7   21 1   
    16    8   22 1   
    17    9   10 1   
    18   10   11 1   
    19   10   12 1   
    20   10   13 1   
@<TRIPOS>SUBSTRUCTURE
     1 1AE         1 TEMP              0 ****  ****    0 ROOT
