@<TRIPOS>MOLECULE
1AE
   22    20     1     0     0
SMALL
bcc


@<TRIPOS>ATOM
      1 C1          0.0810   -0.0780   -0.2690 c3        1 1AE     -0.202000
      2 C2          1.5630   -0.2370   -0.0440 c3        1 1AE     -0.150000
      3 C3          2.0240    0.4950    1.1980 c3        1 1AE     -0.197000
      4 C4          3.5340    0.4510    1.3390 c2        1 1AE      0.284000
      5 O4          4.2420    0.7670    0.3440 o         1 1AE     -0.499000
      6 C5          4.0460    0.1080    2.6190 c2        1 1AE     -0.416000
      7 O5          5.4340   -0.0430    2.7310 oh        1 1AE     -0.297000
      8 C6          3.2370   -0.1190    3.7410 c1        1 1AE     -0.071000
      9 O7          3.7840   -0.3650    4.9270 oh        1 1AE     -0.304000
     10 P           3.6200   -0.5830    7.2840 p3        1 1AE      2.450000
     11 O8          2.9850   -1.9020    7.4820 o         1 1AE     -1.151333
     12 O9          2.9030    0.6280    7.7350 o         1 1AE     -1.151333
     13 O10         5.0770   -0.5080    7.0290 o         1 1AE     -1.151333
     14 H11        -0.1820    0.9980   -0.4160 hc        1 1AE      0.051333
     15 H12        -0.4910   -0.4590    0.6110 hc        1 1AE      0.051333
     16 H13        -0.2450   -0.6450   -1.1750 hc        1 1AE      0.051333
     17 H21         1.8120   -1.3260    0.0580 hc        1 1AE      0.076500
     18 H22         2.1310    0.1500   -0.9310 hc        1 1AE      0.076500
     19 H31         1.7150    1.5710    1.1350 hc        1 1AE      0.096000
     20 H32         1.5480    0.0530    2.1140 hc        1 1AE      0.096000
     21 HO5         5.8040    0.8380    2.5850 ho        1 1AE      0.152000
     22 H62         4.7660   -0.3700    4.9410 ho        1 1AE      0.206000
@<TRIPOS>BOND
     1    1    2 1   
     2    1   14 1   
     3    1   15 1   
     4    1   16 1   
     5    2    3 1   
     6    2   17 1   
     7    2   18 1   
     8    3    4 1   
     9    3   19 1   
    10    3   20 1   
    11    4    5 1   
    12    4    6 1   
    13    6    7 1   
    14    6    8 1   
    15    7   21 1   
    16    8    9 1   
    17    9   22 1   
    18   10   11 1   
    19   10   12 1   
    20   10   13 1   
@<TRIPOS>SUBSTRUCTURE
     1 1AE         1 TEMP              0 ****  ****    0 ROOT
