@<TRIPOS>MOLECULE
1AF
   73    77     1     0     0
SMALL
bcc


@<TRIPOS>ATOM
      1 C1         -1.1320   -0.7580   -0.0320 c3        1 1AF     -0.109400
      2 C2          0.3490   -0.9090   -0.3490 c3        1 1AF     -0.099400
      3 C3          1.0980   -0.9630    0.9770 c3        1 1AF     -0.099400
      4 C4          0.0580   -0.8960    2.0880 c3        1 1AF     -0.109400
      5 C5         -1.2250   -0.3350    1.4480 c3        1 1AF      0.114500
      6 N6         -1.2990    1.1810    1.5610 ny        1 1AF     -0.801000
      7 C7         -1.6740    1.7100    2.9290 c3        1 1AF      0.411000
      8 N8         -3.1210    1.4410    3.3220 nz        1 1AF     -0.867600
      9 C9         -1.4000    3.1820    3.0300 ca        1 1AF     -0.285300
     10 C12        -0.4860    3.6300    3.9960 ca        1 1AF     -0.073500
     11 C13        -0.2060    4.9870    4.1120 ca        1 1AF     -0.114500
     12 C10        -2.0290    4.1140    2.1880 ca        1 1AF     -0.073500
     13 C11        -1.7460    5.4690    2.3090 ca        1 1AF     -0.114500
     14 C14        -0.8250    5.9330    3.2720 ca        1 1AF      0.107000
     15 C15        -0.5090    7.3320    3.4030 cc        1 1AF     -0.248300
     16 C17         0.5710    7.8680    4.1110 cd        1 1AF      0.375600
     17 O18         0.5690    9.2390    4.0310 os        1 1AF     -0.328800
     18 C16        -1.2250    8.4650    2.8480 cc        1 1AF     -0.145300
     19 C19        -0.5510    9.6110    3.2490 cd        1 1AF      0.247200
     20 C20        -0.7370   11.0270    3.0600 ca        1 1AF     -0.019500
     21 C23         0.1610   11.9470    3.6460 ca        1 1AF     -0.098500
     22 C24        -0.0150   13.3120    3.4760 ca        1 1AF     -0.080500
     23 C21        -1.8100   11.5190    2.2980 ca        1 1AF     -0.098500
     24 C22        -1.9890   12.8900    2.1270 ca        1 1AF     -0.080500
     25 C25        -1.0940   13.7950    2.7160 ca        1 1AF     -0.275300
     26 C26        -1.3110   15.2690    2.5230 c3        1 1AF      0.410000
     27 N27        -1.6540   15.9000    3.8670 nz        1 1AF     -0.867600
     28 N28        -0.1200   15.9020    1.8350 ny        1 1AF     -0.801000
     29 C29        -0.3390   17.3180    1.3210 c3        1 1AF      0.114500
     30 C30         1.0070   17.9540    0.9160 c3        1 1AF     -0.109400
     31 C31         1.1750   17.7030   -0.5760 c3        1 1AF     -0.099900
     32 C32        -0.1820   17.2850   -1.1250 c3        1 1AF     -0.099900
     33 C33        -1.1750   17.3370    0.0290 c3        1 1AF     -0.109400
     34 H34        -1.6530   -1.7520   -0.1250 hc        1 1AF      0.094950
     35 H35        -1.6420   -0.0560   -0.7360 hc        1 1AF      0.094950
     36 H37         0.5220   -1.8460   -0.9440 hc        1 1AF      0.090700
     37 H36         0.7140   -0.0580   -0.9780 hc        1 1AF      0.090700
     38 H39         1.6950   -1.9090    1.0620 hc        1 1AF      0.090700
     39 H38         1.8230   -0.1140    1.0580 hc        1 1AF      0.090700
     40 H41        -0.1780   -1.9320    2.4570 hc        1 1AF      0.094950
     41 H40         0.4220   -0.3050    2.9630 hc        1 1AF      0.094950
     42 H42        -2.1530   -0.7480    1.9290 hx        1 1AF      0.082700
     43 H43        -1.9270    1.5490    0.8350 hn        1 1AF      0.478300
     44 H7         -1.0360    1.1240    3.6800 hx        1 1AF      0.169700
     45 H44        -3.7750    1.9620    2.7240 hn        1 1AF      0.487133
     46 H45        -3.3550    0.4400    3.2980 hn        1 1AF      0.487133
     47 H48         0.0210    2.9180    4.6710 ha        1 1AF      0.150000
     48 H49         0.5120    5.3190    4.8830 ha        1 1AF      0.175500
     49 H46        -2.7490    3.7890    1.4200 ha        1 1AF      0.150000
     50 H47        -2.2440    6.1890    1.6380 ha        1 1AF      0.175500
     51 H51         1.4000    7.4500    4.6900 h4        1 1AF      0.092100
     52 H50        -2.1260    8.4130    2.2390 ha        1 1AF      0.180000
     53 H54         1.0120   11.5710    4.2450 ha        1 1AF      0.186000
     54 H55         0.7040   14.0010    3.9470 ha        1 1AF      0.151500
     55 H52        -2.5220   10.8180    1.8290 ha        1 1AF      0.186000
     56 H53        -2.8410   13.2470    1.5220 ha        1 1AF      0.151500
     57 H26        -2.2130   15.4670    1.8460 hx        1 1AF      0.167700
     58 H56        -2.5120   15.4340    4.2070 hn        1 1AF      0.488467
     59 H57        -1.8360   16.9090    3.7910 hn        1 1AF      0.488467
     60 H58         0.7120   15.8820    2.4390 hn        1 1AF      0.479300
     61 H59        -0.8270   17.8990    2.1500 hx        1 1AF      0.082700
     62 H60         1.8800   17.5800    1.5060 hc        1 1AF      0.094950
     63 H61         0.9240   19.0580    1.1190 hc        1 1AF      0.094950
     64 H62         1.5420   18.6350   -1.0830 hc        1 1AF      0.090700
     65 H63         1.9430   16.9110   -0.7650 hc        1 1AF      0.090700
     66 H64        -0.5100   17.9730   -1.9490 hc        1 1AF      0.090700
     67 H65        -0.1340   16.2560   -1.5620 hc        1 1AF      0.090700
     68 H67        -1.7370   18.3110    0.0090 hc        1 1AF      0.094950
     69 H66        -1.9280   16.5150   -0.0330 hc        1 1AF      0.094950
     70 H621       -0.3510    1.5530    1.3640 hn        1 1AF      0.478300
     71 H83        -3.2360    1.7850    4.2910 hn        1 1AF      0.487133
     72 H273       -0.9110   15.7360    4.5590 hn        1 1AF      0.488467
     73 H282        0.0840   15.3030    1.0130 hn        1 1AF      0.479300
@<TRIPOS>BOND
     1    1    2 1   
     2    1    5 1   
     3    1   34 1   
     4    1   35 1   
     5    2    3 1   
     6    2   36 1   
     7    2   37 1   
     8    3    4 1   
     9    3   38 1   
    10    3   39 1   
    11    4    5 1   
    12    4   40 1   
    13    4   41 1   
    14    5    6 1   
    15    5   42 1   
    16    6    7 1   
    17    6   43 1   
    18    6   70 1   
    19    7    8 1   
    20    7    9 1   
    21    7   44 1   
    22    8   45 1   
    23    8   46 1   
    24    8   71 1   
    25    9   10 ar  
    26    9   12 ar  
    27   10   11 ar  
    28   10   47 1   
    29   11   14 ar  
    30   11   48 1   
    31   12   13 ar  
    32   12   49 1   
    33   13   14 ar  
    34   13   50 1   
    35   14   15 1   
    36   15   16 2   
    37   15   18 1   
    38   16   17 1   
    39   16   51 1   
    40   17   19 1   
    41   18   19 2   
    42   18   52 1   
    43   19   20 1   
    44   20   21 ar  
    45   20   23 ar  
    46   21   22 ar  
    47   21   53 1   
    48   22   25 ar  
    49   22   54 1   
    50   23   24 ar  
    51   23   55 1   
    52   24   25 ar  
    53   24   56 1   
    54   25   26 1   
    55   26   27 1   
    56   26   28 1   
    57   26   57 1   
    58   27   58 1   
    59   27   59 1   
    60   27   72 1   
    61   28   29 1   
    62   28   60 1   
    63   28   73 1   
    64   29   30 1   
    65   29   33 1   
    66   29   61 1   
    67   30   31 1   
    68   30   62 1   
    69   30   63 1   
    70   31   32 1   
    71   31   64 1   
    72   31   65 1   
    73   32   33 1   
    74   32   66 1   
    75   32   67 1   
    76   33   68 1   
    77   33   69 1   
@<TRIPOS>SUBSTRUCTURE
     1 1AF         1 TEMP              0 ****  ****    0 ROOT
