@<TRIPOS>MOLECULE
1AF
   69    73     1     0     0
SMALL
bcc


@<TRIPOS>ATOM
      1 C1          8.7560   -2.3780   -1.7630 c3        1 1AF     -0.080900
      2 C2         10.2290   -2.1920   -2.0960 c3        1 1AF     -0.077900
      3 C3         10.7020   -0.9190   -1.4050 c3        1 1AF     -0.077900
      4 C4          9.5080   -0.3210   -0.6760 c3        1 1AF     -0.080900
      5 C5          8.4700   -1.4570   -0.5560 c3        1 1AF      0.178500
      6 N6          7.0940   -1.0030   -0.5130 n3        1 1AF     -0.854200
      7 C7          6.7590   -0.0910    0.5930 c3        1 1AF      0.449000
      8 N8          7.0950   -0.4790    1.9630 n3        1 1AF     -0.937800
      9 C9          5.2800    0.2600    0.5100 ca        1 1AF     -0.062300
     10 C12         4.3010   -0.7130    0.7270 ca        1 1AF     -0.114000
     11 C13         2.9510   -0.3800    0.6510 ca        1 1AF     -0.120500
     12 C10         4.8980    1.5710    0.2150 ca        1 1AF     -0.114000
     13 C11         3.5490    1.9060    0.1380 ca        1 1AF     -0.120500
     14 C14         2.5580    0.9350    0.3550 ca        1 1AF     -0.002000
     15 C15         1.1610    1.2860    0.2780 cc        1 1AF     -0.170300
     16 C17         0.6010    2.5490    0.3990 cd        1 1AF      0.260600
     17 O18        -0.7800    2.4830    0.2670 os        1 1AF     -0.356800
     18 C16         0.0570    0.3720    0.0550 cc        1 1AF     -0.234300
     19 C19        -1.1020    1.1300    0.0530 cd        1 1AF      0.304200
     20 C20        -2.4950    0.8040   -0.1180 ca        1 1AF     -0.124500
     21 C23        -3.4840    1.7980   -0.0520 ca        1 1AF     -0.106500
     22 C24        -4.8260    1.4660   -0.2190 ca        1 1AF     -0.118000
     23 C21        -2.8740   -0.5270   -0.3560 ca        1 1AF     -0.106500
     24 C22        -4.2170   -0.8540   -0.5220 ca        1 1AF     -0.118000
     25 C25        -5.1970    0.1400   -0.4550 ca        1 1AF     -0.054300
     26 C26        -6.6700   -0.2060   -0.6370 c3        1 1AF      0.447000
     27 N27        -6.8940   -0.6890   -1.9990 n3        1 1AF     -0.937800
     28 N28        -7.1070   -1.0330    0.4990 n3        1 1AF     -0.854200
     29 C29        -8.4920   -1.4610    0.4650 c3        1 1AF      0.178500
     30 C30        -8.8880   -2.2980    1.7020 c3        1 1AF     -0.080900
     31 C31       -10.3770   -2.0660    1.9100 c3        1 1AF     -0.077900
     32 C32       -10.7690   -0.8320    1.1070 c3        1 1AF     -0.077900
     33 C33        -9.5110   -0.3030    0.4330 c3        1 1AF     -0.080900
     34 H34         8.5270   -3.4410   -1.5060 hc        1 1AF      0.049200
     35 H35         8.1230   -2.0950   -2.6410 hc        1 1AF      0.049200
     36 H37        10.3720   -2.1200   -3.2030 hc        1 1AF      0.041700
     37 H36        10.8240   -3.0700   -1.7410 hc        1 1AF      0.041700
     38 H39        11.1110   -0.1900   -2.1490 hc        1 1AF      0.041700
     39 H38        11.5240   -1.1520   -0.6830 hc        1 1AF      0.041700
     40 H41         9.0920    0.5390   -1.2580 hc        1 1AF      0.049200
     41 H40         9.7930    0.0560    0.3370 hc        1 1AF      0.049200
     42 H42         8.7340   -2.0520    0.3750 h1        1 1AF      0.003700
     43 H43         6.4700   -1.7850   -0.5550 hn        1 1AF      0.363800
     44 H7          7.3690    0.8500    0.3930 h2        1 1AF      0.078700
     45 H44         6.5320   -1.2370    2.2910 hn        1 1AF      0.352300
     46 H45         8.0630   -0.7110    2.0510 hn        1 1AF      0.352300
     47 H48         4.5900   -1.7470    0.9630 ha        1 1AF      0.130000
     48 H49         2.1860   -1.1500    0.8290 ha        1 1AF      0.132000
     49 H46         5.6640    2.3420    0.0410 ha        1 1AF      0.130000
     50 H47         3.2550    2.9390   -0.0990 ha        1 1AF      0.132000
     51 H51         0.9900    3.5470    0.5760 h4        1 1AF      0.056100
     52 H50         0.1440   -0.7010   -0.0900 ha        1 1AF      0.162000
     53 H54        -3.1910    2.8430    0.1330 ha        1 1AF      0.141000
     54 H55        -5.5940    2.2530   -0.1650 ha        1 1AF      0.133000
     55 H52        -2.1060   -1.3120   -0.4110 ha        1 1AF      0.141000
     56 H53        -4.4990   -1.9000   -0.7090 ha        1 1AF      0.133000
     57 H26        -7.2810    0.7520   -0.5560 h2        1 1AF      0.079700
     58 H56        -6.3230   -1.4790   -2.2200 hn        1 1AF      0.352800
     59 H57        -7.8560   -0.9100   -2.1550 hn        1 1AF      0.352800
     60 H58        -6.5040   -1.8200    0.6420 hn        1 1AF      0.363800
     61 H59        -8.6970   -2.1100   -0.4450 h1        1 1AF      0.003700
     62 H60        -8.3160   -1.9690    2.6070 hc        1 1AF      0.049450
     63 H61        -8.6620   -3.3790    1.5300 hc        1 1AF      0.049450
     64 H62       -10.9620   -2.9560    1.5650 hc        1 1AF      0.041950
     65 H63       -10.6020   -1.9220    2.9960 hc        1 1AF      0.041950
     66 H64       -11.5400   -1.0970    0.3400 hc        1 1AF      0.041950
     67 H65       -11.2160   -0.0510    1.7700 hc        1 1AF      0.041950
     68 H67        -9.7110    0.0120   -0.6200 hc        1 1AF      0.049450
     69 H66        -9.1210    0.5860    0.9900 hc        1 1AF      0.049450
@<TRIPOS>BOND
     1    1    2 1   
     2    1    5 1   
     3    1   34 1   
     4    1   35 1   
     5    2    3 1   
     6    2   36 1   
     7    2   37 1   
     8    3    4 1   
     9    3   38 1   
    10    3   39 1   
    11    4    5 1   
    12    4   40 1   
    13    4   41 1   
    14    5    6 1   
    15    5   42 1   
    16    6    7 1   
    17    6   43 1   
    18    7    8 1   
    19    7    9 1   
    20    7   44 1   
    21    8   45 1   
    22    8   46 1   
    23    9   10 ar  
    24    9   12 ar  
    25   10   11 ar  
    26   10   47 1   
    27   11   14 ar  
    28   11   48 1   
    29   12   13 ar  
    30   12   49 1   
    31   13   14 ar  
    32   13   50 1   
    33   14   15 1   
    34   15   16 2   
    35   15   18 1   
    36   16   17 1   
    37   16   51 1   
    38   17   19 1   
    39   18   19 2   
    40   18   52 1   
    41   19   20 1   
    42   20   21 ar  
    43   20   23 ar  
    44   21   22 ar  
    45   21   53 1   
    46   22   25 ar  
    47   22   54 1   
    48   23   24 ar  
    49   23   55 1   
    50   24   25 ar  
    51   24   56 1   
    52   25   26 1   
    53   26   27 1   
    54   26   28 1   
    55   26   57 1   
    56   27   58 1   
    57   27   59 1   
    58   28   29 1   
    59   28   60 1   
    60   29   30 1   
    61   29   33 1   
    62   29   61 1   
    63   30   31 1   
    64   30   62 1   
    65   30   63 1   
    66   31   32 1   
    67   31   64 1   
    68   31   65 1   
    69   32   33 1   
    70   32   66 1   
    71   32   67 1   
    72   33   68 1   
    73   33   69 1   
@<TRIPOS>SUBSTRUCTURE
     1 1AF         1 TEMP              0 ****  ****    0 ROOT
