@<TRIPOS>MOLECULE
1AF
   69    65     1     0     0
SMALL
bcc


@<TRIPOS>ATOM
      1 C1         -0.1600   -9.6950    0.4450 c3        1 1AF     -0.178500
      2 C2         -0.9450  -10.0160    1.4940 c3        1 1AF     -0.159500
      3 C3         -2.4350   -9.8730    0.9560 c3        1 1AF     -0.159500
      4 C4         -2.3150   -9.1280   -0.4430 c3        1 1AF     -0.178500
      5 C5         -1.0420   -8.6800   -0.4940 c3        1 1AF     -0.012000
      6 N6         -0.9700   -7.3470    0.0210 n3        1 1AF     -0.346000
      7 C7         -0.2670   -6.5230   -0.8980 c3        1 1AF      0.084000
      8 N8          1.1080   -6.8770   -0.8950 n3        1 1AF     -0.325000
      9 C9         -0.4160   -5.0740   -0.4910 c2        1 1AF     -0.092000
     10 C12         0.3860   -4.5540    0.5150 c1        1 1AF     -0.123000
     11 C13         0.3490   -3.1980    0.7990 c1        1 1AF     -0.117000
     12 C10        -1.2530   -4.2370   -1.2110 c2        1 1AF     -0.111000
     13 C11        -1.2900   -2.8820   -0.9260 c1        1 1AF     -0.124000
     14 C14        -0.4890   -2.3620    0.0790 c1        1 1AF     -0.001000
     15 C15        -0.5560   -1.0120    0.3910 c1        1 1AF     -0.106000
     16 C17        -1.2590   -0.4560    1.4420 c1        1 1AF     -0.070000
     17 O18        -1.1090    0.9070    1.3790 os        1 1AF     -0.099000
     18 C16         0.0240    0.0060   -0.3150 c1        1 1AF     -0.166000
     19 C19        -0.3180    1.1980    0.2970 c2        1 1AF     -0.001000
     20 C20         0.1090    2.4630   -0.0850 c1        1 1AF     -0.015000
     21 C23         1.4200    2.8480    0.1470 c1        1 1AF     -0.111500
     22 C24         1.8190    4.1490   -0.1230 c1        1 1AF     -0.111500
     23 C21        -0.8040    3.3790   -0.5880 c1        1 1AF     -0.103000
     24 C22        -0.4040    4.6800   -0.8580 c1        1 1AF     -0.129000
     25 C25         0.9070    5.0640   -0.6250 c1        1 1AF     -0.102000
     26 C26         1.3640    6.4580   -1.0030 c3        1 1AF      0.083000
     27 N27         0.9100    6.7660   -2.3120 n3        1 1AF     -0.370000
     28 N28         0.8270    7.3990   -0.0820 n3        1 1AF     -0.285000
     29 C29         1.6420    8.6090   -0.0940 c3        1 1AF     -0.016000
     30 C30         0.6820    9.9350   -0.3030 c3        1 1AF     -0.169500
     31 C31         0.1840   10.2240    0.8930 c3        1 1AF     -0.158500
     32 C32         1.2350    9.6770    1.9110 c3        1 1AF     -0.158500
     33 C33         2.2280    8.7620    1.0540 c3        1 1AF     -0.169500
     34 H34         0.0740  -10.5030   -0.0600 hc        1 1AF      0.088750
     35 H35         0.6510   -9.2450    0.7570 hc        1 1AF      0.088750
     36 H37        -0.7730  -10.9390    1.7790 hc        1 1AF      0.080750
     37 H36        -0.7910   -9.3960    2.2360 hc        1 1AF      0.080750
     38 H39        -2.9700   -9.3400    1.5770 hc        1 1AF      0.080750
     39 H38        -2.8370  -10.7560    0.8340 hc        1 1AF      0.080750
     40 H41        -2.4850   -9.7540   -1.1770 hc        1 1AF      0.088750
     41 H40        -2.9420   -8.3780   -0.4830 hc        1 1AF      0.088750
     42 H42        -0.7140   -8.7040   -1.4160 h1        1 1AF      0.094000
     43 H43        -1.8160   -7.0200    0.1390 hn        1 1AF      0.163000
     44 H7         -0.6350   -6.6490   -1.7960 h2        1 1AF      0.106000
     45 H44         1.4870   -6.6340   -1.6930 hn        1 1AF      0.146000
     46 H45         1.5330   -6.4440   -0.2100 hn        1 1AF      0.146000
     47 H48         0.9780   -5.1440    1.0240 ha        1 1AF      0.133000
     48 H49         0.9130   -2.8320    1.5060 ha        1 1AF      0.135000
     49 H46        -1.8190   -4.6040   -1.9190 ha        1 1AF      0.136000
     50 H47        -1.8810   -2.2920   -1.4330 ha        1 1AF      0.131000
     51 H51        -1.7720   -0.9450    2.1110 DU        1 1AF      0.178500
     52 H50         0.5800   -0.0910   -1.1090 DU        1 1AF      0.178500
     53 H54         2.0630    2.2040    0.5010 ha        1 1AF      0.138000
     54 H55         2.7430    4.4200    0.0410 ha        1 1AF      0.138000
     55 H52        -1.7290    3.1070   -0.7520 ha        1 1AF      0.148000
     56 H53        -1.0470    5.3240   -1.2110 ha        1 1AF      0.130000
     57 H26         2.3420    6.4980   -0.9780 h2        1 1AF      0.114000
     58 H56         0.7010    5.9930   -2.7510 hn        1 1AF      0.147500
     59 H57         0.1660    7.2990   -2.2600 hn        1 1AF      0.147500
     60 H58        -0.0300    7.6060   -0.3220 hn        1 1AF      0.153000
     61 H59         2.3080    8.5600   -0.8090 h1        1 1AF      0.099000
     62 H60        -0.0450    9.7300   -0.9300 hc        1 1AF      0.086500
     63 H61         1.2130   10.6860   -0.6360 hc        1 1AF      0.086500
     64 H62        -0.6800    9.7750    1.0200 hc        1 1AF      0.078750
     65 H63         0.0830   11.1930    0.9950 hc        1 1AF      0.078750
     66 H64         0.7930    9.1420    2.6000 hc        1 1AF      0.078750
     67 H65         1.7270   10.4180    2.3210 hc        1 1AF      0.078750
     68 H67         3.0910    9.2130    0.9380 hc        1 1AF      0.086500
     69 H66         2.3530    7.8950    1.4900 hc        1 1AF      0.086500
@<TRIPOS>BOND
     1    1    2 1   
     2    1    5 1   
     3    1   34 1   
     4    1   35 1   
     5    2    3 1   
     6    2   36 1   
     7    2   37 1   
     8    3    4 1   
     9    3   38 1   
    10    3   39 1   
    11    4    5 1   
    12    4   40 1   
    13    4   41 1   
    14    5    6 1   
    15    5   42 1   
    16    6    7 1   
    17    6   43 1   
    18    7    8 1   
    19    7    9 1   
    20    7   44 1   
    21    8   45 1   
    22    8   46 1   
    23    9   10 1   
    24    9   12 1   
    25   10   47 1   
    26   11   14 1   
    27   11   48 1   
    28   12   13 1   
    29   12   49 1   
    30   13   50 1   
    31   15   16 1   
    32   15   18 1   
    33   16   17 1   
    34   17   19 1   
    35   18   19 1   
    36   19   20 1   
    37   20   23 1   
    38   21   22 1   
    39   21   53 1   
    40   22   54 1   
    41   23   55 1   
    42   24   25 1   
    43   24   56 1   
    44   25   26 1   
    45   26   27 1   
    46   26   28 1   
    47   26   57 1   
    48   27   58 1   
    49   27   59 1   
    50   28   29 1   
    51   28   60 1   
    52   29   30 1   
    53   29   33 1   
    54   29   61 1   
    55   30   31 1   
    56   30   62 1   
    57   30   63 1   
    58   31   32 1   
    59   31   64 1   
    60   31   65 1   
    61   32   33 1   
    62   32   66 1   
    63   32   67 1   
    64   33   68 1   
    65   33   69 1   
@<TRIPOS>SUBSTRUCTURE
     1 1AF         1 TEMP              0 ****  ****    0 ROOT
