@<TRIPOS>MOLECULE
1AF
   73    77     1     0     0
SMALL
bcc


@<TRIPOS>ATOM
      1 C1         -1.2060   -0.7550   -0.0350 c3        1 1AF     -0.109400
      2 C2          0.2640   -0.9090   -0.3980 c3        1 1AF     -0.099400
      3 C3          1.0520   -0.9680    0.9040 c3        1 1AF     -0.099400
      4 C4          0.0470   -0.9000    2.0470 c3        1 1AF     -0.109400
      5 C5         -1.2530   -0.3340    1.4480 c3        1 1AF      0.114500
      6 N6         -1.3200    1.1820    1.5660 n4        1 1AF     -0.801000
      7 C7         -1.6510    1.7080    2.9460 c3        1 1AF      0.411000
      8 N8         -3.0860    1.4420    3.3820 n4        1 1AF     -0.867600
      9 C9         -1.3700    3.1790    3.0410 ca        1 1AF     -0.285300
     10 C12        -0.4260    3.6230    3.9780 ca        1 1AF     -0.073500
     11 C13        -0.1390    4.9790    4.0890 ca        1 1AF     -0.114500
     12 C10        -2.0230    4.1150    2.2210 ca        1 1AF     -0.073500
     13 C11        -1.7340    5.4690    2.3360 ca        1 1AF     -0.114500
     14 C14        -0.7820    5.9290    3.2710 ca        1 1AF      0.107000
     15 C15        -0.4590    7.3270    3.3930 cc        1 1AF     -0.248300
     16 C17         0.6450    7.8590    4.0670 cd        1 1AF      0.375600
     17 O18         0.6440    9.2300    3.9900 os        1 1AF     -0.328800
     18 C16        -1.1900    8.4630    2.8660 cc        1 1AF     -0.145300
     19 C19        -0.5010    9.6060    3.2470 cd        1 1AF      0.247200
     20 C20        -0.6900   11.0230    3.0680 ca        1 1AF     -0.019500
     21 C23         0.2300   11.9390    3.6240 ca        1 1AF     -0.098500
     22 C24         0.0510   13.3060    3.4640 ca        1 1AF     -0.080500
     23 C21        -1.7880   11.5190    2.3450 ca        1 1AF     -0.098500
     24 C22        -1.9690   12.8920    2.1840 ca        1 1AF     -0.080500
     25 C25        -1.0530   13.7930    2.7430 ca        1 1AF     -0.275300
     26 C26        -1.2720   15.2680    2.5620 c3        1 1AF      0.410000
     27 N27        -1.5670   15.8960    3.9180 n4        1 1AF     -0.867600
     28 N28        -0.1050   15.9000    1.8340 n4        1 1AF     -0.801000
     29 C29        -0.3380   17.3170    1.3320 c3        1 1AF      0.114500
     30 C30         0.9940   17.9520    0.8820 c3        1 1AF     -0.109400
     31 C31         1.1090   17.7050   -0.6160 c3        1 1AF     -0.099900
     32 C32        -0.2680   17.2910   -1.1190 c3        1 1AF     -0.099900
     33 C33        -1.2190   17.3420    0.0700 c3        1 1AF     -0.109400
     34 H34        -1.7360   -0.0490   -0.7220 hc        1 1AF      0.094950
     35 H35        -1.7330   -1.7470   -0.1140 hc        1 1AF      0.094950
     36 H37         0.4160   -1.8450   -0.9990 hc        1 1AF      0.090700
     37 H36         0.6120   -0.0570   -1.0360 hc        1 1AF      0.090700
     38 H39         1.6490   -1.9160    0.9700 hc        1 1AF      0.090700
     39 H38         1.7820   -0.1210    0.9660 hc        1 1AF      0.090700
     40 H41        -0.1800   -1.9370    2.4210 hc        1 1AF      0.094950
     41 H40         0.4390   -0.3120    2.9110 hc        1 1AF      0.094950
     42 H42        -2.1670   -0.7460    1.9560 hx        1 1AF      0.082700
     43 H43        -0.3780    1.5510    1.3410 hn        1 1AF      0.478300
     44 H7         -0.9920    1.1200    3.6750 hx        1 1AF      0.169700
     45 H44        -3.1710    1.7840    4.3550 hn        1 1AF      0.487133
     46 H45        -3.3230    0.4420    3.3640 hn        1 1AF      0.487133
     47 H48         0.1000    2.9090    4.6360 ha        1 1AF      0.150000
     48 H49         0.6040    5.3090    4.8370 ha        1 1AF      0.175500
     49 H46        -2.7680    3.7930    1.4750 ha        1 1AF      0.150000
     50 H47        -2.2510    6.1920    1.6820 ha        1 1AF      0.175500
     51 H51         1.4920    7.4370    4.6160 h4        1 1AF      0.092100
     52 H50        -2.1120    8.4140    2.2880 ha        1 1AF      0.180000
     53 H54         1.1000   11.5600    4.1930 ha        1 1AF      0.186000
     54 H55         0.7880   13.9920    3.9120 ha        1 1AF      0.151500
     55 H52        -2.5180   10.8210    1.8990 ha        1 1AF      0.186000
     56 H53        -2.8410   13.2520    1.6100 ha        1 1AF      0.151500
     57 H26        -2.1970   15.4700    1.9170 hx        1 1AF      0.167700
     58 H56        -1.7490   16.9060    3.8520 hn        1 1AF      0.488467
     59 H57        -2.4130   15.4300    4.2870 hn        1 1AF      0.488467
     60 H58         0.7470   15.8760    2.4090 hn        1 1AF      0.479300
     61 H59        -0.7950   17.8980    2.1790 hx        1 1AF      0.082700
     62 H60         1.8860   17.5740    1.4400 hc        1 1AF      0.094950
     63 H61         0.9210   19.0560    1.0900 hc        1 1AF      0.094950
     64 H62         1.4600   18.6370   -1.1330 hc        1 1AF      0.090700
     65 H63         1.8680   16.9110   -0.8340 hc        1 1AF      0.090700
     66 H64        -0.6230   17.9820   -1.9290 hc        1 1AF      0.090700
     67 H65        -0.2380   16.2630   -1.5600 hc        1 1AF      0.090700
     68 H67        -1.7800   18.3180    0.0720 hc        1 1AF      0.094950
     69 H66        -1.9760   16.5220    0.0330 hc        1 1AF      0.094950
     70 H621       -1.9690    1.5520    0.8610 hn        1 1AF      0.478300
     71 H83        -3.7570    1.9650    2.8060 hn        1 1AF      0.487133
     72 H273       -0.8010   15.7280    4.5840 hn        1 1AF      0.488467
     73 H282        0.0690   15.3030    1.0040 hn        1 1AF      0.479300
@<TRIPOS>BOND
     1    1    2 1   
     2    1    5 1   
     3    1   34 1   
     4    1   35 1   
     5    2    3 1   
     6    2   36 1   
     7    2   37 1   
     8    3    4 1   
     9    3   38 1   
    10    3   39 1   
    11    4    5 1   
    12    4   40 1   
    13    4   41 1   
    14    5    6 1   
    15    5   42 1   
    16    6    7 1   
    17    6   43 1   
    18    6   70 1   
    19    7    8 1   
    20    7    9 1   
    21    7   44 1   
    22    8   45 1   
    23    8   46 1   
    24    8   71 1   
    25    9   10 ar  
    26    9   12 ar  
    27   10   11 ar  
    28   10   47 1   
    29   11   14 ar  
    30   11   48 1   
    31   12   13 ar  
    32   12   49 1   
    33   13   14 ar  
    34   13   50 1   
    35   14   15 1   
    36   15   16 2   
    37   15   18 1   
    38   16   17 1   
    39   16   51 1   
    40   17   19 1   
    41   18   19 2   
    42   18   52 1   
    43   19   20 1   
    44   20   21 ar  
    45   20   23 ar  
    46   21   22 ar  
    47   21   53 1   
    48   22   25 ar  
    49   22   54 1   
    50   23   24 ar  
    51   23   55 1   
    52   24   25 ar  
    53   24   56 1   
    54   25   26 1   
    55   26   27 1   
    56   26   28 1   
    57   26   57 1   
    58   27   58 1   
    59   27   59 1   
    60   27   72 1   
    61   28   29 1   
    62   28   60 1   
    63   28   73 1   
    64   29   30 1   
    65   29   33 1   
    66   29   61 1   
    67   30   31 1   
    68   30   62 1   
    69   30   63 1   
    70   31   32 1   
    71   31   64 1   
    72   31   65 1   
    73   32   33 1   
    74   32   66 1   
    75   32   67 1   
    76   33   68 1   
    77   33   69 1   
@<TRIPOS>SUBSTRUCTURE
     1 1AF         1 TEMP              0 ****  ****    0 ROOT
