@<TRIPOS>MOLECULE
1AG
   65    64     1     0     0
SMALL
bcc


@<TRIPOS>ATOM
      1 C01        -3.7130    0.2170   -1.1210 c         1 1AG      0.645100
      2 O01        -4.1910    1.4100   -0.6480 os        1 1AG     -0.432900
      3 C02        -2.5980   -0.3250   -0.2820 c3        1 1AG     -0.127400
      4 C03        -2.6470   -1.8370   -0.2220 c3        1 1AG     -0.077400
      5 O03        -4.2230   -0.2580   -2.1390 o         1 1AG     -0.560000
      6 C04        -1.4390   -2.3800    0.5130 c3        1 1AG     -0.048200
      7 C05        -1.4630   -3.8590    0.6050 c2        1 1AG     -0.177200
      8 C06        -0.4780   -4.5860    1.1430 c2        1 1AG     -0.164200
      9 C07         0.7630   -3.9980    1.7020 c3        1 1AG     -0.021000
     10 C08         1.6250   -4.9820    2.4000 c2        1 1AG     -0.172200
     11 C09         2.8670   -4.7140    2.8190 c2        1 1AG     -0.168200
     12 C10         3.5370   -3.4060    2.6200 c3        1 1AG     -0.020000
     13 C11         4.8170   -3.2760    3.3570 c2        1 1AG     -0.172200
     14 C12         5.6680   -2.2590    3.1880 c2        1 1AG     -0.169200
     15 C13         5.4430   -1.1490    2.2320 c3        1 1AG     -0.020000
     16 C14         6.4170   -0.0390    2.3660 c2        1 1AG     -0.171200
     17 C15         6.4860    0.9910    1.5160 c2        1 1AG     -0.173200
     18 C16         5.6070    1.1430    0.3320 c3        1 1AG     -0.049200
     19 C17         5.8290    2.4600   -0.3820 c3        1 1AG     -0.077400
     20 C18         4.9170    2.5910   -1.5840 c3        1 1AG     -0.079400
     21 C19         5.1370    3.9060   -2.3010 c3        1 1AG     -0.080400
     22 C20         4.2310    4.0400   -3.4980 c3        1 1AG     -0.093100
     23 C21        -5.2300    2.0550   -1.3890 c3        1 1AG      0.104400
     24 C22        -4.6460    2.9260   -2.5000 c3        1 1AG      0.118100
     25 C23        -5.7810    3.6180   -3.2650 c3        1 1AG      0.097400
     26 O26        -3.8420    2.1940   -3.4030 oh        1 1AG     -0.596800
     27 O27        -6.4380    4.4790   -2.3520 oh        1 1AG     -0.602800
     28 H02        -1.6360    0.0190   -0.7510 hc        1 1AG      0.081200
     29 H02A       -2.6540    0.1150    0.7480 hc        1 1AG      0.081200
     30 H03        -3.5860   -2.1630    0.2980 hc        1 1AG      0.059200
     31 H03A       -2.6830   -2.2520   -1.2640 hc        1 1AG      0.059200
     32 H04        -0.4990   -2.0530   -0.0120 hc        1 1AG      0.048200
     33 H04A       -1.4000   -1.9430    1.5490 hc        1 1AG      0.048200
     34 H05        -2.3600   -4.3540    0.1970 ha        1 1AG      0.126000
     35 H06        -0.5580   -5.6850    1.1810 ha        1 1AG      0.126000
     36 H07         1.3470   -3.5120    0.8680 hc        1 1AG      0.055700
     37 H07A        0.4960   -3.1710    2.4210 hc        1 1AG      0.055700
     38 H08         1.1850   -5.9780    2.5730 ha        1 1AG      0.125000
     39 H09         3.4550   -5.4880    3.3380 ha        1 1AG      0.125000
     40 H10         3.7210   -3.2530    1.5170 hc        1 1AG      0.055200
     41 H10A        2.8440   -2.5760    2.9410 hc        1 1AG      0.055200
     42 H11         5.0450   -4.0750    4.0810 ha        1 1AG      0.124000
     43 H12         6.6030   -2.2170    3.7710 ha        1 1AG      0.125000
     44 H13         5.4830   -1.5560    1.1800 hc        1 1AG      0.055700
     45 H13A        4.4000   -0.7400    2.3690 hc        1 1AG      0.055700
     46 H14         7.1020   -0.0940    3.2280 ha        1 1AG      0.123000
     47 H15         7.2280    1.7900    1.6710 ha        1 1AG      0.123000
     48 H16         5.7940    0.2930   -0.3810 hc        1 1AG      0.046700
     49 H16A        4.5310    1.0650    0.6500 hc        1 1AG      0.046700
     50 H17         5.6410    3.3090    0.3270 hc        1 1AG      0.041700
     51 H17A        6.8990    2.5350   -0.7120 hc        1 1AG      0.041700
     52 H18         5.1040    1.7410   -2.2920 hc        1 1AG      0.039700
     53 H18A        3.8470    2.5170   -1.2540 hc        1 1AG      0.039700
     54 H19         4.9510    4.7540   -1.5900 hc        1 1AG      0.038700
     55 H19A        6.2080    3.9780   -2.6280 hc        1 1AG      0.038700
     56 H20         4.4090    5.0160   -4.0110 hc        1 1AG      0.033033
     57 H20A        4.4180    3.2170   -4.2290 hc        1 1AG      0.033033
     58 H20B        3.1590    3.9950   -3.1880 hc        1 1AG      0.033033
     59 H21        -5.9420    1.2960   -1.8060 h1        1 1AG      0.078200
     60 H21A       -5.7430    2.7030   -0.6280 h1        1 1AG      0.078200
     61 H22        -3.9510    3.6970   -2.0620 h1        1 1AG      0.094700
     62 H23        -5.3500    4.1980   -4.1230 h1        1 1AG      0.034200
     63 HO26       -4.3190    1.3840   -3.6360 ho        1 1AG      0.420000
     64 H37        -7.0480    5.0160   -2.8700 ho        1 1AG      0.406000
     65 H38        -6.5060    2.8580   -3.6640 h1        1 1AG      0.034200
@<TRIPOS>BOND
     1    1    2 1   
     2    1    3 1   
     3    1    5 2   
     4    2   23 1   
     5    3    4 1   
     6    3   28 1   
     7    3   29 1   
     8    4    6 1   
     9    4   30 1   
    10    4   31 1   
    11    6    7 1   
    12    6   32 1   
    13    6   33 1   
    14    7    8 2   
    15    7   34 1   
    16    8    9 1   
    17    8   35 1   
    18    9   10 1   
    19    9   36 1   
    20    9   37 1   
    21   10   11 2   
    22   10   38 1   
    23   11   12 1   
    24   11   39 1   
    25   12   13 1   
    26   12   40 1   
    27   12   41 1   
    28   13   14 2   
    29   13   42 1   
    30   14   15 1   
    31   14   43 1   
    32   15   16 1   
    33   15   44 1   
    34   15   45 1   
    35   16   17 2   
    36   16   46 1   
    37   17   18 1   
    38   17   47 1   
    39   18   19 1   
    40   18   48 1   
    41   18   49 1   
    42   19   20 1   
    43   19   50 1   
    44   19   51 1   
    45   20   21 1   
    46   20   52 1   
    47   20   53 1   
    48   21   22 1   
    49   21   54 1   
    50   21   55 1   
    51   22   56 1   
    52   22   57 1   
    53   22   58 1   
    54   23   24 1   
    55   23   59 1   
    56   23   60 1   
    57   24   25 1   
    58   24   26 1   
    59   24   61 1   
    60   25   27 1   
    61   25   62 1   
    62   25   65 1   
    63   26   63 1   
    64   27   64 1   
@<TRIPOS>SUBSTRUCTURE
     1 1AG         1 TEMP              0 ****  ****    0 ROOT
