@<TRIPOS>MOLECULE
1AG
   65    64     1     0     0
SMALL
bcc


@<TRIPOS>ATOM
      1 C01        -1.9410   -1.2280   -0.3680 c         1 1AG      0.634100
      2 O01        -0.8280   -1.9360   -0.7340 os        1 1AG     -0.443900
      3 C02        -2.4130   -1.5750    1.0100 c3        1 1AG     -0.128400
      4 C03        -3.0120   -0.3680    1.7000 c3        1 1AG     -0.077400
      5 O03        -2.4160   -0.4300   -1.1780 o         1 1AG     -0.541000
      6 C04        -3.6040   -0.7580    3.0380 c3        1 1AG     -0.048200
      7 C05        -4.1860    0.4060    3.7480 c2        1 1AG     -0.177200
      8 C06        -4.8280    0.3170    4.9180 c2        1 1AG     -0.164200
      9 C07        -5.0440   -0.9590    5.6410 c3        1 1AG     -0.021000
     10 C08        -5.5980   -0.7830    7.0050 c2        1 1AG     -0.172200
     11 C09        -6.0460   -1.7920    7.7600 c2        1 1AG     -0.168200
     12 C10        -6.0610   -3.2070    7.3160 c3        1 1AG     -0.020000
     13 C11        -6.3750   -4.1660    8.4030 c2        1 1AG     -0.172200
     14 C12        -6.6290   -5.4630    8.1970 c2        1 1AG     -0.168200
     15 C13        -6.6470   -6.0940    6.8550 c3        1 1AG     -0.020000
     16 C14        -6.7340   -7.5740    6.8950 c2        1 1AG     -0.171200
     17 C15        -6.9290   -8.3320    5.8110 c2        1 1AG     -0.173200
     18 C16        -7.0950   -7.7880    4.4420 c3        1 1AG     -0.049200
     19 C17        -7.1730   -8.8810    3.3960 c3        1 1AG     -0.077400
     20 C18        -7.3390   -8.2980    2.0090 c3        1 1AG     -0.079400
     21 C19        -7.4190   -9.3870    0.9600 c3        1 1AG     -0.080400
     22 C20        -7.5840   -8.8120   -0.4230 c3        1 1AG     -0.093100
     23 C21        -0.3420   -1.7240   -2.0690 c3        1 1AG      0.138400
     24 C22         0.8120   -2.7110   -2.2530 c3        1 1AG      0.140100
     25 C23         2.0250   -2.0020   -2.8650 c3        1 1AG      0.092400
     26 O26         0.3390   -3.7260   -3.1250 oh        1 1AG     -0.599800
     27 O27         3.0120   -3.0060   -3.0490 oh        1 1AG     -0.610800
     28 H02        -1.5580   -1.9880    1.6070 hc        1 1AG      0.079700
     29 H02A       -3.1810   -2.3880    0.9040 hc        1 1AG      0.079700
     30 H03        -2.2210    0.4130    1.8470 hc        1 1AG      0.059700
     31 H03A       -3.8050    0.0820    1.0440 hc        1 1AG      0.059700
     32 H04        -4.3980   -1.5400    2.8860 hc        1 1AG      0.047700
     33 H04A       -2.8080   -1.2260    3.6800 hc        1 1AG      0.047700
     34 H05        -4.0650    1.3830    3.2540 ha        1 1AG      0.127000
     35 H06        -5.2380    1.2220    5.3950 ha        1 1AG      0.126000
     36 H07        -4.0680   -1.5210    5.7120 hc        1 1AG      0.055700
     37 H07A       -5.7370   -1.6110    5.0350 hc        1 1AG      0.055700
     38 H08        -5.6200    0.2490    7.3920 ha        1 1AG      0.125000
     39 H09        -6.4410   -1.5950    8.7700 ha        1 1AG      0.125000
     40 H10        -5.0590   -3.4740    6.8710 hc        1 1AG      0.055200
     41 H10A       -6.8150   -3.3210    6.4840 hc        1 1AG      0.055200
     42 H11        -6.3830   -3.7560    9.4260 ha        1 1AG      0.124000
     43 H12        -6.8500   -6.1260    9.0490 ha        1 1AG      0.125000
     44 H13        -5.7180   -5.7970    6.2870 hc        1 1AG      0.055700
     45 H13A       -7.5180   -5.6830    6.2680 hc        1 1AG      0.055700
     46 H14        -6.6200   -8.0420    7.8860 ha        1 1AG      0.123000
     47 H15        -6.9770   -9.4300    5.9030 ha        1 1AG      0.123000
     48 H16        -8.0290   -7.1630    4.4020 hc        1 1AG      0.046700
     49 H16A       -6.2370   -7.1010    4.2050 hc        1 1AG      0.046700
     50 H17        -6.2410   -9.5050    3.4330 hc        1 1AG      0.041700
     51 H17A       -8.0360   -9.5600    3.6240 hc        1 1AG      0.041700
     52 H18        -6.4750   -7.6200    1.7790 hc        1 1AG      0.039200
     53 H18A       -8.2690   -7.6720    1.9720 hc        1 1AG      0.039200
     54 H19        -6.4890  -10.0130    1.0000 hc        1 1AG      0.038700
     55 H19A       -8.2830  -10.0650    1.1920 hc        1 1AG      0.038700
     56 H20        -6.7200   -8.1530   -0.6810 hc        1 1AG      0.033367
     57 H20A       -7.6410   -9.6310   -1.1800 hc        1 1AG      0.033367
     58 H20B       -8.5190   -8.2040   -0.4890 hc        1 1AG      0.033367
     59 H21        -0.0000   -0.6610   -2.1590 h1        1 1AG      0.068200
     60 H21A       -1.1670   -1.9220   -2.8020 h1        1 1AG      0.068200
     61 H22         1.1030   -3.1700   -1.2660 h1        1 1AG      0.069700
     62 H23         1.7530   -1.5400   -3.8500 h1        1 1AG      0.037700
     63 HO26        1.0880   -4.3120   -3.2980 ho        1 1AG      0.421000
     64 H37         3.7460   -2.5930   -3.5170 ho        1 1AG      0.410000
     65 H38         2.4060   -1.2100   -2.1680 h1        1 1AG      0.037700
@<TRIPOS>BOND
     1    1    2 1   
     2    1    3 1   
     3    1    5 2   
     4    2   23 1   
     5    3    4 1   
     6    3   28 1   
     7    3   29 1   
     8    4    6 1   
     9    4   30 1   
    10    4   31 1   
    11    6    7 1   
    12    6   32 1   
    13    6   33 1   
    14    7    8 2   
    15    7   34 1   
    16    8    9 1   
    17    8   35 1   
    18    9   10 1   
    19    9   36 1   
    20    9   37 1   
    21   10   11 2   
    22   10   38 1   
    23   11   12 1   
    24   11   39 1   
    25   12   13 1   
    26   12   40 1   
    27   12   41 1   
    28   13   14 2   
    29   13   42 1   
    30   14   15 1   
    31   14   43 1   
    32   15   16 1   
    33   15   44 1   
    34   15   45 1   
    35   16   17 2   
    36   16   46 1   
    37   17   18 1   
    38   17   47 1   
    39   18   19 1   
    40   18   48 1   
    41   18   49 1   
    42   19   20 1   
    43   19   50 1   
    44   19   51 1   
    45   20   21 1   
    46   20   52 1   
    47   20   53 1   
    48   21   22 1   
    49   21   54 1   
    50   21   55 1   
    51   22   56 1   
    52   22   57 1   
    53   22   58 1   
    54   23   24 1   
    55   23   59 1   
    56   23   60 1   
    57   24   25 1   
    58   24   26 1   
    59   24   61 1   
    60   25   27 1   
    61   25   62 1   
    62   25   65 1   
    63   26   63 1   
    64   27   64 1   
@<TRIPOS>SUBSTRUCTURE
     1 1AG         1 TEMP              0 ****  ****    0 ROOT
