@<TRIPOS>MOLECULE
1AG
   65    64     1     0     0
SMALL
bcc


@<TRIPOS>ATOM
      1 C01        -2.1450   -1.1190   -0.2210 c         1 1AG      0.634100
      2 O01        -1.2900   -2.0670   -0.7160 os        1 1AG     -0.443900
      3 C02        -2.7540   -1.5240    1.0850 c3        1 1AG     -0.128400
      4 C03        -2.9820   -0.3210    1.9750 c3        1 1AG     -0.077400
      5 O03        -2.3190   -0.0920   -0.8790 o         1 1AG     -0.541000
      6 C04        -3.7190   -0.7220    3.2360 c3        1 1AG     -0.048200
      7 C05        -3.9410    0.4310    4.1410 c2        1 1AG     -0.178200
      8 C06        -4.4620    0.3230    5.3680 c2        1 1AG     -0.164200
      9 C07        -4.8720   -0.9670    5.9730 c3        1 1AG     -0.020000
     10 C08        -5.5330   -0.8230    7.2920 c2        1 1AG     -0.171200
     11 C09        -6.0990   -1.8410    7.9510 c2        1 1AG     -0.169200
     12 C10        -6.1440   -3.2300    7.4340 c3        1 1AG     -0.020000
     13 C11        -6.6450   -4.2160    8.4210 c2        1 1AG     -0.172200
     14 C12        -6.9200   -5.4900    8.1200 c2        1 1AG     -0.169200
     15 C13        -6.7710   -6.0640    6.7610 c3        1 1AG     -0.020000
     16 C14        -6.9470   -7.5350    6.7130 c2        1 1AG     -0.171200
     17 C15        -6.9830   -8.2380    5.5750 c2        1 1AG     -0.173200
     18 C16        -6.8640   -7.6320    4.2280 c3        1 1AG     -0.049200
     19 C17        -6.8290   -8.6750    3.1300 c3        1 1AG     -0.077400
     20 C18        -6.7030   -8.0300    1.7670 c3        1 1AG     -0.079400
     21 C19        -6.6690   -9.0700    0.6670 c3        1 1AG     -0.080400
     22 C20        -6.5430   -8.4320   -0.6930 c3        1 1AG     -0.093100
     23 C21        -0.7110   -1.8000   -2.0030 c3        1 1AG      0.138400
     24 C22         0.0910   -3.0520   -2.3650 c3        1 1AG      0.140100
     25 C23         1.4830   -2.6610   -2.8750 c3        1 1AG      0.092400
     26 O26        -0.6400   -3.7190   -3.3830 oh        1 1AG     -0.599800
     27 O27         2.1200   -3.8760   -3.2370 oh        1 1AG     -0.610800
     28 H02        -2.0910   -2.2720    1.5930 hc        1 1AG      0.079200
     29 H02A       -3.7300   -2.0310    0.8550 hc        1 1AG      0.079200
     30 H03        -1.9960    0.1420    2.2440 hc        1 1AG      0.059700
     31 H03A       -3.5700    0.4540    1.4140 hc        1 1AG      0.059700
     32 H04        -4.7130   -1.1750    2.9640 hc        1 1AG      0.048200
     33 H04A       -3.1380   -1.5180    3.7760 hc        1 1AG      0.048200
     34 H05        -3.6520    1.4190    3.7440 ha        1 1AG      0.127000
     35 H06        -4.6050    1.2220    5.9890 ha        1 1AG      0.126000
     36 H07        -5.5630   -1.5080    5.2640 hc        1 1AG      0.056200
     37 H07A       -3.9630   -1.6250    6.0870 hc        1 1AG      0.056200
     38 H08        -5.5380    0.1890    7.7280 ha        1 1AG      0.125000
     39 H09        -6.5730   -1.6710    8.9310 ha        1 1AG      0.125000
     40 H10        -6.7950   -3.2570    6.5120 hc        1 1AG      0.055200
     41 H10A       -5.1120   -3.5390    7.0980 hc        1 1AG      0.055200
     42 H11        -6.7820   -3.8490    9.4510 ha        1 1AG      0.124000
     43 H12        -7.2850   -6.1770    8.9020 ha        1 1AG      0.125000
     44 H13        -7.5200   -5.5750    6.0730 hc        1 1AG      0.055700
     45 H13A       -5.7530   -5.8020    6.3520 hc        1 1AG      0.055700
     46 H14        -7.0430   -8.0470    7.6840 ha        1 1AG      0.123000
     47 H15        -7.1110   -9.3320    5.6030 ha        1 1AG      0.123000
     48 H16        -7.7310   -6.9360    4.0560 hc        1 1AG      0.046700
     49 H16A       -5.9320   -7.0050    4.1800 hc        1 1AG      0.046700
     50 H17        -5.9640   -9.3700    3.2990 hc        1 1AG      0.041700
     51 H17A       -7.7640   -9.2940    3.1690 hc        1 1AG      0.041700
     52 H18        -5.7680   -7.4120    1.7280 hc        1 1AG      0.039200
     53 H18A       -7.5660   -7.3340    1.5990 hc        1 1AG      0.039200
     54 H19        -7.6040   -9.6880    0.7080 hc        1 1AG      0.038700
     55 H19A       -5.8060   -9.7660    0.8380 hc        1 1AG      0.038700
     56 H20        -6.5200   -9.2160   -1.4880 hc        1 1AG      0.033367
     57 H20A       -7.4070   -7.7530   -0.8910 hc        1 1AG      0.033367
     58 H20B       -5.6030   -7.8320   -0.7610 hc        1 1AG      0.033367
     59 H21        -1.5280   -1.6120   -2.7470 h1        1 1AG      0.068200
     60 H21A       -0.0570   -0.8950   -1.9190 h1        1 1AG      0.068200
     61 H22         0.1940   -3.7290   -1.4710 h1        1 1AG      0.069700
     62 H23         1.3980   -1.9860   -3.7670 h1        1 1AG      0.037700
     63 HO26       -0.1000   -4.4700   -3.6610 ho        1 1AG      0.421000
     64 H37         2.9610   -3.6390   -3.6450 ho        1 1AG      0.410000
     65 H38         2.0640   -2.1470   -2.0640 h1        1 1AG      0.037700
@<TRIPOS>BOND
     1    1    2 1   
     2    1    3 1   
     3    1    5 2   
     4    2   23 1   
     5    3    4 1   
     6    3   28 1   
     7    3   29 1   
     8    4    6 1   
     9    4   30 1   
    10    4   31 1   
    11    6    7 1   
    12    6   32 1   
    13    6   33 1   
    14    7    8 2   
    15    7   34 1   
    16    8    9 1   
    17    8   35 1   
    18    9   10 1   
    19    9   36 1   
    20    9   37 1   
    21   10   11 2   
    22   10   38 1   
    23   11   12 1   
    24   11   39 1   
    25   12   13 1   
    26   12   40 1   
    27   12   41 1   
    28   13   14 2   
    29   13   42 1   
    30   14   15 1   
    31   14   43 1   
    32   15   16 1   
    33   15   44 1   
    34   15   45 1   
    35   16   17 2   
    36   16   46 1   
    37   17   18 1   
    38   17   47 1   
    39   18   19 1   
    40   18   48 1   
    41   18   49 1   
    42   19   20 1   
    43   19   50 1   
    44   19   51 1   
    45   20   21 1   
    46   20   52 1   
    47   20   53 1   
    48   21   22 1   
    49   21   54 1   
    50   21   55 1   
    51   22   56 1   
    52   22   57 1   
    53   22   58 1   
    54   23   24 1   
    55   23   59 1   
    56   23   60 1   
    57   24   25 1   
    58   24   26 1   
    59   24   61 1   
    60   25   27 1   
    61   25   62 1   
    62   25   65 1   
    63   26   63 1   
    64   27   64 1   
@<TRIPOS>SUBSTRUCTURE
     1 1AG         1 TEMP              0 ****  ****    0 ROOT
