@<TRIPOS>MOLECULE
1AG
   65    59     1     0     0
SMALL
bcc


@<TRIPOS>ATOM
      1 C01         5.8750   -1.6700   -6.1750 c1        1 1AG      0.305000
      2 O01         6.3320   -2.5460   -7.1940 o         1 1AG     -0.276000
      3 C02         4.4780   -1.9160   -5.4930 c3        1 1AG     -0.157000
      4 C03         4.6410   -1.8930   -3.9630 c3        1 1AG     -0.156000
      5 O03         6.5250   -0.6600   -5.8970 o         1 1AG     -0.361000
      6 C04         3.2450   -1.6900   -3.2950 c3        1 1AG     -0.131000
      7 C05         3.1590   -2.5380   -2.0270 c2        1 1AG     -0.175000
      8 C06         2.1640   -2.2880   -1.0920 c1        1 1AG     -0.159000
      9 C07         1.1400   -1.1490   -1.3330 c2        1 1AG     -0.104667
     10 C08        -0.0910   -1.3740   -0.4500 c2        1 1AG     -0.165333
     11 C09        -0.6500   -0.3300    0.2150 c1        1 1AG     -0.161333
     12 C10        -1.8680   -0.5540    1.0890 c2        1 1AG     -0.104667
     13 C11        -2.0660    0.6590    2.0220 c2        1 1AG     -0.165333
     14 C12        -3.1600    0.7120    2.8520 c1        1 1AG     -0.161333
     15 C13        -3.3560    1.8980    3.7710 c2        1 1AG     -0.104667
     16 C14        -4.6810    1.7510    4.5170 c2        1 1AG     -0.165333
     17 C15        -4.9480    2.5410    5.5660 c1        1 1AG     -0.161333
     18 C16        -6.2860    2.3960    6.3190 c2        1 1AG     -0.131000
     19 C17        -6.1940    3.1340    7.6840 c3        1 1AG     -0.155000
     20 C18        -7.5830    3.1050    8.3810 c3        1 1AG     -0.158000
     21 C19        -7.4550    3.6680    9.8320 c3        1 1AG     -0.159000
     22 C20        -8.8520    3.9260   10.3990 c3        1 1AG     -0.211000
     23 C21         6.8610   -1.8660   -8.3550 c3        1 1AG     -0.016000
     24 C22         7.9910   -2.6830   -8.9530 c3        1 1AG      0.010000
     25 C23         8.1760   -2.2960  -10.3950 c3        1 1AG     -0.066000
     26 O26         7.6740   -4.0570   -8.8710 oh        1 1AG     -0.331000
     27 O27         9.4260   -2.7650  -10.8550 oh        1 1AG     -0.344000
     28 H02         4.1340   -2.7720   -5.7650 hc        1 1AG      0.119500
     29 H02A        3.8550   -1.2130   -5.7640 hc        1 1AG      0.119500
     30 H03         5.0170   -2.7200   -3.6700 hc        1 1AG      0.099000
     31 H03A        5.2320   -1.1600   -3.7100 hc        1 1AG      0.099000
     32 H04         3.1250   -0.7390   -3.0640 hc        1 1AG      0.088000
     33 H04A        2.5420   -1.9660   -3.9200 hc        1 1AG      0.088000
     34 H05         3.8170   -3.2690   -1.8710 ha        1 1AG      0.126000
     35 H06         2.1090   -2.8370   -0.2710 ha        1 1AG      0.127000
     36 H07         1.5510   -0.2850   -1.1080 ha        1 1AG      0.092833
     37 H07A        0.8720   -1.1460   -2.2650 ha        1 1AG      0.092833
     38 H08        -0.4500   -2.2450   -0.3500 ha        1 1AG      0.122667
     39 H09        -0.2710    0.5670    0.1230 ha        1 1AG      0.121667
     40 H10        -2.6650   -0.6640    0.5200 ha        1 1AG      0.092833
     41 H10A       -1.7370   -1.3560    1.6240 ha        1 1AG      0.092833
     42 H11        -1.3760    1.3740    2.0610 ha        1 1AG      0.122667
     43 H12        -3.8430    0.0110    2.8060 ha        1 1AG      0.121667
     44 H13        -3.3700    2.7250    3.2420 ha        1 1AG      0.092833
     45 H13A       -2.6150    1.9360    4.4220 ha        1 1AG      0.092833
     46 H14        -5.3610    1.1430    4.1810 ha        1 1AG      0.122667
     47 H15        -4.3280    3.2490    5.8100 ha        1 1AG      0.121667
     48 H16        -7.0090    2.7910    5.7820 ha        1 1AG      0.085000
     49 H16A       -6.4750    1.4390    6.4740 ha        1 1AG      0.085000
     50 H17        -5.9260    4.0550    7.5350 hc        1 1AG      0.081500
     51 H17A       -5.5270    2.6850    8.2580 hc        1 1AG      0.081500
     52 H18        -7.9120    2.1750    8.4180 hc        1 1AG      0.078500
     53 H18A       -8.2190    3.6590    7.8690 hc        1 1AG      0.078500
     54 H19        -6.9430    4.5150    9.8140 hc        1 1AG      0.078000
     55 H19A       -6.9820    3.0070   10.4040 hc        1 1AG      0.078000
     56 H20        -9.2850    4.6450    9.8850 hc        1 1AG      0.072000
     57 H20A       -8.7790    4.1950   11.3450 hc        1 1AG      0.072000
     58 H20B       -9.3930    3.1000   10.3320 hc        1 1AG      0.072000
     59 H21         6.1490   -1.7580   -9.0230 h1        1 1AG      0.120500
     60 H21A        7.1940   -0.9970   -8.0960 h1        1 1AG      0.120500
     61 H22         8.8270   -2.5060   -8.4540 h1        1 1AG      0.100000
     62 H23         7.4760   -2.6840  -10.9200 h1        1 1AG      0.088500
     63 HO26        8.4260   -4.5310   -8.7510 ho        1 1AG      0.222000
     64 H37         9.5010   -2.6040  -11.7290 ho        1 1AG      0.208000
     65 H38         8.1430   -1.3340  -10.4760 h1        1 1AG      0.088500
@<TRIPOS>BOND
     1    1    3 1   
     2    1    5 1   
     3    2   23 1   
     4    3    4 1   
     5    3   28 1   
     6    3   29 1   
     7    4    6 1   
     8    4   30 1   
     9    4   31 1   
    10    6    7 1   
    11    6   32 1   
    12    6   33 1   
    13    7    8 1   
    14    7   34 1   
    15    8   35 1   
    16    9   10 1   
    17    9   36 1   
    18    9   37 1   
    19   10   11 1   
    20   10   38 1   
    21   11   39 1   
    22   12   13 1   
    23   12   40 1   
    24   12   41 1   
    25   13   14 1   
    26   13   42 1   
    27   14   43 1   
    28   15   16 1   
    29   15   44 1   
    30   15   45 1   
    31   16   17 1   
    32   16   46 1   
    33   17   47 1   
    34   18   19 1   
    35   18   48 1   
    36   18   49 1   
    37   19   20 1   
    38   19   50 1   
    39   19   51 1   
    40   20   21 1   
    41   20   52 1   
    42   20   53 1   
    43   21   22 1   
    44   21   54 1   
    45   21   55 1   
    46   22   56 1   
    47   22   57 1   
    48   22   58 1   
    49   23   24 1   
    50   23   59 1   
    51   23   60 1   
    52   24   25 1   
    53   24   26 1   
    54   24   61 1   
    55   25   27 1   
    56   25   62 1   
    57   25   65 1   
    58   26   63 1   
    59   27   64 1   
@<TRIPOS>SUBSTRUCTURE
     1 1AG         1 TEMP              0 ****  ****    0 ROOT
