@<TRIPOS>MOLECULE
1AH
   86    88     1     0     0
SMALL
bcc


@<TRIPOS>ATOM
      1 C23        -0.1060    0.1450    0.2270 c2        1 1AH     -0.054000
      2 C24         1.2220    0.8630    0.2900 c3        1 1AH     -0.130000
      3 C25         2.3150   -0.1220    0.6170 c2        1 1AH     -0.143000
      4 C26         2.1000   -1.2990    1.2490 c2        1 1AH     -0.158000
      5 C27         0.7570   -1.5060    1.8120 c2        1 1AH     -0.060000
      6 C28        -0.1630   -0.8420    1.1180 c1        1 1AH     -0.218000
      7 C33        -1.2030   -3.7450   -4.1020 c3        1 1AH     -0.082000
      8 C34        -1.6850   -3.2290   -5.4130 c2        1 1AH     -0.536000
      9 C35        -1.9280   -3.9000   -6.5210 c1        1 1AH      0.176000
     10 C36        -1.1430   -6.1530   -6.2940 c2        1 1AH     -0.240000
     11 C37        -1.5240   -6.0550   -5.0020 c2        1 1AH     -0.183000
     12 C38        -0.9550   -5.1770   -4.0590 c1        1 1AH      0.006000
     13 C32         0.0390   -2.9950   -3.6050 c3        1 1AH     -0.055000
     14 C7         -2.5270    2.1680   -6.3710 c3        1 1AH     -0.058000
     15 C4         -1.1560   -1.7570   -1.9400 c2        1 1AH     -0.684000
     16 O3         -1.2800   -0.0160   -5.5990 o         1 1AH     -0.445000
     17 N1          0.8170    1.0320   -5.6650 n         1 1AH     -0.350000
     18 C22        -1.1040    0.5310   -0.7860 c3        1 1AH     -0.159000
     19 O6         -2.7900   -1.1470   -0.3330 oh        1 1AH     -0.350000
     20 O8         -1.0950    2.1470   -6.2740 os        1 1AH     -0.264000
     21 C10        -2.8380   -0.0310   -2.4480 c2        1 1AH      0.171000
     22 O11        -2.3600    0.5850   -3.4030 o         1 1AH     -0.278000
     23 N12        -4.3370   -0.2180   -2.3770 n4        1 1AH      0.140000
     24 C51        -4.9050   -1.0120   -3.3790 c2        1 1AH     -0.693000
     25 C52        -4.8440   -2.4910   -3.4070 c3        1 1AH      0.031000
     26 C57        -5.8040   -2.8490   -4.5140 c2        1 1AH      0.017000
     27 C53        -5.0880   -3.2520   -2.1560 c2        1 1AH     -0.089000
     28 C54        -5.8000   -4.4020   -2.1890 c2        1 1AH     -0.223000
     29 C55        -6.3800   -4.9230   -3.3970 c1        1 1AH     -0.069000
     30 C59        -5.4410   -0.4620   -4.6570 c3        1 1AH      0.153000
     31 O60        -4.5030    0.3100   -5.3900 oh        1 1AH     -0.372000
     32 C30        -0.5540    0.9770   -5.8110 c2        1 1AH      0.410000
     33 C56        -6.4770   -4.0240   -4.5030 c2        1 1AH     -0.238000
     34 C58        -5.9050   -1.7050   -5.4600 c3        1 1AH     -0.165000
     35 C41         1.5170   -0.0850   -5.0910 c3        1 1AH      0.034000
     36 C42         2.9610   -0.2640   -5.6470 c3        1 1AH     -0.045000
     37 C43         3.7580    1.0280   -5.6050 c3        1 1AH     -0.216333
     38 C1         -1.9330   -0.6440   -1.3550 c3        1 1AH      0.207000
     39 C44         3.6630   -1.3240   -4.8100 c3        1 1AH     -0.216333
     40 C45         1.5630    0.0390   -3.5490 c2        1 1AH      0.258000
     41 O46         2.1860    0.9580   -2.9830 o         1 1AH     -0.352000
     42 N47         0.9470   -0.9260   -2.7450 n         1 1AH     -0.423000
     43 BR         -1.8030   -7.4170   -7.4770 br        1 1AH      0.078000
     44 C86         2.8650   -0.7520   -7.0870 c3        1 1AH     -0.216333
     45 H24         1.4280    1.3170   -0.7200 hc        1 1AH      0.129000
     46 H25         1.2410    1.6910    1.0470 hc        1 1AH      0.129000
     47 H26         3.3260    0.1980    0.3240 ha        1 1AH      0.143000
     48 H27         2.8900   -2.0300    1.4540 ha        1 1AH      0.143000
     49 H28         0.6230   -2.0450    2.7530 ha        1 1AH      0.159000
     50 H34        -2.0390   -3.6090   -3.3250 hc        1 1AH      0.204000
     51 H35        -1.9050   -2.1360   -5.4400 ha        1 1AH      0.222000
     52 H37        -0.3100   -5.5730   -6.7200 h4        1 1AH      0.163000
     53 H38        -2.2900   -6.7370   -4.5690 ha        1 1AH      0.198000
     54 H321        0.5290   -3.5930   -2.7860 hx        1 1AH      0.133000
     55 H322        0.7620   -2.8670   -4.4570 hx        1 1AH      0.133000
     56 H7C1       -2.8840    1.3430   -7.0330 h1        1 1AH      0.106000
     57 H7C2       -2.7310    3.1740   -6.8130 h1        1 1AH      0.106000
     58 H7C3       -2.9710    2.0590   -5.3500 h1        1 1AH      0.106000
     59 H4C1       -0.7680   -1.0580   -3.7880 hn        1 1AH      0.258000
     60 H4C2       -1.0290   -2.6550   -1.3270 hx        1 1AH      0.165000
     61 H1          1.2800    1.9110   -5.7180 hn        1 1AH      0.259000
     62 H221       -0.6090    1.0690   -1.6390 hc        1 1AH      0.106500
     63 H222       -1.8190    1.2550   -0.3030 hc        1 1AH      0.106500
     64 H6         -2.2250   -1.5820    0.3210 ho        1 1AH      0.250000
     65 H12        -4.5410   -0.6410   -1.4630 hn        1 1AH      0.234500
     66 H51        -4.7530    0.7160   -2.4400 hn        1 1AH      0.234500
     67 H53        -3.8100   -2.8250   -3.7610 hc        1 1AH      0.085000
     68 H54        -4.5920   -2.8800   -1.2460 ha        1 1AH      0.124000
     69 H55        -5.9500   -5.0030   -1.2780 ha        1 1AH      0.137000
     70 H59        -6.3010    0.2490   -4.5010 h1        1 1AH      0.088000
     71 H60        -3.6430   -0.1300   -5.3340 ho        1 1AH      0.215000
     72 H56        -7.1390   -4.3140   -5.3330 ha        1 1AH      0.144000
     73 H581       -5.2440   -1.8550   -6.3510 hc        1 1AH      0.107500
     74 H582       -6.9540   -1.5750   -5.8230 hc        1 1AH      0.107500
     75 H41         0.9470   -1.0210   -5.3830 h1        1 1AH      0.122000
     76 H431        3.6630    1.5190   -4.6060 hc        1 1AH      0.085889
     77 H432        4.8380    0.8070   -5.7910 hc        1 1AH      0.085889
     78 H433        3.4140    1.7380   -6.3960 hc        1 1AH      0.085889
     79 H441        3.8570   -0.9440   -3.7770 hc        1 1AH      0.085889
     80 H442        3.0420   -2.2500   -4.7450 hc        1 1AH      0.085889
     81 H443        4.6430   -1.5870   -5.2790 hc        1 1AH      0.085889
     82 H47         1.0480   -0.7790   -1.7480 hn        1 1AH      0.244000
     83 H861        2.3290   -1.7300   -7.1370 hc        1 1AH      0.085889
     84 H862        2.3230   -0.0130   -7.7230 hc        1 1AH      0.085889
     85 H863        3.8920   -0.8890   -7.5040 hc        1 1AH      0.085889
     86 N24        -0.2880   -1.6150   -3.0480 n4        1 1AH      0.250000
@<TRIPOS>BOND
     1    1    2 1   
     2    1    6 1   
     3    1   18 1   
     4    2    3 1   
     5    2   45 1   
     6    2   46 1   
     7    3    4 1   
     8    3   47 1   
     9    4    5 1   
    10    4   48 1   
    11    5    6 1   
    12    5   49 1   
    13    7    8 1   
    14    7   12 1   
    15    7   13 1   
    16    7   50 1   
    17    8    9 1   
    18    8   51 1   
    19   10   11 1   
    20   10   43 1   
    21   10   52 1   
    22   11   12 1   
    23   11   53 1   
    24   13   54 1   
    25   13   55 1   
    26   13   86 1   
    27   14   20 1   
    28   14   56 1   
    29   14   57 1   
    30   14   58 1   
    31   15   38 1   
    32   15   60 1   
    33   15   86 1   
    34   16   32 1   
    35   17   32 1   
    36   17   35 1   
    37   17   61 1   
    38   18   38 1   
    39   18   62 1   
    40   18   63 1   
    41   19   38 1   
    42   19   64 1   
    43   20   32 1   
    44   21   22 1   
    45   21   23 1   
    46   21   38 1   
    47   23   24 1   
    48   23   65 1   
    49   23   66 1   
    50   24   25 1   
    51   24   30 1   
    52   25   26 1   
    53   25   27 1   
    54   25   67 1   
    55   26   33 1   
    56   26   34 1   
    57   27   28 1   
    58   27   68 1   
    59   28   29 1   
    60   28   69 1   
    61   29   33 1   
    62   30   31 1   
    63   30   34 1   
    64   30   70 1   
    65   31   71 1   
    66   33   72 1   
    67   34   73 1   
    68   34   74 1   
    69   35   36 1   
    70   35   40 1   
    71   35   75 1   
    72   36   37 1   
    73   36   39 1   
    74   36   44 1   
    75   37   76 1   
    76   37   77 1   
    77   37   78 1   
    78   39   79 1   
    79   39   80 1   
    80   39   81 1   
    81   40   41 1   
    82   40   42 1   
    83   42   82 1   
    84   42   86 1   
    85   44   83 1   
    86   44   84 1   
    87   44   85 1   
    88   59   86 1   
@<TRIPOS>SUBSTRUCTURE
     1 1AH         1 TEMP              0 ****  ****    0 ROOT
