@<TRIPOS>MOLECULE
1AH
   86    89     1     0     0
SMALL
bcc


@<TRIPOS>ATOM
      1 C23         3.1460   -0.4020    2.8220 ca        1 1AH     -0.084300
      2 C24         4.3960   -0.7170    2.2720 ca        1 1AH     -0.129500
      3 C25         5.3180   -1.4650    3.0030 ca        1 1AH     -0.134000
      4 C26         5.0040   -1.9060    4.2880 ca        1 1AH     -0.133000
      5 C27         3.7620   -1.5940    4.8420 ca        1 1AH     -0.134000
      6 C28         2.8400   -0.8440    4.1160 ca        1 1AH     -0.129500
      7 C33        -0.6150   -3.6950   -0.1470 ca        1 1AH     -0.084300
      8 C34        -1.4440   -2.7690   -0.7860 ca        1 1AH     -0.120500
      9 C35        -2.7940   -3.0580   -0.9880 ca        1 1AH     -0.107500
     10 C36        -3.3230   -4.2770   -0.5570 ca        1 1AH     -0.025900
     11 C37        -2.4980   -5.2060    0.0840 ca        1 1AH     -0.107500
     12 C38        -1.1520   -4.9140    0.2880 ca        1 1AH     -0.120500
     13 C32         0.8550   -3.4650    0.0320 c3        1 1AH      0.170100
     14 C7          2.5890    4.4150   -3.0810 c3        1 1AH      0.139700
     15 C4          0.7190   -1.6180    1.5650 c3        1 1AH      0.130800
     16 O3          1.1240    2.4620   -2.2210 o         1 1AH     -0.587000
     17 N1          2.9890    0.9980   -2.0460 n         1 1AH     -0.509900
     18 C22         2.1920    0.4540    2.0640 c3        1 1AH     -0.026100
     19 O6          0.1600    0.0370    3.1960 oh        1 1AH     -0.595800
     20 O8          3.1750    3.1310   -2.8700 os        1 1AH     -0.447900
     21 C10        -0.0230    0.7270    0.8880 c         1 1AH      0.631100
     22 O11        -0.5120    0.2270   -0.1440 o         1 1AH     -0.610100
     23 N12        -0.2320    2.0460    1.2140 n         1 1AH     -0.532900
     24 C51        -0.8020    2.9860    0.2880 c3        1 1AH      0.152000
     25 C52        -2.2330    3.3700    0.5890 ca        1 1AH     -0.099300
     26 C57        -2.4100    4.7690    0.5480 ca        1 1AH     -0.081300
     27 C53        -3.3060    2.5290    0.8360 ca        1 1AH     -0.099000
     28 C54        -4.5700    3.0940    1.0500 ca        1 1AH     -0.134000
     29 C55        -4.7450    4.4750    1.0110 ca        1 1AH     -0.127000
     30 C59        -0.0540    4.3690    0.1820 c3        1 1AH      0.124100
     31 O60         0.8920    4.5020    1.2300 oh        1 1AH     -0.603800
     32 C30         2.3190    2.1600   -2.3740 c         1 1AH      0.733100
     33 C56        -3.6630    5.3270    0.7580 ca        1 1AH     -0.121000
     34 C58        -1.1300    5.4730    0.2650 c3        1 1AH     -0.071100
     35 C41         2.2920   -0.2750   -1.9910 c3        1 1AH      0.048700
     36 C42         2.1160   -0.9690   -3.3770 c3        1 1AH     -0.070000
     37 C43         3.4110   -0.9660   -4.1740 c3        1 1AH     -0.099100
     38 C1          0.7760   -0.1170    1.9150 c3        1 1AH      0.102800
     39 C44         1.6620   -2.4050   -3.1640 c3        1 1AH     -0.099100
     40 C45         3.1200   -1.1860   -1.0580 c         1 1AH      0.680100
     41 O46         4.3530   -1.3220   -1.2030 o         1 1AH     -0.619100
     42 N47         2.5630   -1.8120    0.0550 n         1 1AH     -0.447300
     43 BR         -5.1340   -4.6670   -0.8320 br        1 1AH     -0.090100
     44 C86         1.0350   -0.2300   -4.1550 c3        1 1AH     -0.099100
     45 H24         4.6580   -0.3730    1.2580 ha        1 1AH      0.149500
     46 H25         6.2970   -1.7040    2.5620 ha        1 1AH      0.133000
     47 H26         5.7330   -2.4940    4.8640 ha        1 1AH      0.130000
     48 H27         3.5120   -1.9340    5.8570 ha        1 1AH      0.133000
     49 H28         1.8610   -0.5900    4.5560 ha        1 1AH      0.149500
     50 H34        -1.0440   -1.7920   -1.1160 ha        1 1AH      0.159000
     51 H35        -3.4340   -2.3160   -1.4910 ha        1 1AH      0.148500
     52 H37        -2.9030   -6.1690    0.4310 ha        1 1AH      0.148500
     53 H38        -0.5090   -5.6510    0.7940 ha        1 1AH      0.159000
     54 H321        1.3630   -3.8300   -0.9090 h1        1 1AH      0.054700
     55 H322        1.2280   -4.1040    0.8870 h1        1 1AH      0.054700
     56 H7C1        3.4310    5.0160   -3.5060 h1        1 1AH      0.049700
     57 H7C2        1.7360    4.3370   -3.7970 h1        1 1AH      0.049700
     58 H7C3        2.2360    4.8370   -2.1090 h1        1 1AH      0.049700
     59 H4C1       -0.3710   -1.9110    1.5590 h1        1 1AH      0.065200
     60 H4C2        1.2360   -2.1610    2.4100 h1        1 1AH      0.065200
     61 H1          3.9440    0.9430   -2.3430 hn        1 1AH      0.327500
     62 H221        2.5890    0.6710    1.0360 hc        1 1AH      0.074200
     63 H222        2.1130    1.4360    2.6110 hc        1 1AH      0.074200
     64 H6         -0.7520   -0.2700    3.1200 ho        1 1AH      0.410000
     65 H12         0.1840    2.4170    2.0390 hn        1 1AH      0.334500
     66 H51        -0.7690    2.5190   -0.7490 h1        1 1AH      0.118700
     67 H53        -3.1690    1.4380    0.8570 ha        1 1AH      0.142000
     68 H54        -5.4300    2.4380    1.2480 ha        1 1AH      0.131000
     69 H55        -5.7440    4.9050    1.1810 ha        1 1AH      0.130000
     70 H59         0.4820    4.3980   -0.8070 h1        1 1AH      0.059700
     71 H60         1.3140    5.3610    1.1090 ho        1 1AH      0.406000
     72 H56        -3.8070    6.4150    0.7280 ha        1 1AH      0.132000
     73 H581       -0.8860    6.2040    1.0780 hc        1 1AH      0.060200
     74 H582       -1.1900    6.0330   -0.7030 hc        1 1AH      0.060200
     75 H41         1.2580   -0.0880   -1.5610 h1        1 1AH      0.139700
     76 H431        4.2630   -1.3100   -3.5370 hc        1 1AH      0.044589
     77 H432        3.3180   -1.6550   -5.0480 hc        1 1AH      0.044589
     78 H433        3.6390    0.0540   -4.5650 hc        1 1AH      0.044589
     79 H441        0.7400   -2.4320   -2.5330 hc        1 1AH      0.044589
     80 H442        1.4310   -2.8780   -4.1490 hc        1 1AH      0.044589
     81 H443        2.4680   -3.0000   -2.6700 hc        1 1AH      0.044589
     82 H47         3.2070   -2.3480    0.6160 hn        1 1AH      0.308500
     83 H861        1.3120    0.8420   -4.3020 hc        1 1AH      0.044589
     84 H862        0.9020   -0.7030   -5.1570 hc        1 1AH      0.044589
     85 H863        0.0640   -0.2700   -3.6050 hc        1 1AH      0.044589
     86 N24         1.2230   -2.0300    0.2360 n3        1 1AH     -0.440600
@<TRIPOS>BOND
     1    1    2 ar  
     2    1    6 ar  
     3    1   18 1   
     4    2    3 ar  
     5    2   45 1   
     6    3    4 ar  
     7    3   46 1   
     8    4    5 ar  
     9    4   47 1   
    10    5    6 ar  
    11    5   48 1   
    12    6   49 1   
    13    7    8 ar  
    14    7   12 ar  
    15    7   13 1   
    16    8    9 ar  
    17    8   50 1   
    18    9   10 ar  
    19    9   51 1   
    20   10   11 ar  
    21   10   43 1   
    22   11   12 ar  
    23   11   52 1   
    24   12   53 1   
    25   13   54 1   
    26   13   55 1   
    27   13   86 1   
    28   14   20 1   
    29   14   56 1   
    30   14   57 1   
    31   14   58 1   
    32   15   38 1   
    33   15   59 1   
    34   15   60 1   
    35   15   86 1   
    36   16   32 2   
    37   17   32 1   
    38   17   35 1   
    39   17   61 1   
    40   18   38 1   
    41   18   62 1   
    42   18   63 1   
    43   19   38 1   
    44   19   64 1   
    45   20   32 1   
    46   21   22 2   
    47   21   23 1   
    48   21   38 1   
    49   23   24 1   
    50   23   65 1   
    51   24   25 1   
    52   24   30 1   
    53   24   66 1   
    54   25   26 ar  
    55   25   27 ar  
    56   26   33 ar  
    57   26   34 1   
    58   27   28 ar  
    59   27   67 1   
    60   28   29 ar  
    61   28   68 1   
    62   29   33 ar  
    63   29   69 1   
    64   30   31 1   
    65   30   34 1   
    66   30   70 1   
    67   31   71 1   
    68   33   72 1   
    69   34   73 1   
    70   34   74 1   
    71   35   36 1   
    72   35   40 1   
    73   35   75 1   
    74   36   37 1   
    75   36   39 1   
    76   36   44 1   
    77   37   76 1   
    78   37   77 1   
    79   37   78 1   
    80   39   79 1   
    81   39   80 1   
    82   39   81 1   
    83   40   41 2   
    84   40   42 1   
    85   42   82 1   
    86   42   86 1   
    87   44   83 1   
    88   44   84 1   
    89   44   85 1   
@<TRIPOS>SUBSTRUCTURE
     1 1AH         1 TEMP              0 ****  ****    0 ROOT
