@<TRIPOS>MOLECULE
1AH
   86    80     1     0     0
SMALL
bcc


@<TRIPOS>ATOM
      1 C23         0.1510    0.8990    2.9430 c1        1 1AH     -0.090000
      2 C24         1.2670    1.5690    3.4090 c1        1 1AH     -0.123875
      3 C25         1.2820    2.0810    4.7120 c1        1 1AH     -0.123875
      4 C26         0.1770    1.9170    5.5380 c1        1 1AH     -0.123875
      5 C27        -0.9500    1.2410    5.0700 c1        1 1AH     -0.123875
      6 C28        -0.9670    0.7320    3.7780 c1        1 1AH     -0.110000
      7 C33         3.1770   -1.0970    1.5790 c1        1 1AH     -0.115000
      8 C34         3.6070    0.2150    1.4170 c1        1 1AH     -0.130000
      9 C35         4.0070    0.9540    2.5160 c1        1 1AH     -0.099000
     10 C36         3.9790    0.3850    3.7890 c1        1 1AH     -0.160000
     11 C37         3.5520   -0.9200    3.9520 c1        1 1AH     -0.123875
     12 C38         3.1490   -1.6660    2.8450 c1        1 1AH     -0.123875
     13 C32         2.8320   -1.9620    0.3260 c3        1 1AH     -0.061000
     14 C7          3.4300   -3.3630   -4.9240 c3        1 1AH     -0.057000
     15 C4          0.6040   -2.1050    1.3390 c3        1 1AH     -0.090000
     16 O3          1.7630   -1.4930   -4.0770 o         1 1AH     -0.396000
     17 N1          3.3520   -0.1080   -3.1110 n         1 1AH     -0.336000
     18 C22         0.1310    0.3330    1.4850 c3        1 1AH     -0.117000
     19 O6         -1.1810   -1.2030    2.6870 oh        1 1AH     -0.327000
     20 O8          3.9520   -2.2150   -4.3170 os        1 1AH     -0.279000
     21 C10        -1.4780   -1.1190    0.3240 c1        1 1AH      0.295000
     22 O11        -1.2610   -1.8900   -0.5760 o         1 1AH     -0.414000
     23 N12        -2.7760   -0.3910    0.3780 n2        1 1AH     -0.329000
     24 C51        -3.7790   -0.6140   -0.6600 c3        1 1AH      0.033000
     25 C52        -5.1580   -0.8790   -0.0070 c2        1 1AH     -0.105000
     26 C57        -6.0330    0.1640   -0.4000 c2        1 1AH     -0.070000
     27 C53        -5.5600   -1.7920    0.9520 c1        1 1AH     -0.097000
     28 C54        -6.8260   -1.6840    1.5310 c1        1 1AH     -0.123875
     29 C55        -7.6950   -0.6470    1.1390 c1        1 1AH     -0.123875
     30 C59        -3.8970    0.5630   -1.4930 c3        1 1AH      0.028000
     31 O60        -2.9940    1.5710   -1.0320 oh        1 1AH     -0.342000
     32 C30         2.9480   -1.3100   -3.8070 c2        1 1AH      0.393000
     33 C56        -7.2950    0.2680    0.1800 c1        1 1AH     -0.125000
     34 C58        -5.2920    1.0550   -1.3910 c3        1 1AH     -0.128000
     35 C41         2.4220    0.6080   -2.3480 c3        1 1AH      0.062000
     36 C42         1.8440    1.7950   -3.1990 c3        1 1AH     -0.044000
     37 C43         2.0600    1.5190   -4.6770 c3        1 1AH     -0.212333
     38 C1         -0.4990   -1.0140    1.4860 c3        1 1AH      0.063000
     39 C44         0.3890    1.9290   -2.9370 c3        1 1AH     -0.212333
     40 C45         1.2910   -0.3120   -1.9260 c2        1 1AH      0.297000
     41 N24         1.3750   -1.8800    0.0520 n3        1 1AH     -0.171000
     42 O46         0.6130   -0.8580   -2.7630 o         1 1AH     -0.351000
     43 N47         1.0600   -0.5930   -0.4820 n         1 1AH     -0.290000
     44 BR          4.5060    1.4210    5.3150 br        1 1AH      0.065000
     45 C86         2.5790    3.1320   -2.7980 c3        1 1AH     -0.212333
     46 H24         2.0420    1.6840    2.8310 ha        1 1AH      0.135125
     47 H25         2.0750    2.5570    5.0430 ha        1 1AH      0.135125
     48 H26         0.1890    2.2780    6.4540 ha        1 1AH      0.135125
     49 H27        -1.7430    1.1240    5.6630 ha        1 1AH      0.135125
     50 H28        -1.7610    0.2560    3.4480 ha        1 1AH      0.153000
     51 H34         3.6270    0.6210    0.5140 ha        1 1AH      0.145000
     52 H35         4.3100    1.8800    2.4000 ha        1 1AH      0.155000
     53 H37         3.5320   -1.3250    4.8570 ha        1 1AH      0.135125
     54 H38         2.8520   -2.5730    2.9570 ha        1 1AH      0.135125
     55 H321        3.0780   -2.8850    0.4920 h1        1 1AH      0.106500
     56 H322        3.3250   -1.6290   -0.4430 h1        1 1AH      0.106500
     57 H7C1        2.6340   -3.6370   -4.4620 h1        1 1AH      0.098333
     58 H7C2        3.2150   -3.1690   -5.8540 h1        1 1AH      0.098333
     59 H7C3        4.0970   -4.0880   -4.8850 h1        1 1AH      0.098333
     60 H4C1        1.2130   -2.0540    2.0940 h1        1 1AH      0.113500
     61 H4C2        0.1810   -3.0000    1.3170 h1        1 1AH      0.113500
     62 H1          4.1960    0.1630   -3.1470 hn        1 1AH      0.243000
     63 H221       -0.3860    0.9340    0.9080 hc        1 1AH      0.100500
     64 H222        1.0540    0.2660    1.1460 hc        1 1AH      0.100500
     65 H6         -1.2180   -2.0780    2.8760 ho        1 1AH      0.233000
     66 H12        -2.9310    0.2410    1.0490 hn        1 1AH      0.245000
     67 H51        -3.5130   -1.3990   -1.2220 h1        1 1AH      0.143000
     68 H53        -4.9590   -2.5100    1.2240 ha        1 1AH      0.152000
     69 H54        -7.1120   -2.3310    2.2110 ha        1 1AH      0.135125
     70 H55        -8.5910   -0.5710    1.5490 ha        1 1AH      0.135125
     71 H59        -3.6910    0.3310   -2.4380 h1        1 1AH      0.102000
     72 H60        -2.8920    2.1790   -1.6550 ho        1 1AH      0.226000
     73 H56        -7.9170    1.0080   -0.1000 ha        1 1AH      0.132000
     74 H581       -5.7220    1.0060   -2.2600 hc        1 1AH      0.107500
     75 H582       -5.2930    1.9790   -1.0720 hc        1 1AH      0.107500
     76 H41         2.8590    0.9610   -1.5620 h1        1 1AH      0.112000
     77 H431        1.8170    2.3160   -5.1980 hc        1 1AH      0.083000
     78 H432        1.5020    0.7730   -4.9500 hc        1 1AH      0.083000
     79 H433        3.0040    1.2980   -4.8360 hc        1 1AH      0.083000
     80 H441       -0.0680    1.1460   -3.2590 hc        1 1AH      0.083000
     81 H442        0.2380    2.0200   -1.9800 hc        1 1AH      0.083000
     82 H443        0.0440    2.7240   -3.4010 hc        1 1AH      0.083000
     83 H47         0.6740    0.0230    0.0360 hn        1 1AH      0.205000
     84 H861        2.0970    3.9130   -3.1990 hc        1 1AH      0.083000
     85 H862        2.5870    3.2190   -1.8290 hc        1 1AH      0.083000
     86 H863        3.4960    3.1110   -3.1300 hc        1 1AH      0.083000
@<TRIPOS>BOND
     1    1    6 1   
     2    1   18 1   
     3    2    3 1   
     4    2   46 1   
     5    3   47 1   
     6    4    5 1   
     7    4   48 1   
     8    5   49 1   
     9    6   50 1   
    10    7    8 1   
    11    7   13 1   
    12    8   51 1   
    13    9   10 1   
    14    9   52 1   
    15   10   44 1   
    16   11   12 1   
    17   11   53 1   
    18   12   54 1   
    19   13   41 1   
    20   13   55 1   
    21   13   56 1   
    22   14   20 1   
    23   14   57 1   
    24   14   58 1   
    25   14   59 1   
    26   15   38 1   
    27   15   41 1   
    28   15   60 1   
    29   15   61 1   
    30   16   32 1   
    31   17   32 1   
    32   17   35 1   
    33   17   62 1   
    34   18   38 1   
    35   18   63 1   
    36   18   64 1   
    37   19   38 1   
    38   19   65 1   
    39   20   32 1   
    40   21   22 1   
    41   21   38 1   
    42   23   24 1   
    43   23   66 1   
    44   24   25 1   
    45   24   30 1   
    46   24   67 1   
    47   25   26 1   
    48   25   27 1   
    49   26   33 1   
    50   26   34 1   
    51   27   68 1   
    52   28   29 1   
    53   28   69 1   
    54   29   70 1   
    55   30   31 1   
    56   30   34 1   
    57   30   71 1   
    58   31   72 1   
    59   33   73 1   
    60   34   74 1   
    61   34   75 1   
    62   35   36 1   
    63   35   40 1   
    64   35   76 1   
    65   36   37 1   
    66   36   39 1   
    67   36   45 1   
    68   37   77 1   
    69   37   78 1   
    70   37   79 1   
    71   39   80 1   
    72   39   81 1   
    73   39   82 1   
    74   40   42 1   
    75   40   43 1   
    76   41   43 1   
    77   43   83 1   
    78   45   84 1   
    79   45   85 1   
    80   45   86 1   
@<TRIPOS>SUBSTRUCTURE
     1 1AH         1 TEMP              0 ****  ****    0 ROOT
