@<TRIPOS>MOLECULE
1AJ
   27    23     1     0     0
SMALL
bcc


@<TRIPOS>ATOM
      1 CAH         0.1880   -1.0240   -1.9160 c3        1 1AJ     -0.044000
      2 CAG         1.6340   -1.0240   -1.9160 c3        1 1AJ     -0.120000
      3 CAN         2.3070   -1.0240   -0.5370 c2        1 1AJ     -0.379000
      4 SAK         3.7530   -1.2660   -0.0340 ss        1 1AJ      0.593000
      5 CAC         3.7160   -1.2520    1.5410 c1        1 1AJ     -0.441000
      6 CAD         2.3240   -1.0150    1.9620 c1        1 1AJ     -0.136000
      7 CAM         1.4260   -0.8700    0.6590 c1        1 1AJ     -0.152000
      8 CAI        -0.0760   -0.5530    0.4090 c2        1 1AJ      0.010000
      9 NAO        -0.4410   -0.2950   -0.8880 n         1 1AJ     -0.272000
     10 CAL        -1.4310    0.6860   -1.1880 c2        1 1AJ      0.395000
     11 OAA        -1.7410    0.9010   -2.3420 o         1 1AJ     -0.344000
     12 NAP        -2.1170    1.3530   -0.1300 n         1 1AJ     -0.202000
     13 CAE        -1.8770    1.2080    1.1760 c1        1 1AJ     -0.149000
     14 CAB        -2.7450    2.0170    1.8580 c1        1 1AJ     -0.162000
     15 NAJ        -3.5090    2.6500    0.9620 n2        1 1AJ     -0.137000
     16 CAF        -3.1270    2.2450   -0.2740 c1        1 1AJ     -0.043000
     17 H1         -0.0940   -0.6240   -2.7600 h1        1 1AJ      0.113000
     18 H2          1.9180   -0.2090   -2.3700 hc        1 1AJ      0.108500
     19 H3          4.4860   -1.3490    2.1340 DU        1 1AJ      0.184000
     20 H4          2.0070   -0.9570    2.8830 DU        1 1AJ      0.184000
     21 H5         -0.6010   -1.3130    0.7240 h4        1 1AJ      0.111000
     22 H6         -1.2010    0.6270    1.5750 DU        1 1AJ      0.184000
     23 H7         -2.7970    2.1150    2.8280 DU        1 1AJ      0.184000
     24 H8         -3.5130    2.5430   -1.1200 DU        1 1AJ      0.184000
     25 H9         -0.0940   -1.9540   -1.8160 h1        1 1AJ      0.113000
     26 H10         1.9180   -1.8400   -2.3700 hc        1 1AJ      0.108500
     27 H11        -0.3130    0.2250    0.9490 h4        1 1AJ      0.111000
@<TRIPOS>BOND
     1    1    2 1   
     2    1    9 1   
     3    1   17 1   
     4    1   25 1   
     5    2    3 1   
     6    2   18 1   
     7    2   26 1   
     8    3    4 1   
     9    3    7 1   
    10    4    5 1   
    11    5    6 1   
    12    6    7 1   
    13    8    9 1   
    14    8   21 1   
    15    8   27 1   
    16    9   10 1   
    17   10   11 1   
    18   10   12 1   
    19   12   13 1   
    20   12   16 1   
    21   13   14 1   
    22   14   15 1   
    23   15   16 1   
@<TRIPOS>SUBSTRUCTURE
     1 1AJ         1 TEMP              0 ****  ****    0 ROOT
