@<TRIPOS>MOLECULE
1AJ
   27    29     1     0     0
SMALL
bcc


@<TRIPOS>ATOM
      1 CAH        -0.5180    1.8780    0.9410 c3        1 1AJ      0.071000
      2 CAG        -1.6960    1.8310   -0.0420 c3        1 1AJ     -0.034100
      3 CAN        -2.2630    0.4730   -0.0950 cc        1 1AJ     -0.116400
      4 SAK        -3.7510    0.0280   -0.7120 ss        1 1AJ      0.053200
      5 CAC        -3.5300   -1.5960   -0.3840 cc        1 1AJ     -0.171100
      6 CAD        -2.3100   -1.8420    0.2060 cd        1 1AJ     -0.135000
      7 CAM        -1.5690   -0.6330    0.3750 cd        1 1AJ     -0.159300
      8 CAI        -0.2210   -0.5430    1.0000 c3        1 1AJ      0.132300
      9 NAO         0.4170    0.7620    0.8560 n         1 1AJ     -0.414800
     10 CAL         1.4350    0.9150   -0.1300 c         1 1AJ      0.656900
     11 OAA         1.4660    1.8820   -0.9180 o         1 1AJ     -0.578100
     12 NAP         2.5180   -0.0020   -0.1470 n         1 1AJ     -0.222000
     13 CAE         3.4860   -0.0740   -1.1700 cc        1 1AJ     -0.205600
     14 CAB         4.4030   -1.0500   -0.7670 cd        1 1AJ      0.290200
     15 NAJ         4.0380   -1.5720    0.4840 nd        1 1AJ     -0.656000
     16 CAF         2.9160   -0.9330    0.8430 cc        1 1AJ      0.413400
     17 H1          0.0480    2.8390    0.7850 h1        1 1AJ      0.073200
     18 H2         -2.4630    2.5790    0.2890 hc        1 1AJ      0.069200
     19 H3         -4.2800   -2.3490   -0.6220 h4        1 1AJ      0.175000
     20 H4         -1.9380   -2.8230    0.5100 ha        1 1AJ      0.157000
     21 H5         -0.3250   -0.7190    2.1120 h1        1 1AJ      0.071700
     22 H6          3.4250    0.5630   -2.0520 h4        1 1AJ      0.198000
     23 H7          5.2910   -1.4060   -1.2880 h4        1 1AJ      0.048100
     24 H8          2.3640   -1.0700    1.7800 h5        1 1AJ      0.070100
     25 H9         -0.9170    1.8580    1.9950 h1        1 1AJ      0.073200
     26 H10        -1.3360    2.1350   -1.0630 hc        1 1AJ      0.069200
     27 H11         0.4270   -1.3640    0.5810 h1        1 1AJ      0.071700
@<TRIPOS>BOND
     1    1    2 1   
     2    1    9 1   
     3    1   17 1   
     4    1   25 1   
     5    2    3 1   
     6    2   18 1   
     7    2   26 1   
     8    3    4 1   
     9    3    7 2   
    10    4    5 1   
    11    5    6 2   
    12    5   19 1   
    13    6    7 1   
    14    6   20 1   
    15    7    8 1   
    16    8    9 1   
    17    8   21 1   
    18    8   27 1   
    19    9   10 1   
    20   10   11 2   
    21   10   12 1   
    22   12   13 1   
    23   12   16 1   
    24   13   14 2   
    25   13   22 1   
    26   14   15 1   
    27   14   23 1   
    28   15   16 2   
    29   16   24 1   
@<TRIPOS>SUBSTRUCTURE
     1 1AJ         1 TEMP              0 ****  ****    0 ROOT
