@<TRIPOS>MOLECULE
1AJ
   27    29     1     0     0
SMALL
bcc


@<TRIPOS>ATOM
      1 CAH        -0.0940   -0.0870    0.1780 c3        1 1AJ      0.071000
      2 CAG         1.4340   -0.0260    0.0420 c3        1 1AJ     -0.034100
      3 CAN         2.0650   -0.0110    1.3720 cc        1 1AJ     -0.116400
      4 SAK         3.6670   -0.3240    1.7280 ss        1 1AJ      0.053200
      5 CAC         3.4720   -0.0680    3.3680 cc        1 1AJ     -0.171100
      6 CAD         2.1740    0.2660    3.6880 cd        1 1AJ     -0.135000
      7 CAM         1.3510    0.2990    2.5210 cd        1 1AJ     -0.159300
      8 CAI        -0.1060    0.6050    2.5170 c3        1 1AJ      0.132300
      9 NAO        -0.6710    0.7950    1.1850 n         1 1AJ     -0.414800
     10 CAL        -0.9200    2.1250    0.7360 c         1 1AJ      0.656900
     11 OAA        -0.5850    2.5250   -0.3970 o         1 1AJ     -0.578100
     12 NAP        -1.6780    2.9970    1.5600 n         1 1AJ     -0.222000
     13 CAE        -1.8410    4.3780    1.3220 cc        1 1AJ     -0.205600
     14 CAB        -2.7070    4.8420    2.3170 cd        1 1AJ      0.290200
     15 NAJ        -3.0970    3.7850    3.1540 nd        1 1AJ     -0.656000
     16 CAF        -2.4800    2.6910    2.6860 cc        1 1AJ      0.413400
     17 H1         -0.3950   -1.1310    0.4810 h1        1 1AJ      0.073200
     18 H2          1.7170    0.9030   -0.5270 hc        1 1AJ      0.069200
     19 H3          4.2930   -0.1600    4.0780 h4        1 1AJ      0.175000
     20 H4          1.8020    0.4810    4.6920 ha        1 1AJ      0.157000
     21 H5         -0.6600   -0.2710    2.9700 h1        1 1AJ      0.071700
     22 H6         -1.3400    4.8710    0.4890 h4        1 1AJ      0.198000
     23 H7         -3.0710    5.8550    2.4830 h4        1 1AJ      0.048100
     24 H8         -2.5770    1.6730    3.0820 h5        1 1AJ      0.070100
     25 H9         -0.5580    0.1480   -0.8210 h1        1 1AJ      0.073200
     26 H10         1.7720   -0.9110   -0.5590 hc        1 1AJ      0.069200
     27 H11        -0.2880    1.5040    3.1710 h1        1 1AJ      0.071700
@<TRIPOS>BOND
     1    1    2 1   
     2    1    9 1   
     3    1   17 1   
     4    1   25 1   
     5    2    3 1   
     6    2   18 1   
     7    2   26 1   
     8    3    4 1   
     9    3    7 2   
    10    4    5 1   
    11    5    6 2   
    12    5   19 1   
    13    6    7 1   
    14    6   20 1   
    15    7    8 1   
    16    8    9 1   
    17    8   21 1   
    18    8   27 1   
    19    9   10 1   
    20   10   11 2   
    21   10   12 1   
    22   12   13 1   
    23   12   16 1   
    24   13   14 2   
    25   13   22 1   
    26   14   15 1   
    27   14   23 1   
    28   15   16 2   
    29   16   24 1   
@<TRIPOS>SUBSTRUCTURE
     1 1AJ         1 TEMP              0 ****  ****    0 ROOT
