@<TRIPOS>MOLECULE
1AJ
   27    29     1     0     0
SMALL
bcc


@<TRIPOS>ATOM
      1 CAH        -0.0890   -0.0820    0.1720 c3        1 1AJ      0.071000
      2 CAG         1.4400   -0.0220    0.0440 c3        1 1AJ     -0.034100
      3 CAN         2.0640   -0.0130    1.3770 cc        1 1AJ     -0.116400
      4 SAK         3.6650   -0.3290    1.7410 ss        1 1AJ      0.053200
      5 CAC         3.4610   -0.0790    3.3800 cc        1 1AJ     -0.171100
      6 CAD         2.1620    0.2560    3.6950 cd        1 1AJ     -0.135000
      7 CAM         1.3450    0.2950    2.5240 cd        1 1AJ     -0.159300
      8 CAI        -0.1110    0.6020    2.5130 c3        1 1AJ      0.132300
      9 NAO        -0.6690    0.7980    1.1790 n         1 1AJ     -0.414800
     10 CAL        -0.9140    2.1300    0.7340 c         1 1AJ      0.656900
     11 OAA        -0.5720    2.5330   -0.3960 o         1 1AJ     -0.578100
     12 NAP        -1.6750    3.0000    1.5570 n         1 1AJ     -0.222000
     13 CAE        -1.8340    4.3820    1.3230 cc        1 1AJ     -0.205600
     14 CAB        -2.7040    4.8450    2.3150 cd        1 1AJ      0.290200
     15 NAJ        -3.1000    3.7840    3.1460 nd        1 1AJ     -0.656000
     16 CAF        -2.4830    2.6910    2.6780 cc        1 1AJ      0.413400
     17 H1         -0.3920   -1.1260    0.4700 h1        1 1AJ      0.073200
     18 H2          1.7800   -0.9060   -0.5580 hc        1 1AJ      0.069200
     19 H3          4.2780   -0.1740    4.0940 h4        1 1AJ      0.175000
     20 H4          1.7860    0.4680    4.6970 ha        1 1AJ      0.157000
     21 H5         -0.6690   -0.2740    2.9600 h1        1 1AJ      0.071700
     22 H6         -1.3280    4.8780    0.4950 h4        1 1AJ      0.198000
     23 H7         -3.0670    5.8580    2.4830 h4        1 1AJ      0.048100
     24 H8         -2.5830    1.6730    3.0690 h5        1 1AJ      0.070100
     25 H9         -0.5470    0.1580   -0.8280 h1        1 1AJ      0.073200
     26 H10         1.7270    0.9080   -0.5200 hc        1 1AJ      0.069200
     27 H11        -0.2960    1.4990    3.1700 h1        1 1AJ      0.071700
@<TRIPOS>BOND
     1    1    2 1   
     2    1    9 1   
     3    1   17 1   
     4    1   25 1   
     5    2    3 1   
     6    2   18 1   
     7    2   26 1   
     8    3    4 1   
     9    3    7 2   
    10    4    5 1   
    11    5    6 2   
    12    5   19 1   
    13    6    7 1   
    14    6   20 1   
    15    7    8 1   
    16    8    9 1   
    17    8   21 1   
    18    8   27 1   
    19    9   10 1   
    20   10   11 2   
    21   10   12 1   
    22   12   13 1   
    23   12   16 1   
    24   13   14 2   
    25   13   22 1   
    26   14   15 1   
    27   14   23 1   
    28   15   16 2   
    29   16   24 1   
@<TRIPOS>SUBSTRUCTURE
     1 1AJ         1 TEMP              0 ****  ****    0 ROOT
