@<TRIPOS>MOLECULE
1AJ
   27    29     1     0     0
SMALL
bcc


@<TRIPOS>ATOM
      1 CAH        -0.0810   -0.0660    0.1570 c3        1 1AJ      0.071000
      2 CAG         1.4490   -0.0100    0.0410 c3        1 1AJ     -0.034100
      3 CAN         2.0630   -0.0150    1.3790 cc        1 1AJ     -0.116400
      4 SAK         3.6600   -0.3390    1.7520 ss        1 1AJ      0.053200
      5 CAC         3.4440   -0.1040    3.3920 cc        1 1AJ     -0.171100
      6 CAD         2.1430    0.2310    3.7000 cd        1 1AJ     -0.135000
      7 CAM         1.3360    0.2830    2.5230 cd        1 1AJ     -0.159300
      8 CAI        -0.1190    0.5950    2.5040 c3        1 1AJ      0.132300
      9 NAO        -0.6670    0.8050    1.1680 n         1 1AJ     -0.414800
     10 CAL        -0.9040    2.1430    0.7330 c         1 1AJ      0.656900
     11 OAA        -0.5520    2.5560   -0.3900 o         1 1AJ     -0.578100
     12 NAP        -1.6690    3.0070    1.5590 n         1 1AJ     -0.222000
     13 CAE        -1.8220    4.3910    1.3380 cc        1 1AJ     -0.205600
     14 CAB        -2.6980    4.8470    2.3280 cd        1 1AJ      0.290200
     15 NAJ        -3.1050    3.7800    3.1450 nd        1 1AJ     -0.656000
     16 CAF        -2.4860    2.6890    2.6710 cc        1 1AJ      0.413400
     17 H1         -0.5300    0.1850   -0.8450 h1        1 1AJ      0.073200
     18 H2          1.7430    0.9250   -0.5120 hc        1 1AJ      0.069200
     19 H3          4.2550   -0.2090    4.1110 h4        1 1AJ      0.175000
     20 H4          1.7600    0.4350    4.7010 ha        1 1AJ      0.157000
     21 H5         -0.3070    1.4860    3.1680 h1        1 1AJ      0.071700
     22 H6         -1.3080    4.8940    0.5190 h4        1 1AJ      0.198000
     23 H7         -3.0610    5.8590    2.5030 h4        1 1AJ      0.048100
     24 H8         -2.5930    1.6670    3.0510 h5        1 1AJ      0.070100
     25 H9         -0.3900   -1.1120    0.4420 h1        1 1AJ      0.073200
     26 H10         1.7910   -0.8890   -0.5670 hc        1 1AJ      0.069200
     27 H11        -0.6830   -0.2840    2.9380 h1        1 1AJ      0.071700
@<TRIPOS>BOND
     1    1    2 1   
     2    1    9 1   
     3    1   17 1   
     4    1   25 1   
     5    2    3 1   
     6    2   18 1   
     7    2   26 1   
     8    3    4 1   
     9    3    7 2   
    10    4    5 1   
    11    5    6 2   
    12    5   19 1   
    13    6    7 1   
    14    6   20 1   
    15    7    8 1   
    16    8    9 1   
    17    8   21 1   
    18    8   27 1   
    19    9   10 1   
    20   10   11 2   
    21   10   12 1   
    22   12   13 1   
    23   12   16 1   
    24   13   14 2   
    25   13   22 1   
    26   14   15 1   
    27   14   23 1   
    28   15   16 2   
    29   16   24 1   
@<TRIPOS>SUBSTRUCTURE
     1 1AJ         1 TEMP              0 ****  ****    0 ROOT
