@<TRIPOS>MOLECULE
1AK
   53    45     1     0     0
SMALL
bcc


@<TRIPOS>ATOM
      1 CL1         2.1680   -2.3820   -0.9910 cl        1 1AK      0.028000
      2 C01         3.3850   -0.0330   -1.5830 c1        1 1AK     -0.127000
      3 C02         3.8530    1.2340   -1.2780 c1        1 1AK     -0.085250
      4 C03         3.6390    1.7660   -0.0150 c1        1 1AK     -0.085250
      5 C04         2.9550    1.0310    0.9420 c1        1 1AK     -0.079000
      6 C05         2.4860   -0.2370    0.6380 c1        1 1AK      0.027000
      7 C06         2.7010   -0.7700   -0.6270 c1        1 1AK     -0.051000
      8 N08         1.9070   -1.0520    1.6680 n3        1 1AK     -0.088000
      9 C09         1.1470   -0.6100    2.6890 c1        1 1AK     -0.047500
     10 N10         0.9250   -1.6420    3.5150 n2        1 1AK     -0.052000
     11 N11         1.5450   -2.7230    3.0080 n2        1 1AK     -0.052000
     12 C12         2.1510   -2.3580    1.8680 c1        1 1AK     -0.047500
     13 C13         2.8670   -3.2820    0.9120 c1        1 1AK     -0.085250
     14 C14         2.3680   -3.4920   -0.3270 c1        1 1AK     -0.085250
     15 C15         1.0810   -2.7970   -0.7590 c1        1 1AK      0.006000
     16 N16         0.3990   -1.8870   -0.0440 n2        1 1AK     -0.060000
     17 N17        -0.6040   -1.4110   -0.8200 n2        1 1AK     -0.060000
     18 C18        -0.5380   -2.0290   -2.0110 c1        1 1AK      0.006000
     19 C19        -1.4270   -1.7520   -3.2090 c1        1 1AK     -0.005000
     20 C20        -0.9440   -1.9640   -4.4920 c2        1 1AK     -0.101000
     21 C21        -1.7900   -1.8310   -5.5830 c1        1 1AK     -0.099000
     22 C22        -3.1190   -1.4870   -5.3920 c1        1 1AK      0.008000
     23 C23        -3.6030   -1.2750   -4.1090 c1        1 1AK     -0.100000
     24 C24        -2.7570   -1.4080   -3.0180 c1        1 1AK     -0.089000
     25 C25        -4.0690   -1.4550   -6.5710 c1        1 1AK     -0.102000
     26 N26        -4.7860   -1.4320   -7.4630 n1        1 1AK     -0.024000
     27 O27         0.5040   -2.8880   -1.9780 os        1 1AK     -0.127000
     28 C28         0.4950    0.7580    2.7840 c1        1 1AK      0.117000
     29 C29        -0.5380    1.0870    1.9200 c2        1 1AK     -0.163000
     30 C30        -1.2690    2.2210    2.1290 c1        1 1AK      0.018000
     31 C31        -0.9820    3.0310    3.1890 c1        1 1AK     -0.884000
     32 C32         0.0520    2.7010    4.0520 c1        1 1AK      0.042000
     33 N33         0.7800    1.5700    3.8420 n1        1 1AK     -0.157000
     34 S34        -2.0790    4.3560    3.6010 s4        1 1AK      2.086800
     35 O35        -1.3930    5.3980    4.3120 o         1 1AK     -0.542400
     36 O36        -2.5130    5.0580    2.4260 o         1 1AK     -0.542400
     37 C37        -3.4570    3.7420    4.5300 c2        1 1AK     -0.940000
     38 H01         3.5360   -0.4090   -2.4730 ha        1 1AK      0.157000
     39 H02         4.3340    1.7520   -1.9510 ha        1 1AK      0.150750
     40 H03         3.9690    2.6600    0.2000 ha        1 1AK      0.150750
     41 H04         2.8050    1.4060    1.8300 ha        1 1AK      0.156000
     42 H13         3.6910   -3.7270    1.1880 ha        1 1AK      0.150750
     43 H14         2.8320   -4.0900   -0.9470 ha        1 1AK      0.150750
     44 H20        -0.0080   -2.2060   -4.6270 ha        1 1AK      0.156000
     45 H21        -1.4500   -1.9800   -6.4850 ha        1 1AK      0.152000
     46 H23        -4.5390   -1.0330   -3.9750 ha        1 1AK      0.153000
     47 H24        -3.0970   -1.2580   -2.1150 ha        1 1AK      0.167000
     48 H29        -0.7420    0.5080    1.1640 ha        1 1AK      0.181000
     49 H30        -1.9960    2.4520    1.5210 ha        1 1AK      0.165000
     50 H32         0.2580    3.2810    4.8110 ha        1 1AK      0.187000
     51 H37        -4.0540    4.4840    4.7560 ha        1 1AK      0.155333
     52 H37A       -3.9450    3.0810    3.9940 ha        1 1AK      0.155333
     53 H37B       -3.1340    3.3200    5.3550 ha        1 1AK      0.155333
@<TRIPOS>BOND
     1    1    7 1   
     2    2    7 1   
     3    2   38 1   
     4    3    4 1   
     5    3   39 1   
     6    4   40 1   
     7    5    6 1   
     8    5   41 1   
     9    6    8 1   
    10    8    9 1   
    11    8   12 1   
    12    9   10 1   
    13   10   11 1   
    14   11   12 1   
    15   13   14 1   
    16   13   42 1   
    17   14   43 1   
    18   15   16 1   
    19   15   27 1   
    20   16   17 1   
    21   17   18 1   
    22   18   27 1   
    23   19   20 1   
    24   19   24 1   
    25   20   21 1   
    26   20   44 1   
    27   21   45 1   
    28   22   23 1   
    29   22   25 1   
    30   23   46 1   
    31   24   47 1   
    32   25   26 1   
    33   28   29 1   
    34   28   33 1   
    35   29   30 1   
    36   29   48 1   
    37   30   49 1   
    38   31   32 1   
    39   31   34 1   
    40   32   50 1   
    41   34   35 1   
    42   34   36 1   
    43   37   51 1   
    44   37   52 1   
    45   37   53 1   
@<TRIPOS>SUBSTRUCTURE
     1 1AK         1 TEMP              0 ****  ****    0 ROOT
