@<TRIPOS>MOLECULE
1AK
   53    57     1     0     0
SMALL
bcc


@<TRIPOS>ATOM
      1 CL1        -1.6230    1.3290   -2.4580 cl        1 1AK     -0.063400
      2 C01        -2.0090    3.4580   -0.8940 ca        1 1AK     -0.122000
      3 C02        -2.1230    4.1040    0.3340 ca        1 1AK     -0.098000
      4 C03        -1.9850    3.3830    1.5200 ca        1 1AK     -0.126000
      5 C04        -1.7310    2.0150    1.4880 ca        1 1AK     -0.082000
      6 C05        -1.6070    1.3470    0.2530 ca        1 1AK     -0.017200
      7 C06        -1.7530    2.0850   -0.9460 ca        1 1AK      0.031400
      8 N08        -1.3390   -0.0420    0.2230 na        1 1AK     -0.217800
      9 C09        -2.2520   -1.1110    0.1650 cc        1 1AK      0.307500
     10 N10        -1.5290   -2.2860    0.1120 nd        1 1AK     -0.322000
     11 N11        -0.2540   -2.0170    0.1290 nd        1 1AK     -0.329000
     12 C12        -0.0660   -0.6500    0.1930 cc        1 1AK      0.415300
     13 C13         1.1900    0.0730    0.2290 ce        1 1AK     -0.154800
     14 C14         2.3780   -0.5580    0.1820 cf        1 1AK     -0.181800
     15 C15         3.6220    0.1680    0.2240 cd        1 1AK      0.501200
     16 N16         3.9370    1.4810    0.3300 nc        1 1AK     -0.338000
     17 N17         5.2470    1.6160    0.3230 nc        1 1AK     -0.337000
     18 C18         5.8220    0.3940    0.2120 cd        1 1AK      0.512900
     19 C19         7.2030   -0.0340    0.1570 ca        1 1AK     -0.117500
     20 C20         8.2280    0.9220    0.2230 ca        1 1AK     -0.094000
     21 C21         9.5590    0.5150    0.1700 ca        1 1AK     -0.099500
     22 C22         9.8730   -0.8460    0.0510 ca        1 1AK      0.007000
     23 C23         8.8480   -1.8010   -0.0150 ca        1 1AK     -0.099500
     24 C24         7.5180   -1.3960    0.0380 ca        1 1AK     -0.094000
     25 C25        11.2320   -1.2590   -0.0020 cg        1 1AK      0.225800
     26 N26        12.3440   -1.5980   -0.0460 n1        1 1AK     -0.346800
     27 O27         4.8110   -0.5810    0.1450 os        1 1AK     -0.379800
     28 C28        -3.7150   -1.0050    0.1760 ca        1 1AK      0.442300
     29 C29        -4.4770   -2.0830   -0.3280 ca        1 1AK     -0.229300
     30 C30        -5.8670   -1.9820   -0.3000 ca        1 1AK      0.018000
     31 C31        -6.4780   -0.8350    0.2220 ca        1 1AK     -0.501800
     32 C32        -5.6220    0.1910    0.6870 ca        1 1AK      0.508200
     33 N33        -4.2850    0.1270    0.6770 nb        1 1AK     -0.679000
     34 S34        -8.1430   -0.6560    0.2560 sy        1 1AK      1.405300
     35 O35        -8.4660    0.7060    0.3180 o         1 1AK     -0.653800
     36 O36        -8.7230   -1.4260   -0.7600 o         1 1AK     -0.653800
     37 C37        -8.4810   -1.3710    1.7510 c3        1 1AK     -0.362300
     38 H01        -2.1210    4.0280   -1.8310 ha        1 1AK      0.158000
     39 H02        -2.3240    5.1860    0.3660 ha        1 1AK      0.148000
     40 H03        -2.0780    3.8940    2.4900 ha        1 1AK      0.147000
     41 H04        -1.6370    1.4550    2.4320 ha        1 1AK      0.155000
     42 H13         1.1160    1.1740    0.2980 ha        1 1AK      0.164000
     43 H14         2.4750   -1.6560    0.1080 ha        1 1AK      0.178000
     44 H20         7.9850    1.9930    0.3160 ha        1 1AK      0.162000
     45 H21        10.3640    1.2650    0.2220 ha        1 1AK      0.153500
     46 H23         9.0940   -2.8700   -0.1080 ha        1 1AK      0.153500
     47 H24         6.7090   -2.1430   -0.0140 ha        1 1AK      0.162000
     48 H29        -3.9840   -2.9790   -0.7350 ha        1 1AK      0.179000
     49 H30        -6.4900   -2.8000   -0.7040 ha        1 1AK      0.166000
     50 H32        -6.0530    1.1360    1.0810 h4        1 1AK      0.051100
     51 H37        -8.0130   -0.8360    2.6120 h1        1 1AK      0.116367
     52 H37A       -9.5830   -1.3800    1.9520 h1        1 1AK      0.116367
     53 H37B       -8.1460   -2.4360    1.8170 h1        1 1AK      0.116367
@<TRIPOS>BOND
     1    1    7 1   
     2    2    3 ar  
     3    2    7 ar  
     4    2   38 1   
     5    3    4 ar  
     6    3   39 1   
     7    4    5 ar  
     8    4   40 1   
     9    5    6 ar  
    10    5   41 1   
    11    6    7 ar  
    12    6    8 1   
    13    8    9 1   
    14    8   12 1   
    15    9   10 2   
    16    9   28 1   
    17   10   11 1   
    18   11   12 2   
    19   12   13 1   
    20   13   14 2   
    21   13   42 1   
    22   14   15 1   
    23   14   43 1   
    24   15   16 2   
    25   15   27 1   
    26   16   17 1   
    27   17   18 2   
    28   18   19 1   
    29   18   27 1   
    30   19   20 ar  
    31   19   24 ar  
    32   20   21 ar  
    33   20   44 1   
    34   21   22 ar  
    35   21   45 1   
    36   22   23 ar  
    37   22   25 1   
    38   23   24 ar  
    39   23   46 1   
    40   24   47 1   
    41   25   26 3   
    42   28   29 ar  
    43   28   33 ar  
    44   29   30 ar  
    45   29   48 1   
    46   30   31 ar  
    47   30   49 1   
    48   31   32 ar  
    49   31   34 1   
    50   32   33 ar  
    51   32   50 1   
    52   34   35 2   
    53   34   36 2   
    54   34   37 1   
    55   37   51 1   
    56   37   52 1   
    57   37   53 1   
@<TRIPOS>SUBSTRUCTURE
     1 1AK         1 TEMP              0 ****  ****    0 ROOT
