@<TRIPOS>MOLECULE
1AK
   53    56     1     0     0
SMALL
bcc


@<TRIPOS>ATOM
      1 Cl1        -0.5180    0.2190    0.2890 cl        1 1AK      0.014000
      2 C01         2.0310   -0.5740    0.3510 ca        1 1AK     -0.123000
      3 C02         3.2350   -0.8660    0.9870 ca        1 1AK     -0.100000
      4 C03         3.3520   -0.7160    2.3680 ca        1 1AK     -0.127000
      5 C04         2.2710   -0.2740    3.1240 ca        1 1AK     -0.084000
      6 C05         1.0430    0.0210    2.4970 ca        1 1AK      0.034000
      7 C06         0.9330   -0.1300    1.0950 ca        1 1AK     -0.047000
      8 N08        -0.0570    0.4610    3.2690 na        1 1AK     -0.096000
      9 C09        -0.4550    1.7830    3.5670 c2        1 1AK     -0.056000
     10 N10        -1.6090    1.7200    4.3170 n2        1 1AK     -0.054000
     11 N11        -1.9500    0.4730    4.4990 n2        1 1AK     -0.086000
     12 C12        -1.0360   -0.3520    3.8740 c2        1 1AK      0.023000
     13 C13        -1.0570   -1.7920    3.8380 c2        1 1AK     -0.403000
     14 C14        -1.9560   -2.5930    4.3770 c1        1 1AK      0.246000
     15 C15        -1.8350   -5.4680    4.2950 c2        1 1AK     -0.065000
     16 N16        -0.7040   -5.1560    3.6410 n2        1 1AK     -0.125000
     17 N17        -0.0890   -6.2700    3.2750 n2        1 1AK     -0.074000
     18 C18        -0.8190   -7.3300    3.6900 c2        1 1AK      0.008000
     19 C19        -0.6310   -8.7590    3.5690 ca        1 1AK     -0.009000
     20 C20         0.5000   -9.2560    2.9040 ca        1 1AK     -0.094500
     21 C21         0.6860  -10.6320    2.7850 ca        1 1AK     -0.099500
     22 C22        -0.2560  -11.5160    3.3290 ca        1 1AK      0.012000
     23 C23        -1.3860  -11.0190    3.9930 ca        1 1AK     -0.099500
     24 C24        -1.5730   -9.6450    4.1130 ca        1 1AK     -0.094500
     25 C25        -0.0650  -12.9200    3.2070 c1        1 1AK     -0.104000
     26 N26         0.0920  -14.0690    3.1070 n1        1 1AK     -0.020000
     27 O27        -1.9670   -6.8530    4.3610 os        1 1AK     -0.129000
     28 C28         0.2430    3.0070    3.1640 c2        1 1AK      0.121000
     29 C29        -0.4720    4.2270    3.1680 c2        1 1AK     -0.168000
     30 C30         0.2010    5.3900    2.8000 c2        1 1AK      0.018000
     31 C31         1.5540    5.3370    2.4410 c2        1 1AK     -0.886000
     32 C32         2.1690    4.0630    2.4560 c2        1 1AK      0.044000
     33 N33         1.5550    2.9270    2.8070 n2        1 1AK     -0.156000
     34 S34         2.4000    6.7020    1.9700 s6        1 1AK      2.870000
     35 O35         3.5070    6.3260    1.1980 o         1 1AK     -0.934500
     36 O36         1.5160    7.6480    1.4350 o         1 1AK     -0.934500
     37 C37         2.9400    7.2440    3.4790 c3        1 1AK     -0.940000
     38 H01         1.9400   -0.6890   -0.7400 ha        1 1AK      0.157000
     39 H02         4.0950   -1.2140    0.3940 ha        1 1AK      0.146000
     40 H03         4.3060   -0.9440    2.8680 ha        1 1AK      0.146000
     41 H04         2.3800   -0.1480    4.2130 ha        1 1AK      0.155000
     42 H13        -0.2220   -2.2950    3.2910 ha        1 1AK      0.225000
     43 H14        -2.6140   -4.8480    4.7530 h5        1 1AK      0.265000
     44 H20         1.2420   -8.5630    2.4750 ha        1 1AK      0.161500
     45 H21         1.5730  -11.0220    2.2630 ha        1 1AK      0.154000
     46 H23        -2.1260  -11.7140    4.4200 ha        1 1AK      0.154000
     47 H24        -2.4590   -9.2500    4.6340 ha        1 1AK      0.161500
     48 H29        -1.5340    4.2560    3.4520 ha        1 1AK      0.179000
     49 H30        -0.3340    6.3560    2.7740 ha        1 1AK      0.165000
     50 H32         3.2320    3.9580    2.1500 h4        1 1AK      0.187000
     51 H37         3.5160    8.2000    3.3790 h1        1 1AK      0.155000
     52 H37A        2.1090    7.4570    4.1950 h1        1 1AK      0.155000
     53 H37B        3.6230    6.5210    3.9880 h1        1 1AK      0.155000
@<TRIPOS>BOND
     1    1    7 1   
     2    2    3 1   
     3    2    7 1   
     4    2   38 1   
     5    3    4 1   
     6    3   39 1   
     7    4    5 1   
     8    4   40 1   
     9    5    6 1   
    10    5   41 1   
    11    6    7 1   
    12    6    8 1   
    13    8    9 1   
    14    8   12 1   
    15    9   10 1   
    16    9   28 1   
    17   10   11 1   
    18   11   12 1   
    19   12   13 1   
    20   13   14 1   
    21   13   42 1   
    22   15   16 1   
    23   15   27 1   
    24   15   43 1   
    25   16   17 1   
    26   17   18 1   
    27   18   19 1   
    28   18   27 1   
    29   19   20 1   
    30   19   24 1   
    31   20   21 1   
    32   20   44 1   
    33   21   22 1   
    34   21   45 1   
    35   22   23 1   
    36   22   25 1   
    37   23   24 1   
    38   23   46 1   
    39   24   47 1   
    40   25   26 1   
    41   28   29 1   
    42   28   33 1   
    43   29   30 1   
    44   29   48 1   
    45   30   31 1   
    46   30   49 1   
    47   31   32 1   
    48   31   34 1   
    49   32   33 1   
    50   32   50 1   
    51   34   35 1   
    52   34   36 1   
    53   34   37 1   
    54   37   51 1   
    55   37   52 1   
    56   37   53 1   
@<TRIPOS>SUBSTRUCTURE
     1 1AK         1 TEMP              0 ****  ****    0 ROOT
