@<TRIPOS>MOLECULE
1AL
   19    18     1     0     0
SMALL
bcc


@<TRIPOS>ATOM
      1 C1          2.0320    1.0770   -0.1730 c         1 1AL      0.727100
      2 O2          1.6930    1.9150    0.6970 o         1 1AL     -0.640100
      3 N3          3.1490    1.4000   -0.9930 n         1 1AL     -0.651500
      4 N4          1.4110   -0.1660   -0.3360 n         1 1AL     -0.524900
      5 C5         -0.2190   -1.9760    0.0050 c         1 1AL      0.911600
      6 O6         -0.2780   -2.4140   -1.1750 o         1 1AL     -0.812300
      7 O7         -0.3750   -2.6200    1.0660 o         1 1AL     -0.812300
      8 C8          0.0610   -0.4050    0.1550 c3        1 1AL      0.094100
      9 C9         -1.9750    1.0130    0.0920 c         1 1AL      0.727100
     10 O10        -1.8370    1.4670    1.2550 o         1 1AL     -0.640100
     11 N11        -3.1800    1.3260   -0.5960 n         1 1AL     -0.651500
     12 N12        -0.9760    0.3210   -0.5900 n         1 1AL     -0.524900
     13 HN31        3.7020    2.1370   -0.6180 hn        1 1AL      0.272500
     14 HN32        3.6790    0.6420   -1.3540 hn        1 1AL      0.272500
     15 HN4         1.6060   -0.6610   -1.1820 hn        1 1AL      0.298000
     16 H8          0.0190   -0.0900    1.2400 h2        1 1AL      0.111700
     17 H111       -3.5060    0.6610   -1.2570 hn        1 1AL      0.272500
     18 H112       -3.8860    1.6800    0.0080 hn        1 1AL      0.272500
     19 H12        -1.2340   -0.1390   -1.4380 hn        1 1AL      0.298000
@<TRIPOS>BOND
     1    1    2 2   
     2    1    3 1   
     3    1    4 1   
     4    3   13 1   
     5    3   14 1   
     6    4    8 1   
     7    4   15 1   
     8    5    6 1   
     9    5    7 1   
    10    5    8 1   
    11    8   12 1   
    12    8   16 1   
    13    9   10 2   
    14    9   11 1   
    15    9   12 1   
    16   11   17 1   
    17   11   18 1   
    18   12   19 1   
@<TRIPOS>SUBSTRUCTURE
     1 1AL         1 TEMP              0 ****  ****    0 ROOT
