@<TRIPOS>MOLECULE
1AL
   23    21     1     0     0
SMALL
bcc


@<TRIPOS>ATOM
      1 C1         -0.2810   -0.9250    0.7690 c2        1 1AL      0.176500
      2 O2          0.2990   -1.9540    0.4620 o         1 1AL     -0.078500
      3 N3         -0.3700   -0.5520    2.2130 n4        1 1AL     -0.111000
      4 N4         -0.8970   -0.0260   -0.3120 n4        1 1AL      0.038000
      5 C5         -0.6530    0.0650   -6.5720 c1        1 1AL      0.481000
      6 O6         -0.2820   -0.4420   -5.5310 o         1 1AL     -0.233500
      7 O7         -1.0150    0.5490   -7.5730 o         1 1AL     -0.233500
      8 C8         -0.1550    0.1320   -1.5210 c2        1 1AL     -0.427000
      9 C9          0.9540   -1.6960   -2.8050 c2        1 1AL      0.176500
     10 O10         1.6380   -1.9810   -1.8350 o         1 1AL     -0.078500
     11 N11         1.2720   -2.2890   -4.1340 n4        1 1AL     -0.111000
     12 N12        -0.2010   -0.7110   -2.6820 n4        1 1AL      0.038000
     13 HN31        0.0830   -1.3020    2.7810 hn        1 1AL      0.313667
     14 HN32       -1.3520   -0.4660    2.5260 hn        1 1AL      0.313667
     15 HN4        -1.8450   -0.4040   -0.4860 hn        1 1AL      0.309250
     16 H8          0.7980    0.7010   -1.4140 hx        1 1AL      0.241000
     17 H111        2.1260   -2.8800   -4.0470 hn        1 1AL      0.313667
     18 H112        0.4940   -2.8780   -4.4770 hn        1 1AL      0.313667
     19 H12        -1.0830   -1.2400   -2.7710 hn        1 1AL      0.309250
     20 H33         0.1240    0.3350    2.4080 hn        1 1AL      0.313667
     21 H42        -0.9920    0.9510    0.0380 hn        1 1AL      0.309250
     22 H113        1.4460   -1.5480   -4.8430 hn        1 1AL      0.313667
     23 H122       -0.1570   -0.0280   -3.4830 hn        1 1AL      0.309250
@<TRIPOS>BOND
     1    1    2 1   
     2    1    3 1   
     3    1    4 1   
     4    3   13 1   
     5    3   14 1   
     6    3   20 1   
     7    4    8 1   
     8    4   15 1   
     9    4   21 1   
    10    5    6 1   
    11    5    7 1   
    12    8   12 1   
    13    8   16 1   
    14    9   10 1   
    15    9   11 1   
    16    9   12 1   
    17   11   17 1   
    18   11   18 1   
    19   11   22 1   
    20   12   19 1   
    21   12   23 1   
@<TRIPOS>SUBSTRUCTURE
     1 1AL         1 TEMP              0 ****  ****    0 ROOT
