@<TRIPOS>MOLECULE
1AL
   19    15     1     0     0
SMALL
bcc


@<TRIPOS>ATOM
      1 C1          0.4260    0.2050    2.3490 c1        1 1AL      0.354000
      2 O2          1.6290    0.3670    2.3050 o         1 1AL     -0.401000
      3 N3         -0.2200    0.0270    3.6000 n2        1 1AL     -0.411500
      4 N4         -0.3320    0.1870    1.1500 n3        1 1AL     -0.334000
      5 C5          0.4640    1.8060   -0.4260 c1        1 1AL      0.331000
      6 O6         -0.5590    2.5330   -0.5230 os        1 1AL     -0.577000
      7 O7          1.6080    2.3040   -0.5910 o         1 1AL     -0.517000
      8 C8          0.3180    0.3350   -0.1040 c3        1 1AL      0.030000
      9 C9          0.1930   -0.9360   -2.2050 c1        1 1AL      0.354000
     10 O10         1.4040   -0.9150   -2.2900 o         1 1AL     -0.401000
     11 N11        -0.5760   -1.6030   -3.1940 n2        1 1AL     -0.411500
     12 N12        -0.4530   -0.2970   -1.1160 n3        1 1AL     -0.334000
     13 HN31       -1.1250   -0.0990    3.6330 hn        1 1AL      0.186000
     14 HN32        0.2680    0.0380    4.3720 hn        1 1AL      0.186000
     15 HN4        -1.2360    0.0690    1.1840 hn        1 1AL      0.211500
     16 H8          1.2040   -0.0790   -0.0630 h2        1 1AL      0.151000
     17 H111       -1.4880   -1.6140   -3.1330 hn        1 1AL      0.186000
     18 H112       -0.1600   -2.0230   -3.8910 hn        1 1AL      0.186000
     19 H12        -1.3630   -0.3050   -1.0570 hn        1 1AL      0.211500
@<TRIPOS>BOND
     1    1    2 1   
     2    1    4 1   
     3    3   13 1   
     4    3   14 1   
     5    4    8 1   
     6    4   15 1   
     7    5    7 1   
     8    5    8 1   
     9    8   12 1   
    10    8   16 1   
    11    9   10 1   
    12    9   12 1   
    13   11   17 1   
    14   11   18 1   
    15   12   19 1   
@<TRIPOS>SUBSTRUCTURE
     1 1AL         1 TEMP              0 ****  ****    0 ROOT
