@<TRIPOS>MOLECULE
1AL
   23    21     1     0     0
SMALL
bcc


@<TRIPOS>ATOM
      1 C1         -0.2070   -0.9040    0.7760 c2        1 1AL      0.176500
      2 O2          0.3820   -1.9260    0.4640 o         1 1AL     -0.078500
      3 N3         -0.2630   -0.5180    2.2190 n4        1 1AL     -0.111000
      4 N4         -0.8670   -0.0250   -0.2960 n4        1 1AL      0.038000
      5 C5         -0.7980    0.0050   -6.5600 c1        1 1AL      0.481000
      6 O6         -0.3880   -0.4840   -5.5250 o         1 1AL     -0.233500
      7 O7         -1.1960    0.4720   -7.5560 o         1 1AL     -0.233500
      8 C8         -0.1610    0.1330   -1.5260 c2        1 1AL     -0.427000
      9 C9          0.9450   -1.6880   -2.8220 c2        1 1AL      0.176500
     10 O10         1.6590   -1.9520   -1.8690 o         1 1AL     -0.078500
     11 N11         1.2360   -2.2890   -4.1540 n4        1 1AL     -0.111000
     12 N12        -0.2240   -0.7220   -2.6770 n4        1 1AL      0.038000
     13 HN31        0.2180   -1.2550    2.7820 hn        1 1AL      0.313667
     14 HN32       -1.2370   -0.4460    2.5580 hn        1 1AL      0.313667
     15 HN4        -0.9690    0.9530    0.0480 hn        1 1AL      0.309250
     16 H8          0.7840    0.7190   -1.4500 hx        1 1AL      0.241000
     17 H111        2.1030   -2.8630   -4.0850 hn        1 1AL      0.313667
     18 H112        0.4600   -2.8950   -4.4700 hn        1 1AL      0.313667
     19 H12        -1.0990   -1.2660   -2.7370 hn        1 1AL      0.309250
     20 H33         0.2220    0.3790    2.3920 hn        1 1AL      0.313667
     21 H42        -1.8130   -0.4210   -0.4410 hn        1 1AL      0.309250
     22 H113        1.3780   -1.5520   -4.8750 hn        1 1AL      0.313667
     23 H122       -0.2130   -0.0460   -3.4860 hn        1 1AL      0.309250
@<TRIPOS>BOND
     1    1    2 1   
     2    1    3 1   
     3    1    4 1   
     4    3   13 1   
     5    3   14 1   
     6    3   20 1   
     7    4    8 1   
     8    4   15 1   
     9    4   21 1   
    10    5    6 1   
    11    5    7 1   
    12    8   12 1   
    13    8   16 1   
    14    9   10 1   
    15    9   11 1   
    16    9   12 1   
    17   11   17 1   
    18   11   18 1   
    19   11   22 1   
    20   12   19 1   
    21   12   23 1   
@<TRIPOS>SUBSTRUCTURE
     1 1AL         1 TEMP              0 ****  ****    0 ROOT
