@<TRIPOS>MOLECULE
1AL
   23    21     1     0     0
SMALL
bcc


@<TRIPOS>ATOM
      1 C1         -0.2760   -0.9470    0.7680 c2        1 1AL      0.176500
      2 O2          0.2930   -1.9790    0.4510 o         1 1AL     -0.078500
      3 N3         -0.3560   -0.5860    2.2160 nz        1 1AL     -0.111000
      4 N4         -0.8840   -0.0310   -0.3020 ny        1 1AL      0.038000
      5 C5         -0.6570    0.1150   -6.5620 c1        1 1AL      0.481000
      6 O6         -0.2880   -0.4050   -5.5260 o         1 1AL     -0.233500
      7 O7         -1.0150    0.6130   -7.5570 o         1 1AL     -0.233500
      8 C8         -0.1440    0.1300   -1.5120 c2        1 1AL     -0.427000
      9 C9          0.9420   -1.6980   -2.8160 c2        1 1AL      0.176500
     10 O10         1.6250   -1.9990   -1.8510 o         1 1AL     -0.078500
     11 N11         1.2490   -2.2820   -4.1510 nz        1 1AL     -0.111000
     12 N12        -0.2020   -0.7010   -2.6810 ny        1 1AL      0.038000
     13 HN31        0.0910   -1.3460    2.7760 hn        1 1AL      0.313667
     14 HN32       -1.3360   -0.4930    2.5330 hn        1 1AL      0.313667
     15 HN4        -0.9670    0.9430    0.0570 hn        1 1AL      0.309250
     16 H8          0.8160    0.6880   -1.4030 hx        1 1AL      0.241000
     17 H111        2.0980   -2.8820   -4.0720 hn        1 1AL      0.313667
     18 H112        0.4650   -2.8600   -4.4980 hn        1 1AL      0.313667
     19 H12        -1.0900   -1.2190   -2.7720 hn        1 1AL      0.309250
     20 H33         0.1480    0.2940    2.4180 hn        1 1AL      0.313667
     21 H42        -1.8360   -0.3970   -0.4770 hn        1 1AL      0.309250
     22 H113        1.4290   -1.5360   -4.8540 hn        1 1AL      0.313667
     23 H122       -0.1520   -0.0110   -3.4750 hn        1 1AL      0.309250
@<TRIPOS>BOND
     1    1    2 1   
     2    1    3 1   
     3    1    4 1   
     4    3   13 1   
     5    3   14 1   
     6    3   20 1   
     7    4    8 1   
     8    4   15 1   
     9    4   21 1   
    10    5    6 1   
    11    5    7 1   
    12    8   12 1   
    13    8   16 1   
    14    9   10 1   
    15    9   11 1   
    16    9   12 1   
    17   11   17 1   
    18   11   18 1   
    19   11   22 1   
    20   12   19 1   
    21   12   23 1   
@<TRIPOS>SUBSTRUCTURE
     1 1AL         1 TEMP              0 ****  ****    0 ROOT
