@<TRIPOS>MOLECULE
1AM
   54    58     1     0     0
SMALL
bcc


@<TRIPOS>ATOM
      1 C01         0.1380   -0.2750   -0.0620 ca        1 1AM      0.377200
      2 N02         1.4050    0.1730   -0.1400 nb        1 1AM     -0.651000
      3 C03         2.0740    0.3530    1.0060 ca        1 1AM      0.384200
      4 C04         1.5320    0.0960    2.3000 ca        1 1AM     -0.046700
      5 C05         0.1740   -0.3640    2.3660 ca        1 1AM      0.097600
      6 C06        -0.5100   -0.5480    1.1490 ca        1 1AM     -0.260300
      7 N07        -0.4090   -0.6670    3.6320 nh        1 1AM     -0.644000
      8 C08        -1.3400   -1.7860    3.6300 c3        1 1AM      0.177800
      9 C09        -1.8030   -2.1420    5.0600 c3        1 1AM      0.160300
     10 N10        -2.3170   -0.9950    5.7820 n7        1 1AM     -0.821200
     11 C11        -1.4280    0.1490    5.7500 c3        1 1AM      0.160300
     12 C12        -0.9470    0.4990    4.3260 c3        1 1AM      0.177800
     13 N13         2.2960    0.2500    3.4650 ns        1 1AM     -0.445100
     14 C14         3.3860    1.0920    3.6040 c         1 1AM      0.600600
     15 O15         3.8270    1.7970    2.6750 o         1 1AM     -0.597100
     16 C16         4.0510    1.1450    4.9400 cc        1 1AM      0.282800
     17 N17         3.7490    0.2960    5.9910 nc        1 1AM     -0.648000
     18 C18         4.5390    0.5960    7.0430 cd        1 1AM      0.476300
     19 S19         5.6340    1.9180    6.7400 ss        1 1AM      0.033700
     20 C20         5.0510    2.0850    5.2080 cd        1 1AM     -0.220400
     21 N21         4.5770   -0.0670    8.2760 n         1 1AM     -0.432300
     22 C22         3.9070    0.4790    9.4250 c         1 1AM      0.711100
     23 C23         3.5470   -0.6690   10.3060 ca        1 1AM     -0.134600
     24 C24         3.8850   -1.8760    9.6370 ca        1 1AM     -0.115300
     25 C25         4.4910   -1.5410    8.2990 c3        1 1AM      0.121300
     26 C26         2.9730   -0.6680   11.5580 ca        1 1AM     -0.071000
     27 C27         2.7330   -1.9310   12.1570 ca        1 1AM      0.115100
     28 C28         3.0650   -3.1240   11.5090 ca        1 1AM     -0.180000
     29 C29         3.6500   -3.0980   10.2330 ca        1 1AM     -0.082000
     30 O30         3.7380    1.6820    9.6330 o         1 1AM     -0.568500
     31 O31         2.1540   -1.8570   13.4080 os        1 1AM     -0.321900
     32 C32         1.9080   -3.0950   14.0660 c3        1 1AM      0.111700
     33 H1         -0.3840   -0.4170   -1.0260 h4        1 1AM      0.022100
     34 H2          3.1100    0.7330    0.8970 h4        1 1AM      0.058100
     35 H3         -1.5510   -0.9000    1.1350 ha        1 1AM      0.145000
     36 H4         -0.8150   -2.6800    3.1940 h1        1 1AM      0.045950
     37 H5         -2.2560   -1.5750    3.0060 h1        1 1AM      0.045950
     38 H6         -0.9440   -2.6400    5.5980 h1        1 1AM      0.036950
     39 H7         -2.6380   -2.8930    4.9740 h1        1 1AM      0.036950
     40 H8         -2.5170   -1.2480    6.7320 hn        1 1AM      0.365800
     41 H10        -0.5200    0.0040    6.4050 h1        1 1AM      0.036950
     42 H11        -2.0010    1.0350    6.1450 h1        1 1AM      0.036950
     43 H12        -0.1330    1.2710    4.4100 h1        1 1AM      0.045950
     44 H13        -1.8050    0.9570    3.7540 h1        1 1AM      0.045950
     45 H14         1.9740   -0.2470    4.2700 hn        1 1AM      0.352500
     46 H15         5.3820    2.8240    4.4740 h4        1 1AM      0.210000
     47 H16         3.8600   -1.9470    7.4610 h1        1 1AM      0.079700
     48 H17         5.5330   -1.9510    8.2060 h1        1 1AM      0.079700
     49 H18         2.7060    0.2590   12.0860 ha        1 1AM      0.173000
     50 H19         2.8740   -4.0960   11.9860 ha        1 1AM      0.144000
     51 H20         3.9100   -4.0400    9.7290 ha        1 1AM      0.144000
     52 H21         2.8630   -3.6500   14.2330 h1        1 1AM      0.047700
     53 H22         1.4560   -2.7830   15.0410 h1        1 1AM      0.047700
     54 H23         1.1890   -3.7170   13.4790 h1        1 1AM      0.047700
@<TRIPOS>BOND
     1    1    2 ar  
     2    1    6 ar  
     3    1   33 1   
     4    2    3 ar  
     5    3    4 ar  
     6    3   34 1   
     7    4    5 ar  
     8    4   13 1   
     9    5    6 ar  
    10    5    7 1   
    11    6   35 1   
    12    7    8 1   
    13    7   12 1   
    14    8    9 1   
    15    8   36 1   
    16    8   37 1   
    17    9   10 1   
    18    9   38 1   
    19    9   39 1   
    20   10   11 1   
    21   10   40 1   
    22   11   12 1   
    23   11   41 1   
    24   11   42 1   
    25   12   43 1   
    26   12   44 1   
    27   13   14 1   
    28   13   45 1   
    29   14   15 2   
    30   14   16 1   
    31   16   17 1   
    32   16   20 2   
    33   17   18 2   
    34   18   19 1   
    35   18   21 1   
    36   19   20 1   
    37   20   46 1   
    38   21   22 1   
    39   21   25 1   
    40   22   23 1   
    41   22   30 2   
    42   23   24 ar  
    43   23   26 ar  
    44   24   25 1   
    45   24   29 ar  
    46   25   47 1   
    47   25   48 1   
    48   26   27 ar  
    49   26   49 1   
    50   27   28 ar  
    51   27   31 1   
    52   28   29 ar  
    53   28   50 1   
    54   29   51 1   
    55   31   32 1   
    56   32   52 1   
    57   32   53 1   
    58   32   54 1   
@<TRIPOS>SUBSTRUCTURE
     1 1AM         1 TEMP              0 ****  ****    0 ROOT
