@<TRIPOS>MOLECULE
1AM
   54    47     1     0     0
SMALL
bcc


@<TRIPOS>ATOM
      1 C01        -4.5020    0.6030   -5.6410 c1        1 1AM     -0.088000
      2 N02        -4.0140    1.8030   -5.2890 n1        1 1AM     -0.125000
      3 C03        -3.2280    1.9270   -4.1720 c1        1 1AM     -0.081000
      4 C04        -2.9240    0.7780   -3.3790 c1        1 1AM      0.026000
      5 C05        -3.4010   -0.4010   -3.7220 c1        1 1AM      0.016000
      6 C06        -4.2090   -0.5230   -4.8720 c2        1 1AM     -0.195000
      7 N07        -3.0460   -1.5890   -2.9500 n2        1 1AM     -0.246000
      8 C08        -2.1690   -2.4100   -3.7340 c3        1 1AM     -0.059000
      9 C09        -1.8910   -3.7620   -3.0750 c3        1 1AM     -0.076500
     10 N10        -3.1060   -4.4440   -2.6960 n3        1 1AM     -0.300000
     11 C11        -3.9670   -3.6300   -1.9180 c3        1 1AM     -0.076500
     12 C12        -4.2400   -2.2640   -2.5790 c3        1 1AM     -0.059000
     13 N13        -2.1880    0.9260   -2.1490 n2        1 1AM     -0.299000
     14 C14        -1.2160    1.9860   -2.0160 c1        1 1AM      0.384000
     15 O15        -1.0120    2.7810   -2.9770 o         1 1AM     -0.358000
     16 C16        -0.5670    2.2310   -0.7050 c1        1 1AM     -0.135000
     17 N17         0.8840    1.7930   -0.3070 n2        1 1AM     -0.122000
     18 C18         1.1580    2.2710    1.0420 c1        1 1AM     -0.182000
     19 S19        -0.0950    3.0200    1.5420 ss        1 1AM      0.618000
     20 C20        -1.1470    2.9670    0.4120 c1        1 1AM     -0.425000
     21 N21         2.3980    1.9780    1.8520 n2        1 1AM     -0.248000
     22 C22         2.8370    0.6520    2.2640 c1        1 1AM      0.348000
     23 C23         3.8730    0.8220    3.3440 c1        1 1AM     -0.114000
     24 C24         4.0320    2.2020    3.5820 c2        1 1AM     -0.108000
     25 C25         3.1340    2.9490    2.6420 c3        1 1AM     -0.002000
     26 C26         4.5290   -0.1050    4.1650 c1        1 1AM     -0.071000
     27 C27         5.3340    0.3400    5.2110 c1        1 1AM      0.070000
     28 C28         5.4870    1.7210    5.4420 c1        1 1AM     -0.180000
     29 C29         4.8370    2.6410    4.6290 c1        1 1AM     -0.082000
     30 O30         2.4840   -0.4250    1.7530 o         1 1AM     -0.293000
     31 O31         6.0380   -0.7140    5.7590 o         1 1AM     -0.205000
     32 C32         5.7130   -0.9830    7.1230 c3        1 1AM     -0.078000
     33 H1         -5.0780    0.5160   -6.4600 ha        1 1AM      0.159000
     34 H2         -2.8730    2.8080   -3.9180 ha        1 1AM      0.195000
     35 H3         -4.5650   -1.3940   -5.1300 ha        1 1AM      0.145000
     36 H4         -2.5680   -2.5570   -4.5900 h1        1 1AM      0.085250
     37 H5         -1.2960   -1.9230   -3.8600 h1        1 1AM      0.085250
     38 H6         -1.4090   -4.3090   -3.6890 h1        1 1AM      0.076250
     39 H7         -1.3570   -3.6250   -2.3020 h1        1 1AM      0.076250
     40 H8         -2.8820   -5.2890   -2.1840 hn        1 1AM      0.161000
     41 H10        -3.5320   -3.4740   -0.9810 h1        1 1AM      0.076250
     42 H11        -4.7510   -4.0590   -1.8060 h1        1 1AM      0.076250
     43 H12        -4.7700   -1.6600   -1.9030 h1        1 1AM      0.085250
     44 H13        -4.7950   -2.4030   -3.3890 h1        1 1AM      0.085250
     45 H14        -2.4400    0.3860   -1.3560 hn        1 1AM      0.266000
     46 H15        -2.0980    3.3810    0.4420 DU        1 1AM      0.210000
     47 H16         2.5330    3.4830    3.1340 h1        1 1AM      0.119000
     48 H17         3.6800    3.5240    2.0480 h1        1 1AM      0.119000
     49 H18         4.4170   -1.1040    3.9970 ha        1 1AM      0.173000
     50 H19         6.0730    2.0470    6.2080 ha        1 1AM      0.144000
     51 H20         4.9580    3.6730    4.8040 ha        1 1AM      0.144000
     52 H21         4.9420   -1.6560    7.1630 h1        1 1AM      0.087000
     53 H22         5.4350   -0.1250    7.5790 h1        1 1AM      0.087000
     54 H23         6.5570   -1.3830    7.6120 h1        1 1AM      0.087000
@<TRIPOS>BOND
     1    1    6 1   
     2    1   33 1   
     3    2    3 1   
     4    3   34 1   
     5    4    5 1   
     6    5    6 1   
     7    6   35 1   
     8    7    8 1   
     9    7   12 1   
    10    8    9 1   
    11    8   36 1   
    12    8   37 1   
    13    9   10 1   
    14    9   38 1   
    15    9   39 1   
    16   10   11 1   
    17   10   40 1   
    18   11   12 1   
    19   11   41 1   
    20   11   42 1   
    21   12   43 1   
    22   12   44 1   
    23   13   14 1   
    24   13   45 1   
    25   14   15 1   
    26   16   17 1   
    27   16   20 1   
    28   17   18 1   
    29   18   19 1   
    30   19   20 1   
    31   21   22 1   
    32   21   25 1   
    33   22   30 1   
    34   23   24 1   
    35   23   26 1   
    36   24   25 1   
    37   24   29 1   
    38   25   47 1   
    39   25   48 1   
    40   26   49 1   
    41   27   28 1   
    42   28   50 1   
    43   29   51 1   
    44   31   32 1   
    45   32   52 1   
    46   32   53 1   
    47   32   54 1   
@<TRIPOS>SUBSTRUCTURE
     1 1AM         1 TEMP              0 ****  ****    0 ROOT
