@<TRIPOS>MOLECULE
1AM
   54    58     1     0     0
SMALL
bcc


@<TRIPOS>ATOM
      1 C01         0.0650   -0.0180   -0.0070 ca        1 1AM      0.368200
      2 N02         1.3450    0.3890   -0.1060 nb        1 1AM     -0.644000
      3 C03         2.0590    0.4970    1.0200 ca        1 1AM      0.374200
      4 C04         1.5520    0.2070    2.3240 ca        1 1AM     -0.024700
      5 C05         0.1880   -0.2230    2.4090 ca        1 1AM      0.069600
      6 C06        -0.5470   -0.3290    1.2140 ca        1 1AM     -0.247300
      7 N07        -0.3800   -0.5350    3.6900 nh        1 1AM     -0.634000
      8 C08        -0.8650   -1.9090    3.7740 c3        1 1AM      0.171800
      9 C09        -1.4710   -2.2310    5.1550 c3        1 1AM      0.160300
     10 N10        -2.4600   -1.2590    5.5750 n3        1 1AM     -0.821200
     11 C11        -1.9910    0.1090    5.4820 c3        1 1AM      0.160300
     12 C12        -1.3830    0.4420    4.1050 c3        1 1AM      0.171800
     13 N13         2.3440    0.3020    3.4740 n         1 1AM     -0.440100
     14 C14         3.5120    1.0380    3.5940 c         1 1AM      0.601600
     15 O15         4.0250    1.6700    2.6500 o         1 1AM     -0.596100
     16 C16         4.1760    1.0590    4.9310 cc        1 1AM      0.284800
     17 N17         3.8290    0.2280    5.9820 nc        1 1AM     -0.649000
     18 C18         4.6330    0.4860    7.0350 cd        1 1AM      0.479300
     19 S19         5.7980    1.7480    6.7310 ss        1 1AM      0.032700
     20 C20         5.2240    1.9450    5.1980 cd        1 1AM     -0.221400
     21 N21         4.6380   -0.1820    8.2640 n         1 1AM     -0.434300
     22 C22         4.0690    0.4220    9.4380 c         1 1AM      0.712100
     23 C23         3.6330   -0.6880   10.3320 ca        1 1AM     -0.133600
     24 C24         3.8290   -1.9200    9.6530 ca        1 1AM     -0.115300
     25 C25         4.4130   -1.6410    8.2910 c3        1 1AM      0.122300
     26 C26         3.1090   -0.6350   11.6050 ca        1 1AM     -0.071000
     27 C27         2.7720   -1.8710   12.2140 ca        1 1AM      0.115100
     28 C28         2.9650   -3.0890   11.5550 ca        1 1AM     -0.180000
     29 C29         3.5020   -3.1150   10.2580 ca        1 1AM     -0.082000
     30 O30         4.0260    1.6360    9.6510 o         1 1AM     -0.569500
     31 O31         2.2510   -1.7450   13.4860 os        1 1AM     -0.321900
     32 C32         1.9100   -2.9550   14.1520 c3        1 1AM      0.111700
     33 H1         -0.4930   -0.0940   -0.9560 h4        1 1AM      0.023100
     34 H2          3.1040    0.8430    0.8860 h4        1 1AM      0.061100
     35 H3         -1.5990   -0.6490    1.2320 ha        1 1AM      0.145000
     36 H4          0.0130   -2.5930    3.6070 h1        1 1AM      0.044700
     37 H5         -1.6370   -2.1310    2.9810 h1        1 1AM      0.044700
     38 H6         -1.9850   -3.2300    5.0800 h1        1 1AM      0.036450
     39 H7         -0.6270   -2.3320    5.8980 h1        1 1AM      0.036450
     40 H8         -2.7600   -1.4560    6.5120 hn        1 1AM      0.365800
     41 H10        -1.2250    0.3530    6.2760 h1        1 1AM      0.036450
     42 H11        -2.8770    0.7850    5.6390 h1        1 1AM      0.036450
     43 H12        -2.2180    0.5240    3.3500 h1        1 1AM      0.044700
     44 H13        -0.8770    1.4440    4.1760 h1        1 1AM      0.044700
     45 H14         1.9650   -0.1100    4.3010 hn        1 1AM      0.354500
     46 H15         5.5960    2.6640    4.4640 h4        1 1AM      0.209000
     47 H16         5.4070   -2.1490    8.1590 h1        1 1AM      0.080200
     48 H17         3.7150   -1.9830    7.4790 h1        1 1AM      0.080200
     49 H18         2.9520    0.3120   12.1410 ha        1 1AM      0.173000
     50 H19         2.7000   -4.0390   12.0400 ha        1 1AM      0.144000
     51 H20         3.6520   -4.0770    9.7460 ha        1 1AM      0.144000
     52 H21         1.5260   -2.6040   15.1440 h1        1 1AM      0.047700
     53 H22         2.8120   -3.6000   14.2850 h1        1 1AM      0.047700
     54 H23         1.1140   -3.5030   13.5920 h1        1 1AM      0.047700
@<TRIPOS>BOND
     1    1    2 ar  
     2    1    6 ar  
     3    1   33 1   
     4    2    3 ar  
     5    3    4 ar  
     6    3   34 1   
     7    4    5 ar  
     8    4   13 1   
     9    5    6 ar  
    10    5    7 1   
    11    6   35 1   
    12    7    8 1   
    13    7   12 1   
    14    8    9 1   
    15    8   36 1   
    16    8   37 1   
    17    9   10 1   
    18    9   38 1   
    19    9   39 1   
    20   10   11 1   
    21   10   40 1   
    22   11   12 1   
    23   11   41 1   
    24   11   42 1   
    25   12   43 1   
    26   12   44 1   
    27   13   14 1   
    28   13   45 1   
    29   14   15 2   
    30   14   16 1   
    31   16   17 1   
    32   16   20 2   
    33   17   18 2   
    34   18   19 1   
    35   18   21 1   
    36   19   20 1   
    37   20   46 1   
    38   21   22 1   
    39   21   25 1   
    40   22   23 1   
    41   22   30 2   
    42   23   24 ar  
    43   23   26 ar  
    44   24   25 1   
    45   24   29 ar  
    46   25   47 1   
    47   25   48 1   
    48   26   27 ar  
    49   26   49 1   
    50   27   28 ar  
    51   27   31 1   
    52   28   29 ar  
    53   28   50 1   
    54   29   51 1   
    55   31   32 1   
    56   32   52 1   
    57   32   53 1   
    58   32   54 1   
@<TRIPOS>SUBSTRUCTURE
     1 1AM         1 TEMP              0 ****  ****    0 ROOT
