@<TRIPOS>MOLECULE
1AM
   54    58     1     0     0
SMALL
bcc


@<TRIPOS>ATOM
      1 C01        -6.7920    0.3110   -1.1250 ca        1 1AM      0.375200
      2 N02        -6.4890    1.5380   -0.6640 nb        1 1AM     -0.649000
      3 C03        -5.2290    1.7670   -0.2760 ca        1 1AM      0.382200
      4 C04        -4.1860    0.7940   -0.3200 ca        1 1AM     -0.039700
      5 C05        -4.5300   -0.5150   -0.8000 ca        1 1AM      0.091600
      6 C06        -5.8610   -0.7320   -1.2050 ca        1 1AM     -0.259300
      7 N07        -3.5220   -1.5190   -0.8970 nh        1 1AM     -0.642000
      8 C08        -3.6380   -2.4050   -2.0460 c3        1 1AM      0.142800
      9 C09        -2.4330   -3.3680   -2.1420 c3        1 1AM      0.149300
     10 N10        -2.1310   -4.0900   -0.9220 n3        1 1AM     -0.798200
     11 C11        -2.0890   -3.2120    0.2300 c3        1 1AM      0.149300
     12 C12        -3.2790   -2.2330    0.3520 c3        1 1AM      0.142800
     13 N13        -2.8710    1.0980    0.0520 n         1 1AM     -0.446100
     14 C14        -2.4890    2.1160    0.9120 c         1 1AM      0.601600
     15 O15        -3.2970    2.9200    1.4160 o         1 1AM     -0.596100
     16 C16        -1.0350    2.2460    1.2220 cc        1 1AM      0.298800
     17 N17        -0.0810    1.3160    0.8330 nc        1 1AM     -0.690000
     18 C18         1.1330    1.7210    1.2760 cd        1 1AM      0.522300
     19 S19         1.0910    3.2270    2.1600 ss        1 1AM      0.024700
     20 C20        -0.5480    3.3300    1.9470 cd        1 1AM     -0.240400
     21 N21         2.3040    1.0180    1.0500 n         1 1AM     -0.457300
     22 C22         3.5950    1.3560    1.5290 c         1 1AM      0.726100
     23 C23         4.5160    0.2810    1.0600 ca        1 1AM     -0.127600
     24 C24         3.7630   -0.6740    0.3230 ca        1 1AM     -0.119300
     25 C25         2.3190   -0.2410    0.2910 c3        1 1AM      0.149300
     26 C26         5.8720    0.1450    1.2550 ca        1 1AM     -0.070000
     27 C27         6.4920   -0.9960    0.6850 ca        1 1AM      0.117100
     28 C28         5.7610   -1.9410   -0.0410 ca        1 1AM     -0.179000
     29 C29         4.3790   -1.7790   -0.2260 ca        1 1AM     -0.079000
     30 O30         3.8520    2.3620    2.1980 o         1 1AM     -0.588500
     31 O31         7.8500   -1.0700    0.9190 os        1 1AM     -0.321900
     32 C32         8.5260   -2.1960    0.3690 c3        1 1AM      0.110700
     33 H1         -7.8390    0.1580   -1.4420 h4        1 1AM      0.022100
     34 H2         -5.0280    2.7890    0.1040 h4        1 1AM      0.060100
     35 H3         -6.1820   -1.7120   -1.5840 ha        1 1AM      0.141000
     36 H4         -4.5830   -3.0220   -2.0120 h1        1 1AM      0.042450
     37 H5         -3.6710   -1.7700   -2.9730 h1        1 1AM      0.042450
     38 H6         -2.6430   -4.1060   -2.9640 h1        1 1AM      0.059700
     39 H7         -1.5150   -2.7790   -2.4230 h1        1 1AM      0.059700
     40 H8         -2.8160   -4.8110   -0.7750 hn        1 1AM      0.349800
     41 H10        -2.0530   -3.8330    1.1660 h1        1 1AM      0.059700
     42 H11        -1.1350   -2.6160    0.1660 h1        1 1AM      0.059700
     43 H12        -3.0430   -1.4790    1.1510 h1        1 1AM      0.042450
     44 H13        -4.1930   -2.8090    0.6800 h1        1 1AM      0.042450
     45 H14        -2.1660    0.4730   -0.2800 hn        1 1AM      0.352500
     46 H15        -1.1830    4.1340    2.3250 h4        1 1AM      0.207000
     47 H16         1.6480   -0.9980    0.7810 h1        1 1AM      0.082200
     48 H17         1.9620   -0.0600   -0.7600 h1        1 1AM      0.082200
     49 H18         6.4650    0.8770    1.8230 ha        1 1AM      0.174000
     50 H19         6.2560   -2.8210   -0.4760 ha        1 1AM      0.146000
     51 H20         3.8110   -2.5270   -0.7980 ha        1 1AM      0.147000
     52 H21         8.4410   -2.2020   -0.7440 h1        1 1AM      0.049033
     53 H22         9.5890   -2.0370    0.6840 h1        1 1AM      0.049033
     54 H23         8.1250   -3.1460    0.8000 h1        1 1AM      0.049033
@<TRIPOS>BOND
     1    1    2 ar  
     2    1    6 ar  
     3    1   33 1   
     4    2    3 ar  
     5    3    4 ar  
     6    3   34 1   
     7    4    5 ar  
     8    4   13 1   
     9    5    6 ar  
    10    5    7 1   
    11    6   35 1   
    12    7    8 1   
    13    7   12 1   
    14    8    9 1   
    15    8   36 1   
    16    8   37 1   
    17    9   10 1   
    18    9   38 1   
    19    9   39 1   
    20   10   11 1   
    21   10   40 1   
    22   11   12 1   
    23   11   41 1   
    24   11   42 1   
    25   12   43 1   
    26   12   44 1   
    27   13   14 1   
    28   13   45 1   
    29   14   15 2   
    30   14   16 1   
    31   16   17 1   
    32   16   20 2   
    33   17   18 2   
    34   18   19 1   
    35   18   21 1   
    36   19   20 1   
    37   20   46 1   
    38   21   22 1   
    39   21   25 1   
    40   22   23 1   
    41   22   30 2   
    42   23   24 ar  
    43   23   26 ar  
    44   24   25 1   
    45   24   29 ar  
    46   25   47 1   
    47   25   48 1   
    48   26   27 ar  
    49   26   49 1   
    50   27   28 ar  
    51   27   31 1   
    52   28   29 ar  
    53   28   50 1   
    54   29   51 1   
    55   31   32 1   
    56   32   52 1   
    57   32   53 1   
    58   32   54 1   
@<TRIPOS>SUBSTRUCTURE
     1 1AM         1 TEMP              0 ****  ****    0 ROOT
