@<TRIPOS>MOLECULE
1AM
   55    59     1     0     0
SMALL
bcc


@<TRIPOS>ATOM
      1 C01         0.3670   -1.4440    0.0400 ca        1 1AM      0.457200
      2 N02         1.5400   -1.9600    0.4610 nb        1 1AM     -0.632000
      3 C03         1.9190   -1.7120    1.7200 ca        1 1AM      0.442200
      4 C04         1.1440   -0.9400    2.6240 ca        1 1AM     -0.167700
      5 C05        -0.0940   -0.3900    2.1800 ca        1 1AM      0.181600
      6 C06        -0.4730   -0.6650    0.8530 ca        1 1AM     -0.255300
      7 N07        -0.8720    0.3870    3.0960 nh        1 1AM     -0.664000
      8 C08        -2.2070   -0.1770    3.3150 c3        1 1AM      0.161300
      9 C09        -3.0610    0.6870    4.2650 c3        1 1AM      0.165800
     10 N10        -3.0960    2.0760    3.8600 n3        1 1AM     -0.825200
     11 C11        -1.7780    2.6440    3.6790 c3        1 1AM      0.165800
     12 C12        -0.9060    1.8050    2.7240 c3        1 1AM      0.161300
     13 N13         1.6180   -0.7270    3.9840 n4        1 1AM     -0.508200
     14 C14         2.3840    0.5700    4.1910 c         1 1AM      0.493600
     15 O15         2.3690    1.4030    3.2960 o         1 1AM     -0.422100
     16 C16         3.0600    0.6730    5.4830 cc        1 1AM      0.239800
     17 N17         2.9750   -0.3490    6.4280 nc        1 1AM     -0.701000
     18 C18         3.6850    0.0010    7.5200 cd        1 1AM      0.595300
     19 S19         4.4480    1.5910    7.3680 ss        1 1AM     -0.001300
     20 C20         3.8190    1.7830    5.8500 cd        1 1AM     -0.174400
     21 N21         3.8340   -0.7550    8.6520 n         1 1AM     -0.465300
     22 C22         3.2860   -2.0630    8.8980 c         1 1AM      0.743100
     23 C23         3.7420   -2.4480   10.2610 ca        1 1AM     -0.132600
     24 C24         4.5360   -1.4000   10.8010 ca        1 1AM     -0.130300
     25 C25         4.6260   -0.2800    9.7970 c3        1 1AM      0.137300
     26 C26         3.4890   -3.6040   10.9640 ca        1 1AM     -0.066000
     27 C27         4.0590   -3.7070   12.2610 ca        1 1AM      0.134100
     28 C28         4.8420   -2.6800   12.7990 ca        1 1AM     -0.175000
     29 C29         5.0850   -1.5100   12.0610 ca        1 1AM     -0.065000
     30 O30         2.5880   -2.6860    8.1010 o         1 1AM     -0.546500
     31 O31         3.7660   -4.8860   12.9060 os        1 1AM     -0.314900
     32 C32         4.3140   -5.0530   14.2120 c3        1 1AM      0.107700
     33 H1          0.0930   -1.6690   -1.0100 h4        1 1AM      0.058100
     34 H2          2.8890   -2.1570    2.0190 h4        1 1AM      0.044100
     35 H3         -1.4180   -0.2690    0.4480 ha        1 1AM      0.179000
     36 H4         -2.0770   -1.1920    3.7830 h1        1 1AM      0.055450
     37 H5         -2.7650   -0.3050    2.3430 h1        1 1AM      0.055450
     38 H6         -2.6710    0.5530    5.3170 h1        1 1AM      0.045950
     39 H7         -4.1150    0.2900    4.2330 h1        1 1AM      0.045950
     40 H8         -3.6380    2.6230    4.5020 hn        1 1AM      0.386800
     41 H10        -1.9010    3.6650    3.2200 h1        1 1AM      0.045950
     42 H11        -1.2220    2.7670    4.6550 h1        1 1AM      0.045950
     43 H12         0.1500    2.1950    2.7680 h1        1 1AM      0.055450
     44 H13        -1.2880    1.9400    1.6710 h1        1 1AM      0.055450
     45 H14         2.2250   -1.5140    4.2550 hn        1 1AM      0.482800
     46 H15         3.9780    2.6620    5.2180 h4        1 1AM      0.216000
     47 H16         5.6910   -0.0960    9.4820 h1        1 1AM      0.076700
     48 H17         4.1860    0.6730   10.2040 h1        1 1AM      0.076700
     49 H18         2.8770   -4.4240   10.5600 ha        1 1AM      0.179000
     50 H19         5.2770   -2.7740   13.8050 ha        1 1AM      0.157000
     51 H20         5.7020   -0.7080   12.4930 ha        1 1AM      0.152000
     52 H21         5.4300   -5.0350   14.1760 h1        1 1AM      0.056033
     53 H22         3.9430   -6.0660   14.5140 h1        1 1AM      0.056033
     54 H23         3.9250   -4.2670   14.9040 h1        1 1AM      0.056033
     55 H132        0.8120   -0.7100    4.6300 hn        1 1AM      0.482800
@<TRIPOS>BOND
     1    1    2 ar  
     2    1    6 ar  
     3    1   33 1   
     4    2    3 ar  
     5    3    4 ar  
     6    3   34 1   
     7    4    5 ar  
     8    4   13 1   
     9    5    6 ar  
    10    5    7 1   
    11    6   35 1   
    12    7    8 1   
    13    7   12 1   
    14    8    9 1   
    15    8   36 1   
    16    8   37 1   
    17    9   10 1   
    18    9   38 1   
    19    9   39 1   
    20   10   11 1   
    21   10   40 1   
    22   11   12 1   
    23   11   41 1   
    24   11   42 1   
    25   12   43 1   
    26   12   44 1   
    27   13   14 1   
    28   13   45 1   
    29   13   55 1   
    30   14   15 2   
    31   14   16 1   
    32   16   17 1   
    33   16   20 2   
    34   17   18 2   
    35   18   19 1   
    36   18   21 1   
    37   19   20 1   
    38   20   46 1   
    39   21   22 1   
    40   21   25 1   
    41   22   23 1   
    42   22   30 2   
    43   23   24 ar  
    44   23   26 ar  
    45   24   25 1   
    46   24   29 ar  
    47   25   47 1   
    48   25   48 1   
    49   26   27 ar  
    50   26   49 1   
    51   27   28 ar  
    52   27   31 1   
    53   28   29 ar  
    54   28   50 1   
    55   29   51 1   
    56   31   32 1   
    57   32   52 1   
    58   32   53 1   
    59   32   54 1   
@<TRIPOS>SUBSTRUCTURE
     1 1AM         1 TEMP              0 ****  ****    0 ROOT
