@<TRIPOS>MOLECULE
1AN
   14    14     1     0     0
SMALL
bcc


@<TRIPOS>ATOM
      1 C4         -0.0160   -0.0240   -0.0060 ca        1 1AN     -0.151000
      2 C5          1.3720    0.1010   -0.0050 ca        1 1AN     -0.104000
      3 C3         -0.7030   -0.1450    1.1970 ca        1 1AN     -0.125000
      4 C6          2.0850    0.1010    1.1870 ca        1 1AN     -0.172000
      5 C2          0.0000   -0.1430    2.4110 ca        1 1AN      0.054900
      6 C1          1.4240   -0.0320    2.4290 ca        1 1AN      0.113600
      7 N           2.1440   -0.1360    3.6210 nh        1 1AN     -0.813200
      8 F2         -0.6860   -0.2470    3.5790 f         1 1AN     -0.148900
      9 HC4        -0.5720   -0.0250   -0.9550 ha        1 1AN      0.137000
     10 HC5         1.9130    0.2000   -0.9580 ha        1 1AN      0.134000
     11 HC3        -1.7980   -0.2400    1.2150 ha        1 1AN      0.146000
     12 HC6         3.1820    0.1960    1.1630 ha        1 1AN      0.137000
     13 HN1         3.0230    0.3320    3.6120 hn        1 1AN      0.395800
     14 HN2         1.6060    0.0440    4.4410 hn        1 1AN      0.395800
@<TRIPOS>BOND
     1    1    2 ar  
     2    1    3 ar  
     3    1    9 1   
     4    2    4 ar  
     5    2   10 1   
     6    3    5 ar  
     7    3   11 1   
     8    4    6 ar  
     9    4   12 1   
    10    5    6 ar  
    11    5    8 1   
    12    6    7 1   
    13    7   13 1   
    14    7   14 1   
@<TRIPOS>SUBSTRUCTURE
     1 1AN         1 TEMP              0 ****  ****    0 ROOT
