@<TRIPOS>MOLECULE
1AN
   14    14     1     0     0
SMALL
bcc


@<TRIPOS>ATOM
      1 C4         -0.0110    0.0030   -0.0090 ca        1 1AN     -0.151000
      2 C5          1.3760    0.1510   -0.0000 ca        1 1AN     -0.104000
      3 C3         -0.6990   -0.1610    1.1880 ca        1 1AN     -0.125000
      4 C6          2.0850    0.1330    1.1940 ca        1 1AN     -0.172000
      5 C2          0.0000   -0.1800    2.4040 ca        1 1AN      0.054900
      6 C1          1.4220   -0.0440    2.4300 ca        1 1AN      0.113600
      7 N           2.1400   -0.1660    3.6220 nv        1 1AN     -0.813200
      8 F2         -0.6880   -0.3260    3.5660 f         1 1AN     -0.148900
      9 HC4        -0.5630    0.0160   -0.9600 ha        1 1AN      0.137000
     10 HC5         1.9180    0.2840   -0.9490 ha        1 1AN      0.134000
     11 HC3        -1.7920   -0.2760    1.1990 ha        1 1AN      0.146000
     12 HC6         3.1790    0.2470    1.1770 ha        1 1AN      0.137000
     13 HN1         1.5960   -0.0180    4.4440 hn        1 1AN      0.395800
     14 HN2         3.0110    0.3170    3.6270 hn        1 1AN      0.395800
@<TRIPOS>BOND
     1    1    2 ar  
     2    1    3 ar  
     3    1    9 1   
     4    2    4 ar  
     5    2   10 1   
     6    3    5 ar  
     7    3   11 1   
     8    4    6 ar  
     9    4   12 1   
    10    5    6 ar  
    11    5    8 1   
    12    6    7 1   
    13    7   13 1   
    14    7   14 1   
@<TRIPOS>SUBSTRUCTURE
     1 1AN         1 TEMP              0 ****  ****    0 ROOT
