@<TRIPOS>MOLECULE
1AN
   14    11     1     0     0
SMALL
bcc


@<TRIPOS>ATOM
      1 C4         -0.9310   -0.0020   -1.6520 c1        1 1AN     -0.080500
      2 C5          0.4550   -0.0020   -1.6520 c1        1 1AN     -0.080500
      3 C3         -1.6240   -0.0020   -0.4520 c1        1 1AN     -0.080500
      4 C6          1.1480   -0.0020   -0.4520 c1        1 1AN     -0.080500
      5 C2         -0.9310   -0.0020    0.7480 c1        1 1AN      0.022100
      6 C1          0.4550   -0.0020    0.7480 c1        1 1AN      0.087800
      7 N           1.1650    0.0110    1.9770 n3        1 1AN     -0.787400
      8 F2         -1.6000   -0.0250    1.9080 f         1 1AN     -0.116100
      9 HC4        -1.4190   -0.0020   -2.4980 ha        1 1AN      0.081000
     10 HC5         0.9430   -0.0020   -2.4980 ha        1 1AN      0.081000
     11 HC3        -2.6000   -0.0020   -0.4520 ha        1 1AN      0.081000
     12 HC6         2.1240   -0.0020   -0.4520 ha        1 1AN      0.081000
     13 HN1         1.2980    0.7990    2.4170 hn        1 1AN      0.395800
     14 HN2         1.5160   -0.7620    2.3090 hn        1 1AN      0.395800
@<TRIPOS>BOND
     1    1    3 3   
     2    1    9 1   
     3    2    4 3   
     4    2   10 1   
     5    3   11 1   
     6    4   12 1   
     7    5    6 3   
     8    5    8 1   
     9    6    7 1   
    10    7   13 1   
    11    7   14 1   
@<TRIPOS>SUBSTRUCTURE
     1 1AN         1 TEMP              0 ****  ****    0 ROOT
