@<TRIPOS>MOLECULE
1AN
   15    15     1     0     0
SMALL
bcc


@<TRIPOS>ATOM
      1 C4         -0.0200   -0.0080   -0.0210 ca        1 1AN     -0.040000
      2 C5          1.3770   -0.0840   -0.0270 ca        1 1AN     -0.110000
      3 C3         -0.7190    0.0740    1.1790 ca        1 1AN     -0.132000
      4 C6          2.0910   -0.0780    1.1650 ca        1 1AN     -0.078000
      5 C2         -0.0180    0.0820    2.3980 ca        1 1AN      0.167900
      6 C1          1.4000    0.0040    2.3880 ca        1 1AN     -0.124400
      7 N           2.1450    0.0090    3.6430 n4        1 1AN     -0.694000
      8 F2         -0.6810    0.1620    3.5720 f         1 1AN     -0.115900
      9 HC4        -0.5750   -0.0130   -0.9760 ha        1 1AN      0.182000
     10 HC5         1.9200   -0.1480   -0.9860 ha        1 1AN      0.181000
     11 HC3        -1.8210    0.1350    1.1960 ha        1 1AN      0.193000
     12 HC6         3.1920   -0.1390    1.1390 ha        1 1AN      0.164000
     13 HN1         1.4970    0.1150    4.4350 hn        1 1AN      0.469133
     14 HN2         2.6580   -0.8750    3.7440 hn        1 1AN      0.469133
     15 HN3         2.8130    0.7890    3.6460 hn        1 1AN      0.469133
@<TRIPOS>BOND
     1    1    2 ar  
     2    1    3 ar  
     3    1    9 1   
     4    2    4 ar  
     5    2   10 1   
     6    3    5 ar  
     7    3   11 1   
     8    4    6 ar  
     9    4   12 1   
    10    5    6 ar  
    11    5    8 1   
    12    6    7 1   
    13    7   13 1   
    14    7   14 1   
    15    7   15 1   
@<TRIPOS>SUBSTRUCTURE
     1 1AN         1 TEMP              0 ****  ****    0 ROOT
