@<TRIPOS>MOLECULE
1AN
   14    14     1     0     0
SMALL
bcc


@<TRIPOS>ATOM
      1 C4          0.7710    0.0150   -1.8920 ca        1 1AN     -0.151000
      2 C5         -0.6220    0.0010   -1.9590 ca        1 1AN     -0.104000
      3 C3          1.4060    0.0050   -0.6550 ca        1 1AN     -0.125000
      4 C6         -1.3890   -0.0290   -0.8010 ca        1 1AN     -0.172000
      5 C2          0.6470   -0.0230    0.5250 ca        1 1AN      0.054900
      6 C1         -0.7800   -0.0530    0.4730 ca        1 1AN      0.113600
      7 N          -1.5440   -0.1870    1.6350 nh        1 1AN     -0.813200
      8 F2          1.2830   -0.0180    1.7260 f         1 1AN     -0.148900
      9 HC4         1.3690    0.0370   -2.8130 ha        1 1AN      0.137000
     10 HC5        -1.1230    0.0130   -2.9390 ha        1 1AN      0.134000
     11 HC3         2.5030    0.0190   -0.5840 ha        1 1AN      0.146000
     12 HC6        -2.4870   -0.0440   -0.8790 ha        1 1AN      0.137000
     13 HN1        -1.0670    0.0730    2.4710 hn        1 1AN      0.395800
     14 HN2        -2.4630    0.1900    1.5670 hn        1 1AN      0.395800
@<TRIPOS>BOND
     1    1    2 ar  
     2    1    3 ar  
     3    1    9 1   
     4    2    4 ar  
     5    2   10 1   
     6    3    5 ar  
     7    3   11 1   
     8    4    6 ar  
     9    4   12 1   
    10    5    6 ar  
    11    5    8 1   
    12    6    7 1   
    13    7   13 1   
    14    7   14 1   
@<TRIPOS>SUBSTRUCTURE
     1 1AN         1 TEMP              0 ****  ****    0 ROOT
