@<TRIPOS>MOLECULE
1AO
   50    54     1     0     0
SMALL
bcc


@<TRIPOS>ATOM
      1 C01         0.0670   -0.7280   -0.0480 ca        1 1AO     -0.068000
      2 C02         1.3900   -1.1550    0.0780 ca        1 1AO     -0.110000
      3 C03         2.0160   -1.1330    1.3190 ca        1 1AO     -0.101000
      4 C04         1.3090   -0.6850    2.4500 ca        1 1AO     -0.036400
      5 C05        -0.0380   -0.2430    2.3390 ca        1 1AO      0.137600
      6 C06        -0.6370   -0.2790    1.0650 ca        1 1AO     -0.136000
      7 N07        -0.7140    0.2070    3.5210 nh        1 1AO     -0.662000
      8 C08        -1.9000   -0.5960    3.8250 c3        1 1AO      0.161300
      9 C09        -2.6570   -0.0830    5.0670 c3        1 1AO      0.165300
     10 N10        -2.9410    1.3340    4.9900 n3        1 1AO     -0.825200
     11 C11        -1.7650    2.1320    4.7220 c3        1 1AO      0.165300
     12 C12        -0.9960    1.6450    3.4780 c3        1 1AO      0.161300
     13 N13         1.9780   -0.6880    3.7500 n4        1 1AO     -0.515200
     14 C14         2.6020    0.6370    4.1430 c         1 1AO      0.493600
     15 O15         2.3500    1.6260    3.4710 o         1 1AO     -0.418100
     16 C16         3.4610    0.5780    5.3250 cc        1 1AO      0.228800
     17 N17         3.6260   -0.5970    6.0560 nc        1 1AO     -0.672000
     18 C18         4.4780   -0.3610    7.0730 cd        1 1AO      0.550900
     19 S19         5.0480    1.3030    7.1330 ss        1 1AO      0.063700
     20 C20         4.1610    1.6890    5.8000 cd        1 1AO     -0.188400
     21 N21         4.9760   -1.3200    7.9560 na        1 1AO      0.057100
     22 N22         4.6570   -2.6560    7.8380 nc        1 1AO     -0.490100
     23 C23         4.8890   -3.2510    9.0070 cd        1 1AO      0.412800
     24 C24         5.3240   -2.2760   10.0160 ca        1 1AO     -0.202900
     25 C25         5.7000   -2.3370   11.3490 ca        1 1AO     -0.046000
     26 C26         6.0780   -1.1510   11.9810 ca        1 1AO     -0.135000
     27 C27         6.0910    0.0680   11.2940 ca        1 1AO     -0.077000
     28 C28         5.7270    0.1580    9.9490 ca        1 1AO     -0.141000
     29 C29         5.3370   -1.0180    9.3130 ca        1 1AO     -0.060200
     30 H1         -0.4230   -0.7430   -1.0360 ha        1 1AO      0.166000
     31 H2          1.9450   -1.5090   -0.8060 ha        1 1AO      0.167000
     32 H3          3.0630   -1.4700    1.4010 ha        1 1AO      0.153000
     33 H4         -1.6810    0.0600    0.9490 ha        1 1AO      0.168000
     34 H5         -1.5580   -1.6480    4.0300 h1        1 1AO      0.053950
     35 H6         -2.6150   -0.6240    2.9530 h1        1 1AO      0.053950
     36 H7         -3.6390   -0.6310    5.1190 h1        1 1AO      0.044200
     37 H8         -2.0590   -0.3540    5.9860 h1        1 1AO      0.044200
     38 H9         -3.4090    1.6510    5.8180 hn        1 1AO      0.385800
     39 H11        -2.1020    3.1890    4.5230 h1        1 1AO      0.044200
     40 H12        -1.0510    2.1550    5.5970 h1        1 1AO      0.044200
     41 H13        -0.0080    2.1840    3.4340 h1        1 1AO      0.053950
     42 H14        -1.5870    1.9170    2.5570 h1        1 1AO      0.053950
     43 H15         2.7140   -1.4080    3.7470 hn        1 1AO      0.479300
     44 H16         4.1180    2.6830    5.3420 h4        1 1AO      0.217000
     45 H17         4.7720   -4.3300    9.1520 h4        1 1AO      0.075800
     46 H18         5.7020   -3.2940   11.8930 ha        1 1AO      0.158000
     47 H19         6.3770   -1.1750   13.0410 ha        1 1AO      0.156000
     48 H20         6.3980    0.9830   11.8250 ha        1 1AO      0.153000
     49 H21         5.7550    1.1280    9.4310 ha        1 1AO      0.138000
     50 H132        1.2950   -0.9320    4.4850 hn        1 1AO      0.479300
@<TRIPOS>BOND
     1    1    2 ar  
     2    1    6 ar  
     3    1   30 1   
     4    2    3 ar  
     5    2   31 1   
     6    3    4 ar  
     7    3   32 1   
     8    4    5 ar  
     9    4   13 1   
    10    5    6 ar  
    11    5    7 1   
    12    6   33 1   
    13    7    8 1   
    14    7   12 1   
    15    8    9 1   
    16    8   34 1   
    17    8   35 1   
    18    9   10 1   
    19    9   36 1   
    20    9   37 1   
    21   10   11 1   
    22   10   38 1   
    23   11   12 1   
    24   11   39 1   
    25   11   40 1   
    26   12   41 1   
    27   12   42 1   
    28   13   14 1   
    29   13   43 1   
    30   13   50 1   
    31   14   15 2   
    32   14   16 1   
    33   16   17 1   
    34   16   20 2   
    35   17   18 2   
    36   18   19 1   
    37   18   21 1   
    38   19   20 1   
    39   20   44 1   
    40   21   22 1   
    41   21   29 1   
    42   22   23 2   
    43   23   24 1   
    44   23   45 1   
    45   24   25 ar  
    46   24   29 ar  
    47   25   26 ar  
    48   25   46 1   
    49   26   27 ar  
    50   26   47 1   
    51   27   28 ar  
    52   27   48 1   
    53   28   29 ar  
    54   28   49 1   
@<TRIPOS>SUBSTRUCTURE
     1 1AO         1 TEMP              0 ****  ****    0 ROOT
