@<TRIPOS>MOLECULE
1AO
   49    53     1     0     0
SMALL
bcc


@<TRIPOS>ATOM
      1 C01         0.4760   -0.5140    0.1360 ca        1 1AO     -0.150000
      2 C02         1.7380    0.0660    0.0360 ca        1 1AO     -0.108000
      3 C03         2.4400    0.4310    1.1780 ca        1 1AO     -0.153000
      4 C04         1.8930    0.2290    2.4650 ca        1 1AO      0.088600
      5 C05         0.5950   -0.3700    2.5670 ca        1 1AO      0.036600
      6 C06        -0.0840   -0.7280    1.3890 ca        1 1AO     -0.131000
      7 N07         0.0220   -0.5930    3.8660 nh        1 1AO     -0.631000
      8 C08        -0.2560   -2.0010    4.1280 c3        1 1AO      0.172300
      9 C09        -0.8680   -2.2280    5.5250 c3        1 1AO      0.160300
     10 N10        -2.0080   -1.3720    5.7860 n3        1 1AO     -0.820200
     11 C11        -1.7460    0.0270    5.5120 c3        1 1AO      0.160300
     12 C12        -1.1350    0.2620    4.1170 c3        1 1AO      0.172300
     13 N13         2.6030    0.5680    3.6290 n         1 1AO     -0.443100
     14 C14         3.6080    1.5140    3.7150 c         1 1AO      0.600600
     15 O15         4.0460    2.1510    2.7360 o         1 1AO     -0.600100
     16 C16         4.1950    1.7760    5.0650 cc        1 1AO      0.296800
     17 N17         3.9490    0.9890    6.1810 nc        1 1AO     -0.659000
     18 C18         4.6440    1.4880    7.2240 cd        1 1AO      0.501900
     19 S19         5.5770    2.9110    6.8460 ss        1 1AO      0.022700
     20 C20         5.0540    2.8540    5.2770 cd        1 1AO     -0.230400
     21 N21         4.6900    0.9240    8.5090 na        1 1AO      0.061100
     22 N22         4.9960    1.7030    9.5910 nc        1 1AO     -0.518100
     23 C23         4.6700    1.0320   10.7010 cd        1 1AO      0.389800
     24 C24         4.0540   -0.2510   10.3660 ca        1 1AO     -0.220900
     25 C25         3.5490   -1.3250   11.0890 ca        1 1AO     -0.064000
     26 C26         3.0430   -2.4120   10.3850 ca        1 1AO     -0.153000
     27 C27         3.0460   -2.4360    8.9820 ca        1 1AO     -0.102000
     28 C28         3.5490   -1.3820    8.2250 ca        1 1AO     -0.114000
     29 C29         4.0520   -0.2790    8.9220 ca        1 1AO     -0.019200
     30 H1         -0.0770   -0.8000   -0.7700 ha        1 1AO      0.133000
     31 H2          2.1900    0.2390   -0.9530 ha        1 1AO      0.135000
     32 H3          3.4360    0.8910    1.0680 ha        1 1AO      0.170000
     33 H4         -1.0850   -1.1850    1.4590 ha        1 1AO      0.135000
     34 H5         -0.9490   -2.4440    3.3550 h1        1 1AO      0.043200
     35 H6          0.7210   -2.5570    4.0770 h1        1 1AO      0.043200
     36 H7         -1.2240   -3.2950    5.5760 h1        1 1AO      0.034950
     37 H8         -0.0520   -2.0990    6.2950 h1        1 1AO      0.034950
     38 H9         -2.3110   -1.4850    6.7360 hn        1 1AO      0.363800
     39 H11        -2.7320    0.5710    5.5530 h1        1 1AO      0.034950
     40 H12        -1.0630    0.4920    6.2820 h1        1 1AO      0.034950
     41 H13        -0.7900    1.3310    4.0590 h1        1 1AO      0.043200
     42 H14        -1.9380    0.1120    3.3380 h1        1 1AO      0.043200
     43 H15         2.2550    0.1790    4.4810 hn        1 1AO      0.352500
     44 H16         5.3360    3.5580    4.4900 h4        1 1AO      0.209000
     45 H17         4.8640    1.4270   11.7000 h4        1 1AO      0.061800
     46 H18         3.5540   -1.3120   12.1880 ha        1 1AO      0.141000
     47 H19         2.6340   -3.2730   10.9350 ha        1 1AO      0.137000
     48 H20         2.6390   -3.3180    8.4620 ha        1 1AO      0.137000
     49 H21         3.5470   -1.4230    7.1270 ha        1 1AO      0.165000
@<TRIPOS>BOND
     1    1    2 ar  
     2    1    6 ar  
     3    1   30 1   
     4    2    3 ar  
     5    2   31 1   
     6    3    4 ar  
     7    3   32 1   
     8    4    5 ar  
     9    4   13 1   
    10    5    6 ar  
    11    5    7 1   
    12    6   33 1   
    13    7    8 1   
    14    7   12 1   
    15    8    9 1   
    16    8   34 1   
    17    8   35 1   
    18    9   10 1   
    19    9   36 1   
    20    9   37 1   
    21   10   11 1   
    22   10   38 1   
    23   11   12 1   
    24   11   39 1   
    25   11   40 1   
    26   12   41 1   
    27   12   42 1   
    28   13   14 1   
    29   13   43 1   
    30   14   15 2   
    31   14   16 1   
    32   16   17 1   
    33   16   20 2   
    34   17   18 2   
    35   18   19 1   
    36   18   21 1   
    37   19   20 1   
    38   20   44 1   
    39   21   22 1   
    40   21   29 1   
    41   22   23 2   
    42   23   24 1   
    43   23   45 1   
    44   24   25 ar  
    45   24   29 ar  
    46   25   26 ar  
    47   25   46 1   
    48   26   27 ar  
    49   26   47 1   
    50   27   28 ar  
    51   27   48 1   
    52   28   29 ar  
    53   28   49 1   
@<TRIPOS>SUBSTRUCTURE
     1 1AO         1 TEMP              0 ****  ****    0 ROOT
