@<TRIPOS>MOLECULE
1AO
   49    53     1     0     0
SMALL
bcc


@<TRIPOS>ATOM
      1 C01         0.4240   -0.4250    0.1430 ca        1 1AO     -0.150000
      2 C02         1.6760    0.1750    0.0410 ca        1 1AO     -0.108000
      3 C03         2.3860    0.5250    1.1830 ca        1 1AO     -0.153000
      4 C04         1.8590    0.2870    2.4710 ca        1 1AO      0.088600
      5 C05         0.5700   -0.3330    2.5760 ca        1 1AO      0.036600
      6 C06        -0.1180   -0.6750    1.3980 ca        1 1AO     -0.131000
      7 N07         0.0170   -0.5920    3.8770 nh        1 1AO     -0.631000
      8 C08        -0.2380   -2.0090    4.1090 c3        1 1AO      0.172300
      9 C09        -0.8300   -2.2760    5.5090 c3        1 1AO      0.159800
     10 N10        -1.9780   -1.4420    5.8030 n7        1 1AO     -0.820200
     11 C11        -1.7390   -0.0340    5.5580 c3        1 1AO      0.159800
     12 C12        -1.1490    0.2400    4.1600 c3        1 1AO      0.172300
     13 N13         2.5780    0.6120    3.6340 ns        1 1AO     -0.443100
     14 C14         3.5700    1.5710    3.7280 c         1 1AO      0.600600
     15 O15         3.9880    2.2330    2.7570 o         1 1AO     -0.600100
     16 C16         4.1690    1.8130    5.0770 cc        1 1AO      0.296800
     17 N17         3.9390    1.0050    6.1810 nc        1 1AO     -0.659000
     18 C18         4.6410    1.4910    7.2260 cd        1 1AO      0.501900
     19 S19         5.5610    2.9270    6.8640 ss        1 1AO      0.022700
     20 C20         5.0220    2.8940    5.2990 cd        1 1AO     -0.230400
     21 N21         4.7040    0.9060    8.5000 na        1 1AO      0.061100
     22 N22         5.0220    1.6670    9.5920 nc        1 1AO     -0.518100
     23 C23         4.7120    0.9750   10.6940 cd        1 1AO      0.389800
     24 C24         4.0970   -0.3040   10.3440 ca        1 1AO     -0.221900
     25 C25         3.6060   -1.3920   11.0550 ca        1 1AO     -0.064000
     26 C26         3.0940   -2.4690   10.3390 ca        1 1AO     -0.153000
     27 C27         3.0790   -2.4690    8.9350 ca        1 1AO     -0.102000
     28 C28         3.5680   -1.4000    8.1910 ca        1 1AO     -0.115000
     29 C29         4.0770   -0.3070    8.9000 ca        1 1AO     -0.019200
     30 H1         -0.1360   -0.7000   -0.7620 ha        1 1AO      0.133000
     31 H2          2.1130    0.3760   -0.9490 ha        1 1AO      0.135000
     32 H3          3.3750    1.0030    1.0710 ha        1 1AO      0.170000
     33 H4         -1.1110   -1.1470    1.4700 ha        1 1AO      0.135000
     34 H5          0.7450   -2.5510    4.0340 h1        1 1AO      0.043200
     35 H6         -0.9350   -2.4450    3.3360 h1        1 1AO      0.043200
     36 H7         -0.0050   -2.1530    6.2710 h1        1 1AO      0.034950
     37 H8         -1.1700   -3.3480    5.5400 h1        1 1AO      0.034950
     38 H9         -2.2670   -1.5810    6.7540 hn        1 1AO      0.363800
     39 H11        -2.7310    0.4950    5.6220 h1        1 1AO      0.034950
     40 H12        -1.0530    0.4240    6.3290 h1        1 1AO      0.034950
     41 H13        -0.8190    1.3150    4.1220 h1        1 1AO      0.043200
     42 H14        -1.9600    0.0970    3.3890 h1        1 1AO      0.043200
     43 H15         2.2440    0.2010    4.4820 hn        1 1AO      0.352500
     44 H16         5.2910    3.6130    4.5210 h4        1 1AO      0.209000
     45 H17         4.9180    1.3530   11.6980 h4        1 1AO      0.061800
     46 H18         3.6250   -1.3980   12.1540 ha        1 1AO      0.141000
     47 H19         2.6960   -3.3410   10.8790 ha        1 1AO      0.137000
     48 H20         2.6690   -3.3430    8.4060 ha        1 1AO      0.137000
     49 H21         3.5520   -1.4220    7.0930 ha        1 1AO      0.165000
@<TRIPOS>BOND
     1    1    2 ar  
     2    1    6 ar  
     3    1   30 1   
     4    2    3 ar  
     5    2   31 1   
     6    3    4 ar  
     7    3   32 1   
     8    4    5 ar  
     9    4   13 1   
    10    5    6 ar  
    11    5    7 1   
    12    6   33 1   
    13    7    8 1   
    14    7   12 1   
    15    8    9 1   
    16    8   34 1   
    17    8   35 1   
    18    9   10 1   
    19    9   36 1   
    20    9   37 1   
    21   10   11 1   
    22   10   38 1   
    23   11   12 1   
    24   11   39 1   
    25   11   40 1   
    26   12   41 1   
    27   12   42 1   
    28   13   14 1   
    29   13   43 1   
    30   14   15 2   
    31   14   16 1   
    32   16   17 1   
    33   16   20 2   
    34   17   18 2   
    35   18   19 1   
    36   18   21 1   
    37   19   20 1   
    38   20   44 1   
    39   21   22 1   
    40   21   29 1   
    41   22   23 2   
    42   23   24 1   
    43   23   45 1   
    44   24   25 ar  
    45   24   29 ar  
    46   25   26 ar  
    47   25   46 1   
    48   26   27 ar  
    49   26   47 1   
    50   27   28 ar  
    51   27   48 1   
    52   28   29 ar  
    53   28   49 1   
@<TRIPOS>SUBSTRUCTURE
     1 1AO         1 TEMP              0 ****  ****    0 ROOT
