@<TRIPOS>MOLECULE
1AO
   49    42     1     0     0
SMALL
bcc


@<TRIPOS>ATOM
      1 C01        -1.3580   -1.5140   -5.8840 c1        1 1AO     -0.156000
      2 C02        -0.0320   -1.1310   -5.5610 c1        1 1AO     -0.114167
      3 C03         0.3530   -0.9910   -4.2280 c1        1 1AO     -0.114167
      4 C04        -0.5400   -1.2210   -3.2350 c1        1 1AO      0.057000
      5 C05        -1.9230   -1.6210   -3.5690 c1        1 1AO     -0.014000
      6 C06        -2.2850   -1.7540   -4.8700 c2        1 1AO     -0.092000
      7 N07        -3.0250   -1.5950   -2.4940 n2        1 1AO     -0.277000
      8 C08        -3.1140   -2.8460   -1.8510 c3        1 1AO     -0.041000
      9 C09        -4.1340   -2.8520   -0.7400 c3        1 1AO     -0.080500
     10 N10        -3.9420   -1.8060    0.1570 n3        1 1AO     -0.303000
     11 C11        -3.8410   -0.5260   -0.5000 c3        1 1AO     -0.080500
     12 C12        -2.8300   -0.5300   -1.5970 c3        1 1AO     -0.041000
     13 N13        -0.1200   -1.0740   -1.8630 n2        1 1AO     -0.314000
     14 C14         1.3300   -0.3300   -1.5550 c1        1 1AO      0.386000
     15 O15         2.0300    0.0880   -2.5080 o         1 1AO     -0.355000
     16 C16         1.8550   -0.2250   -0.1270 c1        1 1AO     -0.123000
     17 N17         1.6040    0.9830    0.8370 n2        1 1AO     -0.141000
     18 C18         2.5100    0.8800    1.9390 c1        1 1AO     -0.131000
     19 S19         3.3710   -0.3860    1.7290 ss        1 1AO      0.605000
     20 C20         2.9250   -1.0350    0.4340 c1        1 1AO     -0.434000
     21 N21         2.4870    1.6590    3.0800 n2        1 1AO     -0.077500
     22 N22         1.2460    1.4120    3.6200 n2        1 1AO     -0.077500
     23 C23         1.1460    2.1020    4.7680 c1        1 1AO     -0.042000
     24 C24         2.3240    2.7900    4.9580 c1        1 1AO     -0.140000
     25 C25         2.7500    3.6690    5.9640 c1        1 1AO     -0.114167
     26 C26         4.0030    4.2510    5.8900 c1        1 1AO     -0.114167
     27 C27         4.8360    3.9650    4.8230 c1        1 1AO     -0.114167
     28 C28         4.4190    3.1010    3.8340 c1        1 1AO     -0.114167
     29 C29         3.1450    2.5090    3.9080 c1        1 1AO     -0.042000
     30 H1         -1.6180   -1.6090   -6.7990 ha        1 1AO      0.134000
     31 H2          0.5830   -0.9720   -6.2420 ha        1 1AO      0.149000
     32 H3          1.2380   -0.7350   -4.0160 ha        1 1AO      0.149000
     33 H4         -3.2010   -2.0190   -5.0980 ha        1 1AO      0.143000
     34 H5         -3.3640   -3.5530   -2.5360 h1        1 1AO      0.079500
     35 H6         -2.2230   -3.0700   -1.4650 h1        1 1AO      0.079500
     36 H7         -5.0280   -2.7720   -1.1340 h1        1 1AO      0.075000
     37 H8         -4.0740   -3.7120   -0.2490 h1        1 1AO      0.075000
     38 H9         -4.6710   -1.7890    0.7920 hn        1 1AO      0.156000
     39 H11        -4.7090   -0.2940   -0.8760 h1        1 1AO      0.075000
     40 H12        -3.5760    0.1860    0.1940 h1        1 1AO      0.075000
     41 H13        -1.9850   -0.5980   -1.2260 h1        1 1AO      0.079500
     42 H14        -2.8910    0.2730   -2.0680 h1        1 1AO      0.079500
     43 H15        -0.5250   -1.5810   -1.2030 hn        1 1AO      0.253000
     44 H16         3.2920   -1.8510    0.0470 DU        1 1AO      0.199500
     45 H17         0.3720    2.1130    5.3630 DU        1 1AO      0.199500
     46 H18         2.1620    3.8710    6.7150 ha        1 1AO      0.149000
     47 H19         4.3000    4.8640    6.5890 ha        1 1AO      0.149000
     48 H20         5.7200    4.3760    4.7700 ha        1 1AO      0.149000
     49 H21         5.0060    2.9010    3.0850 ha        1 1AO      0.149000
@<TRIPOS>BOND
     1    1    6 1   
     2    1   30 1   
     3    2    3 1   
     4    2   31 1   
     5    3   32 1   
     6    4    5 1   
     7    5    6 1   
     8    6   33 1   
     9    7    8 1   
    10    7   12 1   
    11    8    9 1   
    12    8   34 1   
    13    8   35 1   
    14    9   10 1   
    15    9   36 1   
    16    9   37 1   
    17   10   11 1   
    18   10   38 1   
    19   11   12 1   
    20   11   39 1   
    21   11   40 1   
    22   12   41 1   
    23   12   42 1   
    24   13   14 1   
    25   13   43 1   
    26   14   15 1   
    27   16   17 1   
    28   16   20 1   
    29   17   18 1   
    30   18   19 1   
    31   19   20 1   
    32   21   22 1   
    33   21   29 1   
    34   22   23 1   
    35   23   24 1   
    36   24   29 1   
    37   25   26 1   
    38   25   46 1   
    39   26   47 1   
    40   27   28 1   
    41   27   48 1   
    42   28   49 1   
@<TRIPOS>SUBSTRUCTURE
     1 1AO         1 TEMP              0 ****  ****    0 ROOT
