@<TRIPOS>MOLECULE
1AO
   49    53     1     0     0
SMALL
bcc


@<TRIPOS>ATOM
      1 C01         5.7270    1.4710    0.4540 ca        1 1AO     -0.152000
      2 C02         5.2030    2.5590   -0.2390 ca        1 1AO     -0.106000
      3 C03         3.8730    2.5700   -0.6380 ca        1 1AO     -0.157000
      4 C04         3.0180    1.4840   -0.3500 ca        1 1AO      0.092600
      5 C05         3.5590    0.3600    0.3590 ca        1 1AO      0.036600
      6 C06         4.9100    0.3860    0.7470 ca        1 1AO     -0.130000
      7 N07         2.7110   -0.7630    0.6460 nh        1 1AO     -0.634000
      8 C08         2.3640   -0.8640    2.0590 c3        1 1AO      0.138800
      9 C09         1.4280   -2.0600    2.3400 c3        1 1AO      0.147800
     10 N10         1.8680   -3.3240    1.7850 n3        1 1AO     -0.800200
     11 C11         2.2540   -3.1970    0.3940 c3        1 1AO      0.147800
     12 C12         3.2000   -2.0150    0.0840 c3        1 1AO      0.138800
     13 N13         1.6740    1.4640   -0.7590 n         1 1AO     -0.444100
     14 C14         0.9010    2.5620   -1.0950 c         1 1AO      0.601600
     15 O15         1.3490    3.7190   -1.2150 o         1 1AO     -0.598100
     16 C16        -0.5520    2.3160   -1.3500 cc        1 1AO      0.297800
     17 N17        -1.1880    1.1210   -1.0400 nc        1 1AO     -0.667000
     18 C18        -2.4930    1.2260   -1.3610 cd        1 1AO      0.510900
     19 S19        -2.9370    2.7670   -2.0480 ss        1 1AO      0.016700
     20 C20        -1.3720    3.2970   -1.9050 cd        1 1AO     -0.229400
     21 N21        -3.4520    0.2280   -1.1370 na        1 1AO      0.059100
     22 N22        -4.6690    0.2780   -1.7580 nc        1 1AO     -0.519100
     23 C23        -5.2730   -0.9040   -1.5940 cd        1 1AO      0.390800
     24 C24        -4.4080   -1.8310   -0.8680 ca        1 1AO     -0.222900
     25 C25        -4.5140   -3.1450   -0.4280 ca        1 1AO     -0.065000
     26 C26        -3.4390   -3.6980    0.2600 ca        1 1AO     -0.152000
     27 C27        -2.2760   -2.9540    0.5130 ca        1 1AO     -0.101000
     28 C28        -2.1390   -1.6340    0.0940 ca        1 1AO     -0.118000
     29 C29        -3.2090   -1.0690   -0.6060 ca        1 1AO     -0.017200
     30 H1          6.7800    1.4680    0.7700 ha        1 1AO      0.133000
     31 H2          5.8440    3.4220   -0.4760 ha        1 1AO      0.136000
     32 H3          3.4860    3.4480   -1.1840 ha        1 1AO      0.173000
     33 H4          5.3310   -0.4700    1.2990 ha        1 1AO      0.130000
     34 H5          3.2830   -0.9560    2.7080 h1        1 1AO      0.040700
     35 H6          1.8320    0.0850    2.3490 h1        1 1AO      0.040700
     36 H7          1.3210   -2.1650    3.4540 h1        1 1AO      0.058950
     37 H8          0.4110   -1.8390    1.9070 h1        1 1AO      0.058950
     38 H9          2.6400   -3.6810    2.3210 hn        1 1AO      0.349800
     39 H11         2.7610   -4.1450    0.0650 h1        1 1AO      0.058950
     40 H12         1.3100   -3.0760   -0.2080 h1        1 1AO      0.058950
     41 H13         3.2610   -1.8870   -1.0320 h1        1 1AO      0.040700
     42 H14         4.2340   -2.2700    0.4580 h1        1 1AO      0.040700
     43 H15         1.2060    0.5860   -0.6550 hn        1 1AO      0.353500
     44 H16        -1.0120    4.2860   -2.1960 h4        1 1AO      0.208000
     45 H17        -6.2810   -1.1000   -1.9660 h4        1 1AO      0.061800
     46 H18        -5.4260   -3.7280   -0.6190 ha        1 1AO      0.140000
     47 H19        -3.4960   -4.7380    0.6140 ha        1 1AO      0.138000
     48 H20        -1.4430   -3.4270    1.0590 ha        1 1AO      0.148000
     49 H21        -1.2190   -1.0720    0.3090 ha        1 1AO      0.166000
@<TRIPOS>BOND
     1    1    2 ar  
     2    1    6 ar  
     3    1   30 1   
     4    2    3 ar  
     5    2   31 1   
     6    3    4 ar  
     7    3   32 1   
     8    4    5 ar  
     9    4   13 1   
    10    5    6 ar  
    11    5    7 1   
    12    6   33 1   
    13    7    8 1   
    14    7   12 1   
    15    8    9 1   
    16    8   34 1   
    17    8   35 1   
    18    9   10 1   
    19    9   36 1   
    20    9   37 1   
    21   10   11 1   
    22   10   38 1   
    23   11   12 1   
    24   11   39 1   
    25   11   40 1   
    26   12   41 1   
    27   12   42 1   
    28   13   14 1   
    29   13   43 1   
    30   14   15 2   
    31   14   16 1   
    32   16   17 1   
    33   16   20 2   
    34   17   18 2   
    35   18   19 1   
    36   18   21 1   
    37   19   20 1   
    38   20   44 1   
    39   21   22 1   
    40   21   29 1   
    41   22   23 2   
    42   23   24 1   
    43   23   45 1   
    44   24   25 ar  
    45   24   29 ar  
    46   25   26 ar  
    47   25   46 1   
    48   26   27 ar  
    49   26   47 1   
    50   27   28 ar  
    51   27   48 1   
    52   28   29 ar  
    53   28   49 1   
@<TRIPOS>SUBSTRUCTURE
     1 1AO         1 TEMP              0 ****  ****    0 ROOT
