@<TRIPOS>MOLECULE
1AP
   36    38     1     0     0
SMALL
bcc


@<TRIPOS>ATOM
      1 N1         -0.5960    0.0240    5.5820 nb        1 1AP     -0.837000
      2 C2          0.6080    0.5650    5.1430 ca        1 1AP      0.849900
      3 C4          0.2330    0.0870    2.9330 ca        1 1AP      0.463800
      4 C5         -1.0390   -0.5480    3.2760 ca        1 1AP     -0.230200
      5 C6         -1.4030   -0.5670    4.6530 ca        1 1AP      0.726200
      6 C8         -0.8450   -0.6670    1.1090 cc        1 1AP      0.456700
      7 N2          1.4800    1.0460    6.1640 nh        1 1AP     -0.901500
      8 N3          1.0720    0.6490    3.8500 nb        1 1AP     -0.760000
      9 N9          0.3390   -0.0220    1.5420 na        1 1AP     -0.264000
     10 N7         -1.6760   -1.0020    2.1110 nd        1 1AP     -0.586100
     11 N6         -2.5630   -1.2300    5.0530 nh        1 1AP     -0.932500
     12 P          -0.2470   -0.9640   -4.5160 p5        1 1AP      1.330900
     13 OP1        -0.3070   -0.5240   -5.9450 o         1 1AP     -0.930833
     14 OP2        -1.4150   -1.7200   -3.9520 o         1 1AP     -0.930833
     15 O5'        -0.3450    0.5320   -3.6180 os        1 1AP     -0.554200
     16 C5'        -0.3850    0.3550   -2.2640 c3        1 1AP      0.227400
     17 C4'         0.9940    0.6620   -1.6320 c3        1 1AP      0.052100
     18 O4'         0.8130    1.3090   -0.3430 os        1 1AP     -0.435600
     19 C1'         1.3940    0.5440    0.7000 c3        1 1AP      0.252800
     20 C2'         2.3100   -0.5200    0.0590 c3        1 1AP     -0.130400
     21 C3'         1.8730   -0.5860   -1.4130 c3        1 1AP      0.156100
     22 O3'         3.0220   -0.5520   -2.2270 oh        1 1AP     -0.671800
     23 OP3         1.0970   -1.4300   -3.9930 o         1 1AP     -0.930833
     24 H81        -1.0180   -0.8420    0.0290 h5        1 1AP      0.126800
     25 HN21        0.9950    1.3560    6.9790 hn        1 1AP      0.387300
     26 HN22        2.1360    1.7200    5.8320 hn        1 1AP      0.387300
     27 HN61       -2.9480   -0.9710    5.9310 hn        1 1AP      0.410800
     28 HN62       -3.2240   -1.3780    4.3230 hn        1 1AP      0.410800
     29 H52        -1.1230    1.0770   -1.8040 h1        1 1AP     -0.004300
     30 H51        -0.6970   -0.6990   -2.0060 h1        1 1AP     -0.004300
     31 H4          1.5340    1.4170   -2.2640 h1        1 1AP      0.080700
     32 H11         1.9680    1.2670    1.3490 h2        1 1AP      0.072700
     33 H21         3.3700   -0.1740    0.1330 hc        1 1AP      0.054200
     34 H22         2.2300   -1.5170    0.5480 hc        1 1AP      0.054200
     35 H31         1.2890   -1.5250   -1.6260 h1        1 1AP      0.101700
     36 HO31        2.7090   -0.8210   -3.1220 ho        1 1AP      0.501000
@<TRIPOS>BOND
     1    1    2 ar  
     2    1    5 ar  
     3    2    7 1   
     4    2    8 ar  
     5    3    4 ar  
     6    3    8 ar  
     7    3    9 1   
     8    4    5 ar  
     9    4   10 1   
    10    5   11 1   
    11    6    9 1   
    12    6   10 2   
    13    6   24 1   
    14    7   25 1   
    15    7   26 1   
    16    9   19 1   
    17   11   27 1   
    18   11   28 1   
    19   12   13 1   
    20   12   14 1   
    21   12   15 1   
    22   12   23 1   
    23   15   16 1   
    24   16   17 1   
    25   16   29 1   
    26   16   30 1   
    27   17   18 1   
    28   17   21 1   
    29   17   31 1   
    30   18   19 1   
    31   19   20 1   
    32   19   32 1   
    33   20   21 1   
    34   20   33 1   
    35   20   34 1   
    36   21   22 1   
    37   21   35 1   
    38   22   36 1   
@<TRIPOS>SUBSTRUCTURE
     1 1AP         1 TEMP              0 ****  ****    0 ROOT
