@<TRIPOS>MOLECULE
1AP
   36    30     1     0     0
SMALL
bcc


@<TRIPOS>ATOM
      1 N1         -2.5510   -0.2310   -4.0670 n1        1 1AP     -0.270000
      2 C2         -1.1660   -0.3150   -4.1430 c1        1 1AP      0.165500
      3 C4         -1.0100    0.0320   -1.8180 c1        1 1AP     -0.084000
      4 C5         -2.3800    0.1130   -1.7510 c1        1 1AP     -0.084000
      5 C6         -3.1410   -0.0220   -2.8980 c1        1 1AP      0.165500
      6 C8         -1.5830    0.3760    0.2510 c1        1 1AP      0.003000
      7 N2         -0.6350   -0.5260   -5.4750 n3        1 1AP     -0.314000
      8 N3         -0.4070   -0.1810   -3.0040 n1        1 1AP     -0.270000
      9 N9         -0.5320    0.1940   -0.5900 n1        1 1AP     -0.170500
     10 N7         -2.7180    0.3240   -0.4800 n1        1 1AP     -0.170500
     11 N6         -4.6440   -0.0440   -3.0270 n3        1 1AP     -0.314000
     12 P           1.7650   -1.6090    5.3320 p3        1 1AP      2.523000
     13 OP1         1.7730   -3.0790    5.7580 os        1 1AP     -1.228000
     14 OP2         0.6180   -0.9190    5.9630 o         1 1AP     -1.261000
     15 O5'         1.6390   -1.5170    3.7750 os        1 1AP     -0.715000
     16 C5'         1.3960   -0.2110    3.1770 c3        1 1AP      0.077000
     17 C4'         1.7110   -0.2600    1.6630 c3        1 1AP     -0.059000
     18 O4'         0.7760   -0.8420    1.0480 os        1 1AP     -0.292000
     19 C1'         0.7020   -0.1400   -0.3210 c2        1 1AP      0.163000
     20 C2'         1.5570    1.1080   -0.1960 c3        1 1AP     -0.208000
     21 C3'         1.7870    1.2260    1.0600 c3        1 1AP      0.045000
     22 O3'         3.1230    1.7930    1.2790 oh        1 1AP     -0.400000
     23 OP3         3.0050   -0.9720    5.7550 o         1 1AP     -1.261000
     24 H81        -1.5260    0.5290    1.2240 DU        1 1AP      0.256000
     25 HN21        0.2430   -0.3750   -5.6410 hn        1 1AP      0.193750
     26 HN22       -1.2180   -0.7400   -6.1860 hn        1 1AP      0.193750
     27 HN61       -5.0380   -0.0050   -3.8680 hn        1 1AP      0.193750
     28 HN62       -5.1610   -0.0280   -2.2850 hn        1 1AP      0.193750
     29 H52         0.4580    0.0360    3.3040 h1        1 1AP      0.034500
     30 H51         1.9860    0.4680    3.6180 h1        1 1AP      0.034500
     31 H4          2.5240   -0.7090    1.5160 h1        1 1AP      0.120000
     32 H11         1.0880   -0.7760   -1.0800 h4        1 1AP      0.110000
     33 H21         2.3840    0.9950   -0.6760 hc        1 1AP      0.092500
     34 H22         1.0720    1.8870   -0.5300 hc        1 1AP      0.092500
     35 H31         1.0530    1.8360    1.5050 h1        1 1AP      0.142000
     36 HO31        3.0510    2.5840    1.8060 ho        1 1AP      0.300000
@<TRIPOS>BOND
     1    1    5 1   
     2    2    7 1   
     3    2    8 1   
     4    3    4 1   
     5    5   11 1   
     6    6    9 1   
     7    6   10 1   
     8    7   25 1   
     9    7   26 1   
    10   11   27 1   
    11   11   28 1   
    12   12   14 1   
    13   12   15 1   
    14   12   23 1   
    15   15   16 1   
    16   16   17 1   
    17   16   29 1   
    18   16   30 1   
    19   17   18 1   
    20   17   21 1   
    21   17   31 1   
    22   18   19 1   
    23   19   20 1   
    24   19   32 1   
    25   20   21 1   
    26   20   33 1   
    27   20   34 1   
    28   21   22 1   
    29   21   35 1   
    30   22   36 1   
@<TRIPOS>SUBSTRUCTURE
     1 1AP         1 TEMP              0 ****  ****    0 ROOT
