@<TRIPOS>MOLECULE
1AR
   30    30     1     0     0
SMALL
bcc


@<TRIPOS>ATOM
      1 O1          0.8720    0.0770   -3.7400 oh        1 1AR     -0.588800
      2 C1          0.3950   -0.3990   -2.5110 c3        1 1AR      0.344900
      3 C2         -0.8440    0.3520   -2.0340 c3        1 1AR     -0.170400
      4 C3         -1.2010   -0.0210   -0.5930 c3        1 1AR      0.150800
      5 O3         -2.1260    0.9360   -0.0790 oh        1 1AR     -0.592800
      6 CC3        -1.7990   -1.4180   -0.5180 c3        1 1AR     -0.120100
      7 C4          0.0560    0.1310    0.2970 c3        1 1AR      0.121100
      8 O4         -0.2420   -0.4870    1.5570 os        1 1AR     -0.437900
      9 CME        -0.5150   -0.4890    3.9160 c3        1 1AR     -0.150100
     10 CO4        -0.0140    0.2230    2.7080 c         1 1AR      0.641100
     11 OC4         0.5610    1.3090    2.6420 o         1 1AR     -0.534000
     12 C5          1.2770   -0.5940   -0.3030 c3        1 1AR      0.144100
     13 O5          1.5030   -0.1710   -1.6470 os        1 1AR     -0.450600
     14 C6          2.5440   -0.2540    0.4600 c3        1 1AR     -0.092100
     15 HO1         1.3160    0.9230   -3.5810 ho        1 1AR      0.423000
     16 H1          0.2020   -1.5000   -2.6470 h2        1 1AR      0.073700
     17 H21        -0.6560    1.4560   -2.0870 hc        1 1AR      0.069200
     18 H22        -1.7010    0.1160   -2.7140 hc        1 1AR      0.069200
     19 HO3        -2.9460    0.8280   -0.5750 ho        1 1AR      0.403000
     20 HM31       -2.7000   -1.4880   -1.1730 hc        1 1AR      0.049367
     21 HM32       -1.0510   -2.1770   -0.8480 hc        1 1AR      0.049367
     22 HM33       -2.0990   -1.6420    0.5340 hc        1 1AR      0.049367
     23 H4          0.2780    1.2270    0.4290 h1        1 1AR      0.108700
     24 HM41        0.2400   -0.3980    4.7340 hc        1 1AR      0.076700
     25 HM42       -1.4700   -0.0060    4.2420 hc        1 1AR      0.076700
     26 HM43       -0.7070   -1.5670    3.6960 hc        1 1AR      0.076700
     27 H5          1.0910   -1.7040   -0.2910 h1        1 1AR      0.049700
     28 H61         3.3820   -0.9030    0.1160 hc        1 1AR      0.052367
     29 H62         2.8250    0.8130    0.2900 hc        1 1AR      0.052367
     30 H63         2.3650   -0.4120    1.5500 hc        1 1AR      0.052367
@<TRIPOS>BOND
     1    1    2 1   
     2    1   15 1   
     3    2    3 1   
     4    2   13 1   
     5    2   16 1   
     6    3    4 1   
     7    3   17 1   
     8    3   18 1   
     9    4    5 1   
    10    4    6 1   
    11    4    7 1   
    12    5   19 1   
    13    6   20 1   
    14    6   21 1   
    15    6   22 1   
    16    7    8 1   
    17    7   12 1   
    18    7   23 1   
    19    8   10 1   
    20    9   10 1   
    21    9   24 1   
    22    9   25 1   
    23    9   26 1   
    24   10   11 2   
    25   12   13 1   
    26   12   14 1   
    27   12   27 1   
    28   14   28 1   
    29   14   29 1   
    30   14   30 1   
@<TRIPOS>SUBSTRUCTURE
     1 1AR         1 TEMP              0 ****  ****    0 ROOT
