@<TRIPOS>MOLECULE
1AR
   30    30     1     0     0
SMALL
bcc


@<TRIPOS>ATOM
      1 O1         -3.7710   -1.0160   -0.7470 oh        1 1AR     -0.589800
      2 C1         -2.3960   -1.0720   -0.7690 c3        1 1AR      0.344900
      3 C2         -1.8960   -1.0750    0.6330 c3        1 1AR     -0.165400
      4 C3         -0.4240   -0.9490    0.7080 c3        1 1AR      0.135800
      5 O3          0.1430   -2.0950    0.2310 oh        1 1AR     -0.588800
      6 CC3        -0.0110   -0.7620    2.2150 c3        1 1AR     -0.125100
      7 C4          0.0880    0.2160   -0.0830 c3        1 1AR      0.125100
      8 O4          1.5430    0.1640   -0.1070 os        1 1AR     -0.418900
      9 CME         3.7010    1.4250    0.5780 c3        1 1AR     -0.150100
     10 CO4         2.1890    1.3540    0.4770 c         1 1AR      0.635100
     11 OC4         1.5220    2.2230    0.9360 o         1 1AR     -0.548000
     12 C5         -0.4260    0.2190   -1.4980 c3        1 1AR      0.155100
     13 O5         -1.8740    0.0920   -1.5630 os        1 1AR     -0.455600
     14 C6         -0.0130    1.5400   -2.1750 c3        1 1AR     -0.093100
     15 HO1        -4.0990   -1.4720   -1.4370 ho        1 1AR      0.420000
     16 H1         -2.1180   -1.9100   -1.2090 h2        1 1AR      0.084700
     17 H21        -2.1720   -1.9290    1.0720 hc        1 1AR      0.065200
     18 H22        -2.3070   -0.3110    1.1220 hc        1 1AR      0.065200
     19 HO3         0.0130   -2.7410    0.8020 ho        1 1AR      0.402000
     20 HM31       -0.4320   -1.4790    2.7690 hc        1 1AR      0.051367
     21 HM32        0.9760   -0.8170    2.2990 hc        1 1AR      0.051367
     22 HM33       -0.3170    0.1130    2.5280 hc        1 1AR      0.051367
     23 H4         -0.1910    1.0450    0.3570 h1        1 1AR      0.090700
     24 HM41        3.9500    1.8690    1.4100 hc        1 1AR      0.078033
     25 HM42        4.0680    0.5280    0.5670 hc        1 1AR      0.078033
     26 HM43        4.0530    1.9290   -0.1740 hc        1 1AR      0.078033
     27 H5         -0.0090   -0.5450   -1.9970 h1        1 1AR      0.071700
     28 H61         0.1220    2.2240   -1.4970 hc        1 1AR      0.050033
     29 H62         0.8020    1.4080   -2.6650 hc        1 1AR      0.050033
     30 H63        -0.7150    1.8230   -2.7840 hc        1 1AR      0.050033
@<TRIPOS>BOND
     1    1    2 1   
     2    1   15 1   
     3    2    3 1   
     4    2   13 1   
     5    2   16 1   
     6    3    4 1   
     7    3   17 1   
     8    3   18 1   
     9    4    5 1   
    10    4    6 1   
    11    4    7 1   
    12    5   19 1   
    13    6   20 1   
    14    6   21 1   
    15    6   22 1   
    16    7    8 1   
    17    7   12 1   
    18    7   23 1   
    19    8   10 1   
    20    9   10 1   
    21    9   24 1   
    22    9   25 1   
    23    9   26 1   
    24   10   11 2   
    25   12   13 1   
    26   12   14 1   
    27   12   27 1   
    28   14   28 1   
    29   14   29 1   
    30   14   30 1   
@<TRIPOS>SUBSTRUCTURE
     1 1AR         1 TEMP              0 ****  ****    0 ROOT
