@<TRIPOS>MOLECULE
1AT
   74    75     1     0     0
SMALL
bcc


@<TRIPOS>ATOM
      1 C5N         6.2330   -1.0380   -0.1830 c3        1 1AT     -0.078400
      2 C4N         4.8970   -0.6680    0.4240 c3        1 1AT     -0.079400
      3 C3N         3.8110   -1.6210   -0.0290 c3        1 1AT     -0.076400
      4 C2N         2.4760   -1.2360    0.5720 c3        1 1AT     -0.138400
      5 C1N         1.4140   -2.2230    0.2050 c         1 1AT      0.635100
      6 O1N         1.5220   -3.3840   -0.1950 o         1 1AT     -0.542000
      7 O6          0.1510   -1.7130    0.3660 os        1 1AT     -0.449900
      8 C6         -0.9380   -2.5900    0.0430 c3        1 1AT      0.143400
      9 C5         -2.2130   -1.7700    0.2260 c3        1 1AT      0.140100
     10 C4         -3.4060   -2.6970    0.5120 c3        1 1AT      0.125100
     11 C3         -4.6760   -1.8390    0.6180 c3        1 1AT      0.075100
     12 C2         -4.8800   -1.0160   -0.6600 c3        1 1AT      0.083100
     13 C1         -3.5840   -0.2940   -1.0880 c3        1 1AT      0.303900
     14 O5         -2.4230   -1.0840   -1.0130 os        1 1AT     -0.409600
     15 O1         -3.3800    0.7600   -0.1570 os        1 1AT     -0.453600
     16 C2'        -3.2680    2.0790   -0.6490 c3        1 1AT      0.311600
     17 C3'        -3.4280    3.0110    0.5880 c3        1 1AT      0.134100
     18 C4'        -1.9850    3.1400    1.1290 c3        1 1AT      0.081100
     19 C5'        -1.0790    2.7070   -0.0400 c3        1 1AT      0.075100
     20 O2'        -1.9210    2.2030   -1.0940 os        1 1AT     -0.437600
     21 C6'        -0.0910    1.6120    0.3600 c3        1 1AT      0.115400
     22 O6'         0.9010    1.4590   -0.6340 oh        1 1AT     -0.603800
     23 O4'        -1.7950    4.4960    1.4860 oh        1 1AT     -0.594800
     24 O3'        -4.3080    2.4010    1.5040 oh        1 1AT     -0.577800
     25 C1'        -4.2050    2.4510   -1.8070 c3        1 1AT      0.117400
     26 O1'        -3.7070    2.0450   -3.0610 oh        1 1AT     -0.591800
     27 O2         -5.9180   -0.0750   -0.4610 oh        1 1AT     -0.604800
     28 O3         -5.7560   -2.7360    0.8230 oh        1 1AT     -0.607800
     29 O4         -3.1460   -3.3570    1.7380 oh        1 1AT     -0.596800
     30 H1          6.5010   -2.0880    0.1080 hc        1 1AT      0.042700
     31 H2          6.1560   -1.0150   -1.3030 hc        1 1AT      0.042700
     32 H4          4.9740   -0.6890    1.5430 hc        1 1AT      0.040700
     33 H5          4.6260    0.3800    0.1290 hc        1 1AT      0.040700
     34 H6          3.7360   -1.6080   -1.1480 hc        1 1AT      0.056200
     35 H7          4.0700   -2.6710    0.2710 hc        1 1AT      0.056200
     36 H8          2.5440   -1.2080    1.6920 hc        1 1AT      0.087200
     37 H9          2.1610   -0.2130    0.2220 hc        1 1AT      0.087200
     38 H10        -0.8250   -2.9470   -1.0140 h1        1 1AT      0.076200
     39 H11        -0.9310   -3.4580    0.7530 h1        1 1AT      0.076200
     40 H12        -2.0940   -1.0210    1.0560 h1        1 1AT      0.082700
     41 H13        -3.5250   -3.4540   -0.3110 h1        1 1AT      0.061700
     42 H14        -4.5920   -1.1470    1.5040 h1        1 1AT      0.065700
     43 H15        -5.2390   -1.6740   -1.4990 h1        1 1AT      0.101700
     44 H16        -3.6280    0.0500   -2.1600 h2        1 1AT      0.125700
     45 H17        -3.8170    4.0180    0.2770 h1        1 1AT      0.075700
     46 H18        -1.8380    2.4780    2.0250 h1        1 1AT      0.070700
     47 H19        -0.5350    3.5840   -0.4860 h1        1 1AT      0.084700
     48 H20         0.4670    1.9170    1.2840 h1        1 1AT      0.066200
     49 H21        -0.6340    0.6410    0.5290 h1        1 1AT      0.066200
     50 H22         0.4610    1.0900   -1.4110 ho        1 1AT      0.419000
     51 H23        -0.8730    4.5920    1.7520 ho        1 1AT      0.414000
     52 H24        -4.3390    2.9800    2.2770 ho        1 1AT      0.417000
     53 H25        -5.1840    1.9090   -1.6860 h1        1 1AT      0.072700
     54 H26        -4.3710    3.5620   -1.8000 h1        1 1AT      0.072700
     55 H27        -2.8250    2.4290   -3.1660 ho        1 1AT      0.422000
     56 H28        -5.6070    0.5620    0.2030 ho        1 1AT      0.427000
     57 H29        -6.5660   -2.2160    0.7370 ho        1 1AT      0.423000
     58 H30        -3.9550   -3.8380    1.9650 ho        1 1AT      0.426000
     59 C7          7.3230   -0.0900    0.2700 c3        1 1AT     -0.078400
     60 C8          8.6590   -0.4590   -0.3380 c3        1 1AT     -0.079400
     61 C9          9.7490    0.4880    0.1160 c3        1 1AT     -0.079400
     62 C10        11.0860    0.1200   -0.4910 c3        1 1AT     -0.080400
     63 C11        12.1750    1.0600   -0.0420 c3        1 1AT     -0.092100
     64 H3          7.0540    0.9590   -0.0210 hc        1 1AT      0.039200
     65 H31         7.3990   -0.1130    1.3890 hc        1 1AT      0.039200
     66 H32         8.9280   -1.5090   -0.0470 hc        1 1AT      0.040700
     67 H33         8.5820   -0.4360   -1.4570 hc        1 1AT      0.040700
     68 H34         9.4810    1.5380   -0.1750 hc        1 1AT      0.038700
     69 H35         9.8260    0.4650    1.2350 hc        1 1AT      0.038700
     70 H36        11.3520   -0.9310   -0.2010 hc        1 1AT      0.038700
     71 H37        11.0070    0.1420   -1.6100 hc        1 1AT      0.038700
     72 H38        13.1510    0.7710   -0.5010 hc        1 1AT      0.032367
     73 H39        11.9400    2.1090   -0.3450 hc        1 1AT      0.032367
     74 H40        12.2860    1.0330    1.0690 hc        1 1AT      0.032367
@<TRIPOS>BOND
     1    1    2 1   
     2    1   30 1   
     3    1   31 1   
     4    1   59 1   
     5    2    3 1   
     6    2   32 1   
     7    2   33 1   
     8    3    4 1   
     9    3   34 1   
    10    3   35 1   
    11    4    5 1   
    12    4   36 1   
    13    4   37 1   
    14    5    6 2   
    15    5    7 1   
    16    7    8 1   
    17    8    9 1   
    18    8   38 1   
    19    8   39 1   
    20    9   10 1   
    21    9   14 1   
    22    9   40 1   
    23   10   11 1   
    24   10   29 1   
    25   10   41 1   
    26   11   12 1   
    27   11   28 1   
    28   11   42 1   
    29   12   13 1   
    30   12   27 1   
    31   12   43 1   
    32   13   14 1   
    33   13   15 1   
    34   13   44 1   
    35   15   16 1   
    36   16   17 1   
    37   16   20 1   
    38   16   25 1   
    39   17   18 1   
    40   17   24 1   
    41   17   45 1   
    42   18   19 1   
    43   18   23 1   
    44   18   46 1   
    45   19   20 1   
    46   19   21 1   
    47   19   47 1   
    48   21   22 1   
    49   21   48 1   
    50   21   49 1   
    51   22   50 1   
    52   23   51 1   
    53   24   52 1   
    54   25   26 1   
    55   25   53 1   
    56   25   54 1   
    57   26   55 1   
    58   27   56 1   
    59   28   57 1   
    60   29   58 1   
    61   59   60 1   
    62   59   64 1   
    63   59   65 1   
    64   60   61 1   
    65   60   66 1   
    66   60   67 1   
    67   61   62 1   
    68   61   68 1   
    69   61   69 1   
    70   62   63 1   
    71   62   70 1   
    72   62   71 1   
    73   63   72 1   
    74   63   73 1   
    75   63   74 1   
@<TRIPOS>SUBSTRUCTURE
     1 1AT         1 TEMP              0 ****  ****    0 ROOT
