@<TRIPOS>MOLECULE
1AT
   74    75     1     0     0
SMALL
bcc


@<TRIPOS>ATOM
      1 C5N        -3.3260    3.0440   -4.0710 c3        1 1AT     -0.079400
      2 C4N        -2.2670    1.9070   -4.0680 c3        1 1AT     -0.078400
      3 C3N        -1.8680    1.5820   -2.6240 c3        1 1AT     -0.079400
      4 C2N        -0.9180    0.3560   -2.6160 c3        1 1AT     -0.126400
      5 C1N        -0.3750    0.1250   -1.1880 c         1 1AT      0.633100
      6 O1N        -0.7930    0.7960   -0.2590 o         1 1AT     -0.530000
      7 O6          0.7060   -0.8270   -0.9720 os        1 1AT     -0.454900
      8 C6          1.1770   -0.8810    0.3790 c3        1 1AT      0.100400
      9 C5          2.6790   -0.7520    0.3930 c3        1 1AT      0.120100
     10 C4          3.2740   -1.8960   -0.3770 c3        1 1AT      0.080100
     11 C3          3.0980   -3.1900    0.3150 c3        1 1AT      0.103100
     12 C2          3.5700   -3.1410    1.7250 c3        1 1AT      0.143100
     13 C1          2.9730   -1.9810    2.4900 c3        1 1AT      0.301900
     14 O5          3.1450   -0.7130    1.8030 os        1 1AT     -0.438600
     15 O1          3.5880   -1.9030    3.7530 os        1 1AT     -0.402600
     16 C2'         2.6260   -2.1880    4.7700 c3        1 1AT      0.309600
     17 C3'         3.3410   -3.0290    6.0120 c3        1 1AT      0.127100
     18 C4'         2.4190   -3.6310    6.6030 c3        1 1AT      0.091100
     19 C5'         1.2890   -3.8500    5.5000 c3        1 1AT      0.113100
     20 O2'         1.7040   -2.9450    4.3040 os        1 1AT     -0.428600
     21 C6'         0.0640   -3.4700    5.9860 c3        1 1AT      0.119400
     22 O6'        -0.7240   -4.6380    6.2620 oh        1 1AT     -0.619800
     23 O4'         2.9100   -4.9530    7.1160 oh        1 1AT     -0.594800
     24 O3'         4.0120   -2.0920    6.9430 oh        1 1AT     -0.605800
     25 C1'         2.0230   -0.8990    5.2930 c3        1 1AT      0.141400
     26 O1'         1.9970   -0.9340    6.6860 oh        1 1AT     -0.593800
     27 O2          5.0050   -3.0100    1.7300 oh        1 1AT     -0.570800
     28 O3          1.7000   -3.5350    0.3050 oh        1 1AT     -0.593800
     29 O4          4.6970   -1.6490   -0.5600 oh        1 1AT     -0.593800
     30 H1         -3.0730    3.7340   -3.4000 hc        1 1AT      0.043700
     31 H2         -4.2190    2.6660   -3.8390 hc        1 1AT      0.043700
     32 H4         -1.4720    2.1990   -4.5700 hc        1 1AT      0.041200
     33 H5         -2.6390    1.1190   -4.4850 hc        1 1AT      0.041200
     34 H6         -1.4130    2.3490   -2.2330 hc        1 1AT      0.059200
     35 H7         -2.6710    1.3760   -2.1020 hc        1 1AT      0.059200
     36 H8         -0.1730    0.5190   -3.2230 hc        1 1AT      0.077200
     37 H9         -1.4100   -0.4420   -2.9110 hc        1 1AT      0.077200
     38 H10         0.7860   -0.1550    0.8880 h1        1 1AT      0.076200
     39 H11         0.9170   -1.7480    0.7850 h1        1 1AT      0.076200
     40 H12         2.9370    0.1120   -0.0590 h1        1 1AT      0.087700
     41 H13         2.8450   -1.9450   -1.2550 h1        1 1AT      0.052700
     42 H14         3.6100   -3.8930   -0.1740 h1        1 1AT      0.076700
     43 H15         3.3230   -3.9840    2.1760 h1        1 1AT      0.104700
     44 H16         2.0200   -2.1430    2.6140 h2        1 1AT      0.086700
     45 H17         4.0040   -3.6860    5.6490 h1        1 1AT      0.100700
     46 H18         2.0770   -3.0910    7.3320 h1        1 1AT      0.065700
     47 H19         1.2660   -4.7920    5.2220 h1        1 1AT      0.076700
     48 H20         0.1860   -2.9540    6.8150 h1        1 1AT      0.047200
     49 H21        -0.4030   -2.9060    5.3090 h1        1 1AT      0.047200
     50 H22        -1.4360   -4.4090    6.7470 ho        1 1AT      0.412000
     51 H23         2.7220   -5.0230    7.9670 ho        1 1AT      0.426000
     52 H24         4.8630   -2.3190    7.0280 ho        1 1AT      0.425000
     53 H25         2.5640   -0.1380    4.9950 h1        1 1AT      0.070200
     54 H26         1.1020   -0.8040    4.9500 h1        1 1AT      0.070200
     55 H27         1.9200   -0.1030    7.0030 ho        1 1AT      0.415000
     56 H28         5.3740   -3.8000    1.8820 ho        1 1AT      0.423000
     57 H29         1.5770   -4.2850   -0.1910 ho        1 1AT      0.409000
     58 H30         4.8600   -1.4810   -1.4100 ho        1 1AT      0.411000
     59 C7         -3.3880    3.6950   -5.4920 c3        1 1AT     -0.078400
     60 C8         -4.5940    4.5460   -5.5970 c3        1 1AT     -0.079400
     61 C9         -4.4840    5.4310   -6.8510 c3        1 1AT     -0.079400
     62 C10        -5.8570    6.0790   -7.1500 c3        1 1AT     -0.080400
     63 C11        -5.6920    7.1680   -8.2410 c3        1 1AT     -0.093100
     64 H3         -3.4270    2.9770   -6.1840 hc        1 1AT      0.039700
     65 H31        -2.5880    4.2440   -5.6350 hc        1 1AT      0.039700
     66 H32        -4.6640    5.1050   -4.8120 hc        1 1AT      0.040700
     67 H33        -5.3880    3.9800   -5.6650 hc        1 1AT      0.040700
     68 H34        -3.8100    6.1410   -6.6950 hc        1 1AT      0.039700
     69 H35        -4.2080    4.8800   -7.6170 hc        1 1AT      0.039700
     70 H36        -6.4860    5.3850   -7.4700 hc        1 1AT      0.038700
     71 H37        -6.2140    6.4930   -6.3220 hc        1 1AT      0.038700
     72 H38        -6.5780    7.4460   -8.5620 hc        1 1AT      0.032700
     73 H39        -5.2220    7.9470   -7.8590 hc        1 1AT      0.032700
     74 H40        -5.1700    6.8070   -8.9910 hc        1 1AT      0.032700
@<TRIPOS>BOND
     1    1    2 1   
     2    1   30 1   
     3    1   31 1   
     4    1   59 1   
     5    2    3 1   
     6    2   32 1   
     7    2   33 1   
     8    3    4 1   
     9    3   34 1   
    10    3   35 1   
    11    4    5 1   
    12    4   36 1   
    13    4   37 1   
    14    5    6 2   
    15    5    7 1   
    16    7    8 1   
    17    8    9 1   
    18    8   38 1   
    19    8   39 1   
    20    9   10 1   
    21    9   14 1   
    22    9   40 1   
    23   10   11 1   
    24   10   29 1   
    25   10   41 1   
    26   11   12 1   
    27   11   28 1   
    28   11   42 1   
    29   12   13 1   
    30   12   27 1   
    31   12   43 1   
    32   13   14 1   
    33   13   15 1   
    34   13   44 1   
    35   15   16 1   
    36   16   17 1   
    37   16   20 1   
    38   16   25 1   
    39   17   18 1   
    40   17   24 1   
    41   17   45 1   
    42   18   19 1   
    43   18   23 1   
    44   18   46 1   
    45   19   20 1   
    46   19   21 1   
    47   19   47 1   
    48   21   22 1   
    49   21   48 1   
    50   21   49 1   
    51   22   50 1   
    52   23   51 1   
    53   24   52 1   
    54   25   26 1   
    55   25   53 1   
    56   25   54 1   
    57   26   55 1   
    58   27   56 1   
    59   28   57 1   
    60   29   58 1   
    61   59   60 1   
    62   59   64 1   
    63   59   65 1   
    64   60   61 1   
    65   60   66 1   
    66   60   67 1   
    67   61   62 1   
    68   61   68 1   
    69   61   69 1   
    70   62   63 1   
    71   62   70 1   
    72   62   71 1   
    73   63   72 1   
    74   63   73 1   
    75   63   74 1   
@<TRIPOS>SUBSTRUCTURE
     1 1AT         1 TEMP              0 ****  ****    0 ROOT
