@<TRIPOS>MOLECULE
1AU
   55    58     1     0     0
SMALL
bcc


@<TRIPOS>ATOM
      1 CBB         0.0750   -0.1400   -0.0190 ca        1 1AU     -0.052000
      2 CAO         1.4630    0.1510   -0.1310 ca        1 1AU     -0.128000
      3 CAG         2.2730    0.1890    0.9790 ca        1 1AU     -0.124000
      4 CAF         1.7410   -0.0600    2.2650 ca        1 1AU     -0.128000
      5 CAM         0.4030   -0.3270    2.4090 ca        1 1AU     -0.114000
      6 CBA        -0.4590   -0.3650    1.2780 ca        1 1AU     -0.023000
      7 CAN        -1.8470   -0.6160    1.4460 ca        1 1AU     -0.135000
      8 CAI        -2.6800   -0.6440    0.3570 ca        1 1AU     -0.107000
      9 CAL        -2.1730   -0.4490   -0.9450 ca        1 1AU     -0.128000
     10 CAX        -0.8180   -0.2120   -1.1530 ca        1 1AU      0.059600
     11 NAS        -0.2970   -0.1090   -2.4600 n         1 1AU     -0.464100
     12 CAU        -0.9510    0.6220   -3.4730 c         1 1AU      0.763100
     13 OAE        -2.1340    1.0040   -3.3590 o         1 1AU     -0.591100
     14 NAT        -0.1880    0.9290   -4.6360 n         1 1AU     -0.431100
     15 CAZ        -0.8530    1.2880   -5.8130 cc        1 1AU      0.020300
     16 CAQ        -2.0370    2.0260   -5.9890 cd        1 1AU     -0.273300
     17 CAY        -2.2360    2.0850   -7.4260 cd        1 1AU      0.332600
     18 CBD        -3.3940    2.7720   -8.0820 c3        1 1AU     -0.076300
     19 CAB        -3.3240    2.6850   -9.6000 c3        1 1AU     -0.085100
     20 CAC        -4.6860    2.1150   -7.6040 c3        1 1AU     -0.085100
     21 CAA        -3.3880    4.2400   -7.6670 c3        1 1AU     -0.085100
     22 NAR        -1.2350    1.4300   -8.0700 nc        1 1AU     -0.494800
     23 NBC        -0.4220    0.9110   -7.1290 na        1 1AU      0.118300
     24 CAW         0.8560    0.3550   -7.4320 ca        1 1AU      0.053800
     25 CAP         0.9360   -0.7190   -8.3330 ca        1 1AU     -0.177000
     26 CAK         2.0230    0.8710   -6.8370 ca        1 1AU     -0.205000
     27 CAH         3.2510    0.2830   -7.1280 ca        1 1AU     -0.083000
     28 CAJ         3.3490   -0.7890   -8.0040 ca        1 1AU     -0.195000
     29 CAV         2.1880   -1.3080   -8.6240 ca        1 1AU      0.155600
     30 NAD         2.2620   -2.4360   -9.4450 nh        1 1AU     -0.822200
     31 HAO         1.9140    0.3710   -1.1090 ha        1 1AU      0.119000
     32 HAG         3.3440    0.4180    0.8790 ha        1 1AU      0.133000
     33 HAF         2.4090   -0.0300    3.1380 ha        1 1AU      0.135000
     34 HAM        -0.0310   -0.5140    3.4030 ha        1 1AU      0.135000
     35 HAN        -2.2360   -0.7800    2.4620 ha        1 1AU      0.135000
     36 HAI        -3.7590   -0.8250    0.4780 ha        1 1AU      0.138000
     37 HAL        -2.8760   -0.4760   -1.7940 ha        1 1AU      0.167000
     38 HNAS        0.6860   -0.2460   -2.5390 hn        1 1AU      0.311500
     39 HNAT        0.6760    0.4440   -4.7670 hn        1 1AU      0.312500
     40 HAQ        -2.6770    2.4340   -5.2120 ha        1 1AU      0.192000
     41 HAB        -4.2010    3.2130  -10.0470 hc        1 1AU      0.039033
     42 HABA       -3.3410    1.6200   -9.9330 hc        1 1AU      0.039033
     43 HABB       -2.3890    3.1640   -9.9780 hc        1 1AU      0.039033
     44 HAC        -4.7570    2.1620   -6.4910 hc        1 1AU      0.039033
     45 HACA       -4.7160    1.0460   -7.9200 hc        1 1AU      0.039033
     46 HACB       -5.5640    2.6450   -8.0440 hc        1 1AU      0.039033
     47 HAA        -4.2710    4.7610   -8.1080 hc        1 1AU      0.039033
     48 HAAA       -3.4360    4.3300   -6.5550 hc        1 1AU      0.039033
     49 HAAB       -2.4590    4.7410   -8.0280 hc        1 1AU      0.039033
     50 HAP         0.0220   -1.1020   -8.8140 ha        1 1AU      0.157000
     51 HAK         1.9820    1.7510   -6.1770 ha        1 1AU      0.148000
     52 HAH         4.1640    0.6860   -6.6620 ha        1 1AU      0.136000
     53 HAJ         4.3340   -1.2320   -8.2140 ha        1 1AU      0.137000
     54 HNAD        3.1500   -2.5830   -9.8700 hn        1 1AU      0.396800
     55 HNAA        1.4940   -2.5500  -10.0680 hn        1 1AU      0.396800
@<TRIPOS>BOND
     1    1    2 ar  
     2    1    6 ar  
     3    1   10 ar  
     4    2    3 ar  
     5    2   31 1   
     6    3    4 ar  
     7    3   32 1   
     8    4    5 ar  
     9    4   33 1   
    10    5    6 ar  
    11    5   34 1   
    12    6    7 ar  
    13    7    8 ar  
    14    7   35 1   
    15    8    9 ar  
    16    8   36 1   
    17    9   10 ar  
    18    9   37 1   
    19   10   11 1   
    20   11   12 1   
    21   11   38 1   
    22   12   13 2   
    23   12   14 1   
    24   14   15 1   
    25   14   39 1   
    26   15   16 2   
    27   15   23 1   
    28   16   17 1   
    29   16   40 1   
    30   17   18 1   
    31   17   22 2   
    32   18   19 1   
    33   18   20 1   
    34   18   21 1   
    35   19   41 1   
    36   19   42 1   
    37   19   43 1   
    38   20   44 1   
    39   20   45 1   
    40   20   46 1   
    41   21   47 1   
    42   21   48 1   
    43   21   49 1   
    44   22   23 1   
    45   23   24 1   
    46   24   25 ar  
    47   24   26 ar  
    48   25   29 ar  
    49   25   50 1   
    50   26   27 ar  
    51   26   51 1   
    52   27   28 ar  
    53   27   52 1   
    54   28   29 ar  
    55   28   53 1   
    56   29   30 1   
    57   30   54 1   
    58   30   55 1   
@<TRIPOS>SUBSTRUCTURE
     1 1AU         1 TEMP              0 ****  ****    0 ROOT
