@<TRIPOS>MOLECULE
1AU
   55    58     1     0     0
SMALL
bcc


@<TRIPOS>ATOM
      1 CBB         4.5070   -0.5990    0.1030 ca        1 1AU     -0.052000
      2 CAO         4.3700   -1.7460   -0.7290 ca        1 1AU     -0.128000
      3 CAG         5.4710   -2.4290   -1.1830 ca        1 1AU     -0.124000
      4 CAF         6.7740   -2.0050   -0.8350 ca        1 1AU     -0.128000
      5 CAM         6.9410   -0.8940   -0.0480 ca        1 1AU     -0.114000
      6 CBA         5.8180   -0.1630    0.4310 ca        1 1AU     -0.023000
      7 CAN         6.0070    1.0020    1.2210 ca        1 1AU     -0.135000
      8 CAI         4.9260    1.7110    1.6740 ca        1 1AU     -0.107000
      9 CAL         3.6120    1.2870    1.3860 ca        1 1AU     -0.128000
     10 CAX         3.3840    0.1460    0.6240 ca        1 1AU      0.059600
     11 NAS         2.0710   -0.3290    0.4140 n         1 1AU     -0.464100
     12 CAU         1.0030    0.5350    0.0960 c         1 1AU      0.763100
     13 OAE         1.0870    1.7730    0.2300 o         1 1AU     -0.591100
     14 NAT        -0.1820   -0.0700   -0.4110 n         1 1AU     -0.431100
     15 CAZ        -1.3830    0.6450   -0.3760 cc        1 1AU      0.020300
     16 CAQ        -1.6160    2.0220   -0.5450 cd        1 1AU     -0.273300
     17 CAY        -3.0520    2.1820   -0.4100 cd        1 1AU      0.332600
     18 CBD        -3.7590    3.4990   -0.5080 c3        1 1AU     -0.076300
     19 CAB        -5.2660    3.3510   -0.3470 c3        1 1AU     -0.085100
     20 CAC        -3.2280    4.4210    0.5860 c3        1 1AU     -0.085100
     21 CAA        -3.4630    4.1100   -1.8750 c3        1 1AU     -0.085100
     22 NAR        -3.6440    0.9810   -0.1800 nc        1 1AU     -0.494800
     23 NBC        -2.6640    0.0560   -0.1120 na        1 1AU      0.118300
     24 CAW        -2.9250   -1.3460   -0.1110 ca        1 1AU      0.053800
     25 CAP        -3.7350   -1.8880    0.8990 ca        1 1AU     -0.177000
     26 CAK        -2.3750   -2.1800   -1.1050 ca        1 1AU     -0.205000
     27 CAH        -2.6200   -3.5490   -1.0540 ca        1 1AU     -0.083000
     28 CAJ        -3.4080   -4.1060   -0.0550 ca        1 1AU     -0.195000
     29 CAV        -3.9810   -3.2800    0.9410 ca        1 1AU      0.155600
     30 NAD        -4.7080   -3.8360    1.9950 nh        1 1AU     -0.822200
     31 HAO         3.3760   -2.0970   -1.0410 ha        1 1AU      0.119000
     32 HAG         5.3520   -3.3130   -1.8280 ha        1 1AU      0.133000
     33 HAF         7.6410   -2.5720   -1.2040 ha        1 1AU      0.135000
     34 HAM         7.9480   -0.5440    0.2270 ha        1 1AU      0.135000
     35 HAN         7.0340    1.3210    1.4540 ha        1 1AU      0.135000
     36 HAI         5.0620    2.6220    2.2770 ha        1 1AU      0.138000
     37 HAL         2.7680    1.8880    1.7660 ha        1 1AU      0.167000
     38 HNAS        2.0030   -1.2820    0.1360 hn        1 1AU      0.311500
     39 HNAT       -0.2750   -1.0620   -0.3170 hn        1 1AU      0.312500
     40 HAQ        -0.8730    2.7970   -0.7100 ha        1 1AU      0.192000
     41 HAB        -5.5130    2.9190    0.6520 hc        1 1AU      0.039033
     42 HABA       -5.7520    4.3530   -0.4320 hc        1 1AU      0.039033
     43 HABB       -5.6820    2.6840   -1.1390 hc        1 1AU      0.039033
     44 HAC        -2.1230    4.5400    0.4910 hc        1 1AU      0.039033
     45 HACA       -3.7080    5.4250    0.4990 hc        1 1AU      0.039033
     46 HACB       -3.4580    3.9990    1.5930 hc        1 1AU      0.039033
     47 HAA        -3.8640    3.4580   -2.6860 hc        1 1AU      0.039033
     48 HAAA       -3.9430    5.1150   -1.9510 hc        1 1AU      0.039033
     49 HAAB       -2.3620    4.2260   -2.0180 hc        1 1AU      0.039033
     50 HAP        -4.1830   -1.2270    1.6580 ha        1 1AU      0.157000
     51 HAK        -1.7880   -1.7610   -1.9360 ha        1 1AU      0.148000
     52 HAH        -2.1910   -4.2010   -1.8300 ha        1 1AU      0.136000
     53 HAJ        -3.5830   -5.1920   -0.0420 ha        1 1AU      0.137000
     54 HNAD       -5.3190   -3.2030    2.4620 hn        1 1AU      0.396800
     55 HNAA       -5.1220   -4.7180    1.7950 hn        1 1AU      0.396800
@<TRIPOS>BOND
     1    1    2 ar  
     2    1    6 ar  
     3    1   10 ar  
     4    2    3 ar  
     5    2   31 1   
     6    3    4 ar  
     7    3   32 1   
     8    4    5 ar  
     9    4   33 1   
    10    5    6 ar  
    11    5   34 1   
    12    6    7 ar  
    13    7    8 ar  
    14    7   35 1   
    15    8    9 ar  
    16    8   36 1   
    17    9   10 ar  
    18    9   37 1   
    19   10   11 1   
    20   11   12 1   
    21   11   38 1   
    22   12   13 2   
    23   12   14 1   
    24   14   15 1   
    25   14   39 1   
    26   15   16 2   
    27   15   23 1   
    28   16   17 1   
    29   16   40 1   
    30   17   18 1   
    31   17   22 2   
    32   18   19 1   
    33   18   20 1   
    34   18   21 1   
    35   19   41 1   
    36   19   42 1   
    37   19   43 1   
    38   20   44 1   
    39   20   45 1   
    40   20   46 1   
    41   21   47 1   
    42   21   48 1   
    43   21   49 1   
    44   22   23 1   
    45   23   24 1   
    46   24   25 ar  
    47   24   26 ar  
    48   25   29 ar  
    49   25   50 1   
    50   26   27 ar  
    51   26   51 1   
    52   27   28 ar  
    53   27   52 1   
    54   28   29 ar  
    55   28   53 1   
    56   29   30 1   
    57   30   54 1   
    58   30   55 1   
@<TRIPOS>SUBSTRUCTURE
     1 1AU         1 TEMP              0 ****  ****    0 ROOT
