@<TRIPOS>MOLECULE
1AU
   55    49     1     0     0
SMALL
bcc


@<TRIPOS>ATOM
      1 CBB        -0.2760   -1.9900    4.2530 c1        1 1AU     -0.037500
      2 CAO         0.1050   -0.8540    4.9910 c2        1 1AU     -0.131500
      3 CAG        -0.0870   -0.8210    6.3660 c1        1 1AU     -0.115500
      4 CAF        -0.6570   -1.9120    7.0160 c1        1 1AU     -0.130000
      5 CAM        -1.0330   -3.0350    6.2890 c1        1 1AU     -0.130000
      6 CBA        -0.8390   -3.0690    4.8950 c1        1 1AU     -0.037500
      7 CAN        -1.2070   -4.2110    4.1600 c2        1 1AU     -0.131500
      8 CAI        -1.0020   -4.2490    2.7860 c1        1 1AU     -0.115500
      9 CAL        -0.4320   -3.1580    2.1370 c1        1 1AU     -0.128000
     10 CAX        -0.0690   -2.0300    2.8610 c1        1 1AU      0.067000
     11 NAS         0.6130   -0.9520    2.2320 n         1 1AU     -0.318000
     12 CAU         0.1240   -0.4200    1.0070 c2        1 1AU      0.390000
     13 OAE        -0.8760   -0.8860    0.4980 o         1 1AU     -0.352000
     14 NAT         0.7820    0.6850    0.3990 n         1 1AU     -0.285000
     15 CAZ         0.2700    1.2430   -0.8040 c2        1 1AU      0.052000
     16 CAQ        -0.8550    2.0070   -0.9170 c1        1 1AU     -0.208000
     17 CAY        -1.0110    2.3320   -2.2340 c1        1 1AU     -0.090000
     18 CBD        -2.1520    3.1280   -2.8220 c2        1 1AU      0.018000
     19 CAB        -1.8730    3.4040   -4.2830 c3        1 1AU     -0.203000
     20 CAC        -3.4350    2.3380   -2.6940 c3        1 1AU     -0.203000
     21 CAA        -2.2890    4.4370   -2.0780 c3        1 1AU     -0.203000
     22 NAR         0.0060    1.7750   -2.9240 n2        1 1AU     -0.062000
     23 NBC         0.8020    1.0990   -2.0350 n3        1 1AU     -0.121000
     24 CAW         1.9390    0.4580   -2.3300 c1        1 1AU      0.099000
     25 CAP         1.8940   -0.8280   -2.8460 c1        1 1AU     -0.177000
     26 CAK         3.1530    1.1160   -2.2170 c1        1 1AU     -0.205000
     27 CAH         4.3220    0.4900   -2.6190 c1        1 1AU     -0.130000
     28 CAJ         4.2770   -0.7960   -3.1340 c1        1 1AU     -0.130000
     29 CAV         3.0630   -1.4550   -3.2480 c1        1 1AU      0.074000
     30 NAD         3.0100   -2.7480   -3.8290 n3        1 1AU     -0.331000
     31 HAO         0.5050   -0.0880    4.5360 ha        1 1AU      0.127000
     32 HAG         0.1780   -0.0330    6.8770 ha        1 1AU      0.135500
     33 HAF        -0.7920   -1.8890    7.9820 ha        1 1AU      0.135750
     34 HAM        -1.4330   -3.8000    6.7450 ha        1 1AU      0.135750
     35 HAN        -1.6070   -4.9770    4.6150 ha        1 1AU      0.127000
     36 HAI        -1.2580   -5.0410    2.2770 ha        1 1AU      0.135500
     37 HAL        -0.2890   -3.1850    1.1720 ha        1 1AU      0.167000
     38 HNAS        1.3730   -0.6140    2.6050 hn        1 1AU      0.225000
     39 HNAT        1.5160    1.0530    0.7970 hn        1 1AU      0.226000
     40 HAQ        -1.4180    2.3120   -0.1810 DU        1 1AU      0.192000
     41 HAB        -1.8850    2.5610   -4.7830 hc        1 1AU      0.078333
     42 HABA       -2.5600    4.0050   -4.6390 hc        1 1AU      0.078333
     43 HABB       -0.9920    3.8250   -4.3740 hc        1 1AU      0.078333
     44 HAC        -4.1320    2.7570   -3.2410 hc        1 1AU      0.078333
     45 HACA       -3.7190    2.3260   -1.7570 hc        1 1AU      0.078333
     46 HACB       -3.2860    1.4200   -3.0030 hc        1 1AU      0.078333
     47 HAA        -3.0310    4.9520   -2.4580 hc        1 1AU      0.078333
     48 HAAA       -2.4660    4.2580   -1.1310 hc        1 1AU      0.078333
     49 HAAB       -1.4580    4.9500   -2.1640 hc        1 1AU      0.078333
     50 HAP         1.0390   -1.2920   -2.9260 ha        1 1AU      0.157000
     51 HAK         3.1850    2.0220   -1.8530 ha        1 1AU      0.148000
     52 HAH         5.1770    0.9540   -2.5390 ha        1 1AU      0.135750
     53 HAJ         5.1000   -1.2370   -3.4180 ha        1 1AU      0.135750
     54 HNAD        2.2090   -3.1820   -3.9080 hn        1 1AU      0.192000
     55 HNAA        3.7790   -3.1540   -4.1110 hn        1 1AU      0.192000
@<TRIPOS>BOND
     1    1    2 1   
     2    1    6 1   
     3    2    3 1   
     4    2   31 1   
     5    3   32 1   
     6    4    5 1   
     7    4   33 1   
     8    5   34 1   
     9    6    7 1   
    10    7    8 1   
    11    7   35 1   
    12    8   36 1   
    13    9   10 1   
    14    9   37 1   
    15   10   11 1   
    16   11   12 1   
    17   11   38 1   
    18   12   13 1   
    19   12   14 1   
    20   14   15 1   
    21   14   39 1   
    22   15   16 1   
    23   15   23 1   
    24   16   17 1   
    25   17   22 1   
    26   18   19 1   
    27   18   20 1   
    28   18   21 1   
    29   19   41 1   
    30   19   42 1   
    31   19   43 1   
    32   20   44 1   
    33   20   45 1   
    34   20   46 1   
    35   21   47 1   
    36   21   48 1   
    37   21   49 1   
    38   22   23 1   
    39   23   24 1   
    40   24   26 1   
    41   25   29 1   
    42   25   50 1   
    43   26   51 1   
    44   27   28 1   
    45   27   52 1   
    46   28   53 1   
    47   29   30 1   
    48   30   54 1   
    49   30   55 1   
@<TRIPOS>SUBSTRUCTURE
     1 1AU         1 TEMP              0 ****  ****    0 ROOT
