@<TRIPOS>MOLECULE
1AU
   58    61     1     0     0
SMALL
bcc


@<TRIPOS>ATOM
      1 CBB        -0.5580   -0.0900   -0.4160 ca        1 1AU      0.029000
      2 CAO         0.7030   -0.7120   -0.2670 ca        1 1AU     -0.212000
      3 CAG         1.1200   -1.1760    0.9670 ca        1 1AU     -0.002000
      4 CAF         0.2950   -1.0420    2.1050 ca        1 1AU     -0.110000
      5 CAM        -0.9330   -0.4340    1.9930 ca        1 1AU     -0.042000
      6 CBA        -1.3890    0.0620    0.7370 ca        1 1AU     -0.068000
      7 CAN        -2.6430    0.7020    0.6340 ca        1 1AU      0.052000
      8 CAI        -3.0970    1.1910   -0.5880 ca        1 1AU     -0.144000
      9 CAL        -2.3170    1.0630   -1.7320 ca        1 1AU     -0.037000
     10 CAX        -1.0810    0.3900   -1.6640 ca        1 1AU     -0.136400
     11 NAS        -0.3340    0.1840   -2.8920 n4        1 1AU     -0.445200
     12 CAU         0.6690    1.2800   -3.1640 c         1 1AU      0.441100
     13 OAE         1.1570    2.0050   -2.3190 o         1 1AU     -0.271100
     14 NAT         1.1180    1.5270   -4.6040 n4        1 1AU     -0.499200
     15 CAZ         0.0560    1.4150   -5.5740 cc        1 1AU     -0.169700
     16 CAQ        -1.2750    1.8630   -5.4270 cd        1 1AU     -0.211300
     17 CAY        -1.9310    1.5040   -6.6710 cd        1 1AU      0.398600
     18 CBD        -3.3760    1.7840   -6.9810 c3        1 1AU     -0.092300
     19 CAB        -3.7730    1.2410   -8.3470 c3        1 1AU     -0.097100
     20 CAC        -4.2380    1.1280   -5.9080 c3        1 1AU     -0.097100
     21 CAA        -3.5810    3.2960   -6.9600 c3        1 1AU     -0.097100
     22 NAR        -1.0340    0.8960   -7.4960 nc        1 1AU     -0.409800
     23 NBC         0.1500    0.8040   -6.8650 na        1 1AU      0.174300
     24 CAW         1.3480    0.5310   -7.6050 ca        1 1AU     -0.006200
     25 CAP         1.3300   -0.5170   -8.5510 ca        1 1AU     -0.070000
     26 CAK         2.4970    1.3370   -7.4740 ca        1 1AU     -0.123000
     27 CAH         3.6250    1.0730   -8.2480 ca        1 1AU     -0.065000
     28 CAJ         3.6270    0.0450   -9.1910 ca        1 1AU     -0.067000
     29 CAV         2.4670   -0.7340   -9.3480 ca        1 1AU     -0.027400
     30 NAD         2.4340   -1.7630  -10.3920 n4        1 1AU     -0.711000
     31 HAO         1.3870   -0.8250   -1.1190 ha        1 1AU      0.101000
     32 HAG         2.1090   -1.6590    1.0740 ha        1 1AU      0.178000
     33 HAF         0.6480   -1.4260    3.0790 ha        1 1AU      0.194000
     34 HAM        -1.5890   -0.3220    2.8770 ha        1 1AU      0.185000
     35 HAN        -3.2680    0.8200    1.5420 ha        1 1AU      0.197000
     36 HAI        -4.0830    1.6880   -0.6530 ha        1 1AU      0.197000
     37 HAL        -2.7010    1.4680   -2.6840 ha        1 1AU      0.145000
     38 HNAS        0.1980   -0.7020   -2.8050 hn        1 1AU      0.495800
     39 HNAT        1.4910    2.5010   -4.6380 hn        1 1AU      0.494300
     40 HAQ        -1.7350    2.4000   -4.5980 ha        1 1AU      0.206000
     41 HAB        -3.1740    1.7230   -9.1560 hc        1 1AU      0.058589
     42 HABA       -4.8540    1.4650   -8.5310 hc        1 1AU      0.058589
     43 HABB       -3.6310    0.1350   -8.3930 hc        1 1AU      0.058589
     44 HAC        -5.3110    1.3950   -6.0840 hc        1 1AU      0.058589
     45 HACA       -4.1440    0.0170   -5.9470 hc        1 1AU      0.058589
     46 HACB       -3.9490    1.4880   -4.8910 hc        1 1AU      0.058589
     47 HAA        -4.6590    3.5250   -7.1550 hc        1 1AU      0.058589
     48 HAAA       -3.3030    3.7210   -5.9660 hc        1 1AU      0.058589
     49 HAAB       -2.9700    3.7900   -7.7530 hc        1 1AU      0.058589
     50 HAP         0.4190   -1.1320   -8.6820 ha        1 1AU      0.192000
     51 HAK         2.5100    2.2250   -6.8210 ha        1 1AU      0.154000
     52 HAH         4.5270    1.7080   -8.1400 ha        1 1AU      0.207000
     53 HAJ         4.5320   -0.1200   -9.8060 ha        1 1AU      0.198000
     54 HNAD        1.7180   -2.4700  -10.1850 hn        1 1AU      0.484133
     55 HNAA        3.3530   -2.2260  -10.4610 hn        1 1AU      0.484133
     56 HAS2       -0.9950    0.1240   -3.6850 hn        1 1AU      0.495800
     57 HAT2        1.8920    0.8820   -4.8300 hn        1 1AU      0.494300
     58 HAD3        2.2160   -1.3220  -11.2990 hn        1 1AU      0.484133
@<TRIPOS>BOND
     1    1    2 ar  
     2    1    6 ar  
     3    1   10 ar  
     4    2    3 ar  
     5    2   31 1   
     6    3    4 ar  
     7    3   32 1   
     8    4    5 ar  
     9    4   33 1   
    10    5    6 ar  
    11    5   34 1   
    12    6    7 ar  
    13    7    8 ar  
    14    7   35 1   
    15    8    9 ar  
    16    8   36 1   
    17    9   10 ar  
    18    9   37 1   
    19   10   11 1   
    20   11   12 1   
    21   11   38 1   
    22   11   56 1   
    23   12   13 2   
    24   12   14 1   
    25   14   15 1   
    26   14   39 1   
    27   14   57 1   
    28   15   16 2   
    29   15   23 1   
    30   16   17 1   
    31   16   40 1   
    32   17   18 1   
    33   17   22 2   
    34   18   19 1   
    35   18   20 1   
    36   18   21 1   
    37   19   41 1   
    38   19   42 1   
    39   19   43 1   
    40   20   44 1   
    41   20   45 1   
    42   20   46 1   
    43   21   47 1   
    44   21   48 1   
    45   21   49 1   
    46   22   23 1   
    47   23   24 1   
    48   24   25 ar  
    49   24   26 ar  
    50   25   29 ar  
    51   25   50 1   
    52   26   27 ar  
    53   26   51 1   
    54   27   28 ar  
    55   27   52 1   
    56   28   29 ar  
    57   28   53 1   
    58   29   30 1   
    59   30   54 1   
    60   30   55 1   
    61   30   58 1   
@<TRIPOS>SUBSTRUCTURE
     1 1AU         1 TEMP              0 ****  ****    0 ROOT
