@<TRIPOS>MOLECULE
1AU
   55    58     1     0     0
SMALL
bcc


@<TRIPOS>ATOM
      1 CBB         0.0750   -0.1430   -0.0190 ca        1 1AU     -0.052000
      2 CAO         1.4640    0.1470   -0.1320 ca        1 1AU     -0.128000
      3 CAG         2.2730    0.1860    0.9770 ca        1 1AU     -0.124000
      4 CAF         1.7420   -0.0620    2.2640 ca        1 1AU     -0.128000
      5 CAM         0.4040   -0.3280    2.4080 ca        1 1AU     -0.114000
      6 CBA        -0.4590   -0.3670    1.2770 ca        1 1AU     -0.023000
      7 CAN        -1.8470   -0.6160    1.4460 ca        1 1AU     -0.135000
      8 CAI        -2.6800   -0.6440    0.3570 ca        1 1AU     -0.107000
      9 CAL        -2.1730   -0.4510   -0.9450 ca        1 1AU     -0.128000
     10 CAX        -0.8180   -0.2150   -1.1530 ca        1 1AU      0.059600
     11 NAS        -0.2970   -0.1130   -2.4610 ns        1 1AU     -0.464100
     12 CAU        -0.9510    0.6200   -3.4740 c         1 1AU      0.763100
     13 OAE        -2.1330    1.0040   -3.3590 o         1 1AU     -0.591100
     14 NAT        -0.1880    0.9270   -4.6360 ns        1 1AU     -0.431100
     15 CAZ        -0.8520    1.2880   -5.8130 cc        1 1AU      0.020300
     16 CAQ        -2.0350    2.0280   -5.9870 cd        1 1AU     -0.273300
     17 CAY        -2.2350    2.0880   -7.4240 cd        1 1AU      0.332600
     18 CBD        -3.3920    2.7780   -8.0790 c3        1 1AU     -0.076300
     19 CAB        -3.3220    2.6930   -9.5970 c3        1 1AU     -0.085100
     20 CAC        -4.6840    2.1230   -7.6020 c3        1 1AU     -0.085100
     21 CAA        -3.3840    4.2460   -7.6620 c3        1 1AU     -0.085100
     22 NAR        -1.2350    1.4330   -8.0700 nc        1 1AU     -0.494800
     23 NBC        -0.4230    0.9110   -7.1290 na        1 1AU      0.118300
     24 CAW         0.8540    0.3530   -7.4340 ca        1 1AU      0.053800
     25 CAP         0.9320   -0.7200   -8.3350 ca        1 1AU     -0.177000
     26 CAK         2.0230    0.8670   -6.8380 ca        1 1AU     -0.205000
     27 CAH         3.2490    0.2770   -7.1300 ca        1 1AU     -0.083000
     28 CAJ         3.3450   -0.7950   -8.0080 ca        1 1AU     -0.195000
     29 CAV         2.1830   -1.3110   -8.6270 ca        1 1AU      0.155600
     30 NAD         2.2550   -2.4380   -9.4500 nv        1 1AU     -0.822200
     31 HAO         1.9140    0.3660   -1.1110 ha        1 1AU      0.119000
     32 HAG         3.3450    0.4140    0.8770 ha        1 1AU      0.133000
     33 HAF         2.4100   -0.0320    3.1370 ha        1 1AU      0.135000
     34 HAM        -0.0300   -0.5140    3.4030 ha        1 1AU      0.135000
     35 HAN        -2.2360   -0.7790    2.4620 ha        1 1AU      0.135000
     36 HAI        -3.7590   -0.8250    0.4780 ha        1 1AU      0.138000
     37 HAL        -2.8760   -0.4780   -1.7940 ha        1 1AU      0.167000
     38 HNAS        0.6850   -0.2500   -2.5400 hn        1 1AU      0.311500
     39 HNAT        0.6760    0.4400   -4.7680 hn        1 1AU      0.312500
     40 HAQ        -2.6740    2.4360   -5.2100 ha        1 1AU      0.192000
     41 HAB        -4.1980    3.2230  -10.0430 hc        1 1AU      0.039033
     42 HABA       -2.3860    3.1710   -9.9750 hc        1 1AU      0.039033
     43 HABB       -3.3410    1.6290   -9.9320 hc        1 1AU      0.039033
     44 HAC        -5.5620    2.6540   -8.0410 hc        1 1AU      0.039033
     45 HACA       -4.7550    2.1680   -6.4890 hc        1 1AU      0.039033
     46 HACB       -4.7160    1.0530   -7.9190 hc        1 1AU      0.039033
     47 HAA        -3.4310    4.3340   -6.5500 hc        1 1AU      0.039033
     48 HAAA       -2.4530    4.7460   -8.0220 hc        1 1AU      0.039033
     49 HAAB       -4.2660    4.7690   -8.1030 hc        1 1AU      0.039033
     50 HAP         0.0170   -1.1010   -8.8170 ha        1 1AU      0.157000
     51 HAK         1.9840    1.7460   -6.1770 ha        1 1AU      0.148000
     52 HAH         4.1640    0.6780   -6.6650 ha        1 1AU      0.136000
     53 HAJ         4.3290   -1.2390   -8.2190 ha        1 1AU      0.137000
     54 HNAD        3.1420   -2.5860   -9.8760 hn        1 1AU      0.396800
     55 HNAA        1.4870   -2.5500  -10.0730 hn        1 1AU      0.396800
@<TRIPOS>BOND
     1    1    2 ar  
     2    1    6 ar  
     3    1   10 ar  
     4    2    3 ar  
     5    2   31 1   
     6    3    4 ar  
     7    3   32 1   
     8    4    5 ar  
     9    4   33 1   
    10    5    6 ar  
    11    5   34 1   
    12    6    7 ar  
    13    7    8 ar  
    14    7   35 1   
    15    8    9 ar  
    16    8   36 1   
    17    9   10 ar  
    18    9   37 1   
    19   10   11 1   
    20   11   12 1   
    21   11   38 1   
    22   12   13 2   
    23   12   14 1   
    24   14   15 1   
    25   14   39 1   
    26   15   16 2   
    27   15   23 1   
    28   16   17 1   
    29   16   40 1   
    30   17   18 1   
    31   17   22 2   
    32   18   19 1   
    33   18   20 1   
    34   18   21 1   
    35   19   41 1   
    36   19   42 1   
    37   19   43 1   
    38   20   44 1   
    39   20   45 1   
    40   20   46 1   
    41   21   47 1   
    42   21   48 1   
    43   21   49 1   
    44   22   23 1   
    45   23   24 1   
    46   24   25 ar  
    47   24   26 ar  
    48   25   29 ar  
    49   25   50 1   
    50   26   27 ar  
    51   26   51 1   
    52   27   28 ar  
    53   27   52 1   
    54   28   29 ar  
    55   28   53 1   
    56   29   30 1   
    57   30   54 1   
    58   30   55 1   
@<TRIPOS>SUBSTRUCTURE
     1 1AU         1 TEMP              0 ****  ****    0 ROOT
