@<TRIPOS>MOLECULE
1AV
   30    33     1     0     0
SMALL
bcc


@<TRIPOS>ATOM
      1 N7          0.0880   -0.3650    0.1200 nv        1 1AV     -0.936500
      2 C6          1.4670   -0.2120    0.0790 ca        1 1AV      0.923900
      3 N1          2.1510   -0.2060    1.2860 nb        1 1AV     -0.738000
      4 N5          2.0490   -0.1180   -1.1880 nb        1 1AV     -0.793000
      5 C4          3.3990   -0.0490   -1.2690 ca        1 1AV      0.661800
      6 N8          3.9810    0.0260   -2.5420 na        1 1AV     -0.270700
      7 C12         3.3250   -0.2780   -3.7600 cc        1 1AV     -0.218600
      8 C11         4.2420   -0.0010   -4.7750 cd        1 1AV      0.295200
      9 N10         5.4410    0.4830   -4.2270 nd        1 1AV     -0.663000
     10 C9          5.2730    0.5000   -2.9010 cc        1 1AV      0.444400
     11 C3          4.2040   -0.0620   -0.0740 ca        1 1AV     -0.224200
     12 N13         5.5870   -0.0190    0.0380 nc        1 1AV     -0.492100
     13 C14         5.9330   -0.0590    1.3190 cd        1 1AV      0.390800
     14 S15         4.6090   -0.1550    2.4540 ss        1 1AV     -0.075500
     15 C2          3.4870   -0.1430    1.1800 ca        1 1AV      0.481600
     16 C16         7.2940   -0.0390    1.8230 ca        1 1AV     -0.235200
     17 C21         8.3880   -0.3950    0.9990 ca        1 1AV      0.440200
     18 N20         9.6630   -0.3960    1.4280 nb        1 1AV     -0.663000
     19 C19         9.8950   -0.0370    2.7050 ca        1 1AV      0.409200
     20 C18         8.8760    0.3330    3.6030 ca        1 1AV     -0.246300
     21 C17         7.5580    0.3330    3.1510 ca        1 1AV     -0.081000
     22 H1         -0.4310   -0.1970   -0.7080 hn        1 1AV      0.445300
     23 H2         -0.3700   -0.2580    0.9930 hn        1 1AV      0.445300
     24 H3          2.3050   -0.6570   -3.7900 h4        1 1AV      0.195000
     25 H4          4.1220   -0.1160   -5.8520 h4        1 1AV      0.047100
     26 H5          6.0180    0.8320   -2.1680 h5        1 1AV      0.090100
     27 H6          8.2330   -0.6940   -0.0540 h4        1 1AV      0.045100
     28 H7         10.9540   -0.0490    3.0230 h4        1 1AV      0.028100
     29 H8          9.1190    0.6180    4.6350 ha        1 1AV      0.149000
     30 H9          6.7360    0.6230    3.8240 ha        1 1AV      0.143000
@<TRIPOS>BOND
     1    1    2 1   
     2    1   22 1   
     3    1   23 1   
     4    2    3 ar  
     5    2    4 ar  
     6    3   15 ar  
     7    4    5 ar  
     8    5    6 1   
     9    5   11 ar  
    10    6    7 1   
    11    6   10 1   
    12    7    8 2   
    13    7   24 1   
    14    8    9 1   
    15    8   25 1   
    16    9   10 2   
    17   10   26 1   
    18   11   12 1   
    19   11   15 ar  
    20   12   13 2   
    21   13   14 1   
    22   13   16 1   
    23   14   15 1   
    24   16   17 ar  
    25   16   21 ar  
    26   17   18 ar  
    27   17   27 1   
    28   18   19 ar  
    29   19   20 ar  
    30   19   28 1   
    31   20   21 ar  
    32   20   29 1   
    33   21   30 1   
@<TRIPOS>SUBSTRUCTURE
     1 1AV         1 TEMP              0 ****  ****    0 ROOT
