@<TRIPOS>MOLECULE
1AV
   30    33     1     0     0
SMALL
bcc


@<TRIPOS>ATOM
      1 N7         -4.0040    2.8330    0.2560 nh        1 1AV     -0.936500
      2 C6         -2.9020    2.0000    0.1330 ca        1 1AV      0.923900
      3 N1         -1.6450    2.5890    0.1240 nb        1 1AV     -0.738000
      4 N5         -3.1580    0.6280    0.0690 nb        1 1AV     -0.793000
      5 C4         -2.1030   -0.2210    0.0290 ca        1 1AV      0.661800
      6 N8         -2.3640   -1.5970   -0.0160 na        1 1AV     -0.270700
      7 C12        -3.6060   -2.2040    0.2900 cc        1 1AV     -0.218600
      8 C11        -3.4420   -3.5690    0.0470 cd        1 1AV      0.295200
      9 N10        -2.1420   -3.8260   -0.4190 nd        1 1AV     -0.663000
     10 C9         -1.5120   -2.6470   -0.4570 cc        1 1AV      0.444400
     11 C3         -0.7560    0.2900    0.0430 ca        1 1AV     -0.224200
     12 N13         0.4380   -0.4190    0.0280 nc        1 1AV     -0.492100
     13 C14         1.4610    0.4270    0.0580 cd        1 1AV      0.390800
     14 S15         1.0360    2.1210    0.1100 ss        1 1AV     -0.075500
     15 C2         -0.6160    1.7290    0.0910 ca        1 1AV      0.481600
     16 C16         2.8620    0.0510    0.0600 ca        1 1AV     -0.235200
     17 C21         3.2760   -1.2450    0.4490 ca        1 1AV      0.440200
     18 N20         4.5640   -1.6320    0.4710 nb        1 1AV     -0.663000
     19 C19         5.4950   -0.7320    0.1020 ca        1 1AV      0.409200
     20 C18         5.1860    0.5810   -0.3020 ca        1 1AV     -0.246300
     21 C17         3.8500    0.9740   -0.3230 ca        1 1AV     -0.081000
     22 H1         -4.9050    2.4540    0.0880 hn        1 1AV      0.445300
     23 H2         -3.8720    3.8080    0.1270 hn        1 1AV      0.445300
     24 H3         -4.4600   -1.6310    0.6480 h4        1 1AV      0.195000
     25 H4         -4.1630   -4.3750    0.1750 h4        1 1AV      0.047100
     26 H5         -0.4780   -2.4880   -0.7830 h5        1 1AV      0.090100
     27 H6          2.5370   -2.0090    0.7580 h4        1 1AV      0.045100
     28 H7          6.5420   -1.0840    0.1310 h4        1 1AV      0.028100
     29 H8          5.9840    1.2760   -0.5950 ha        1 1AV      0.149000
     30 H9          3.5710    1.9920   -0.6390 ha        1 1AV      0.143000
@<TRIPOS>BOND
     1    1    2 1   
     2    1   22 1   
     3    1   23 1   
     4    2    3 ar  
     5    2    4 ar  
     6    3   15 ar  
     7    4    5 ar  
     8    5    6 1   
     9    5   11 ar  
    10    6    7 1   
    11    6   10 1   
    12    7    8 2   
    13    7   24 1   
    14    8    9 1   
    15    8   25 1   
    16    9   10 2   
    17   10   26 1   
    18   11   12 1   
    19   11   15 ar  
    20   12   13 2   
    21   13   14 1   
    22   13   16 1   
    23   14   15 1   
    24   16   17 ar  
    25   16   21 ar  
    26   17   18 ar  
    27   17   27 1   
    28   18   19 ar  
    29   19   20 ar  
    30   19   28 1   
    31   20   21 ar  
    32   20   29 1   
    33   21   30 1   
@<TRIPOS>SUBSTRUCTURE
     1 1AV         1 TEMP              0 ****  ****    0 ROOT
