@<TRIPOS>MOLECULE
1AV
   31    34     1     0     0
SMALL
bcc


@<TRIPOS>ATOM
      1 N7          0.0280   -0.1300    0.1450 n4        1 1AV     -0.812300
      2 C6          1.5240   -0.1030    0.1000 ca        1 1AV      0.719900
      3 N1          2.1550   -0.0640    1.2980 nb        1 1AV     -0.635000
      4 N5          2.0530   -0.1210   -1.1710 nb        1 1AV     -0.760000
      5 C4          3.4160   -0.0980   -1.2790 ca        1 1AV      0.673800
      6 N8          3.9800   -0.1150   -2.5400 na        1 1AV     -0.284700
      7 C12         3.2550   -0.1560   -3.7700 cc        1 1AV     -0.231600
      8 C11         4.2040   -0.1610   -4.7840 cd        1 1AV      0.345200
      9 N10         5.5050   -0.1240   -4.2360 nd        1 1AV     -0.625000
     10 C9          5.3680   -0.0970   -2.9150 cc        1 1AV      0.465400
     11 C3          4.2140   -0.0560   -0.0650 ca        1 1AV     -0.111200
     12 N13         5.5880   -0.0280    0.0440 nc        1 1AV     -0.522100
     13 C14         5.9390    0.0080    1.3380 cd        1 1AV      0.449800
     14 S15         4.6200    0.0080    2.4650 ss        1 1AV      0.079500
     15 C2          3.5090   -0.0410    1.2010 ca        1 1AV      0.368600
     16 C16         7.2990    0.0440    1.8270 ca        1 1AV     -0.289200
     17 C21         8.4050    0.0440    0.9420 ca        1 1AV      0.470200
     18 N20         9.6820    0.0770    1.3630 nb        1 1AV     -0.653000
     19 C19         9.9090    0.1120    2.6880 ca        1 1AV      0.447200
     20 C18         8.8760    0.1160    3.6510 ca        1 1AV     -0.239300
     21 C17         7.5590    0.0810    3.2120 ca        1 1AV     -0.067000
     22 H1         -0.3360    0.6910   -0.3550 hn        1 1AV      0.480467
     23 H2         -0.3040   -0.9860   -0.3160 hn        1 1AV      0.480467
     24 H3          2.1670   -0.1770   -3.8040 h4        1 1AV      0.197000
     25 H4          4.0560   -0.1880   -5.8660 h4        1 1AV      0.070100
     26 H5          6.1910   -0.0660   -2.1880 h5        1 1AV      0.103100
     27 H6          8.2650    0.0160   -0.1550 h4        1 1AV      0.046100
     28 H7         10.9730    0.1390    2.9960 h4        1 1AV      0.047100
     29 H8          9.1180    0.1450    4.7230 ha        1 1AV      0.166000
     30 H9          6.7300    0.0830    3.9380 ha        1 1AV      0.140000
     31 H73        -0.2950   -0.1130    1.1210 hn        1 1AV      0.480467
@<TRIPOS>BOND
     1    1    2 1   
     2    1   22 1   
     3    1   23 1   
     4    1   31 1   
     5    2    3 ar  
     6    2    4 ar  
     7    3   15 ar  
     8    4    5 ar  
     9    5    6 1   
    10    5   11 ar  
    11    6    7 1   
    12    6   10 1   
    13    7    8 2   
    14    7   24 1   
    15    8    9 1   
    16    8   25 1   
    17    9   10 2   
    18   10   26 1   
    19   11   12 1   
    20   11   15 ar  
    21   12   13 2   
    22   13   14 1   
    23   13   16 1   
    24   14   15 1   
    25   16   17 ar  
    26   16   21 ar  
    27   17   18 ar  
    28   17   27 1   
    29   18   19 ar  
    30   19   20 ar  
    31   19   28 1   
    32   20   21 ar  
    33   20   29 1   
    34   21   30 1   
@<TRIPOS>SUBSTRUCTURE
     1 1AV         1 TEMP              0 ****  ****    0 ROOT
