@<TRIPOS>MOLECULE
1AV
   30    22     1     0     0
SMALL
bcc


@<TRIPOS>ATOM
      1 N7         -4.7510    0.5410    0.1730 n3        1 1AV     -0.798400
      2 C6         -3.4560   -0.0390    0.1860 c1        1 1AV      0.585600
      3 N1         -2.7560    0.1640    1.3530 n1        1 1AV     -0.464800
      4 N5         -2.8230   -0.5930   -0.9200 n1        1 1AV     -0.591800
      5 C4         -1.5130   -0.9340   -0.8530 c1        1 1AV      0.214700
      6 N8         -0.9410   -1.2740   -2.1050 n3        1 1AV     -0.034400
      7 C12        -0.7690   -2.5110   -2.5800 c1        1 1AV     -0.182300
      8 C11        -0.1500   -2.4140   -3.7970 cg        1 1AV     -0.119000
      9 N10         0.0500   -1.1190   -4.0560 ne        1 1AV     -0.411400
     10 C9         -0.4370   -0.4030   -3.0130 c1        1 1AV      0.175400
     11 C3         -0.8140   -0.7340    0.3030 c1        1 1AV     -0.233000
     12 N13         0.7090   -0.9920    0.6760 n1        1 1AV     -0.464800
     13 C14         0.9200   -0.5720    2.0130 c1        1 1AV      0.359400
     14 S15        -0.4110   -0.0400    2.5540 ss        1 1AV      0.035800
     15 C2         -1.4570   -0.1720    1.4250 c1        1 1AV      0.359400
     16 C16         1.9560    0.5320    1.9860 c1        1 1AV     -0.085000
     17 C21         1.8440    1.6090    2.8510 c1        1 1AV      0.326300
     18 N20         2.7440    2.6310    2.7880 n1        1 1AV     -0.458800
     19 C19         3.7550    2.5940    1.8760 c1        1 1AV     -0.063500
     20 C18         3.8700    1.5180    1.0100 c1        1 1AV     -0.063500
     21 C17         2.9690    0.4950    1.0720 c1        1 1AV      0.007500
     22 H1         -5.0230    1.0680    0.8690 hn        1 1AV      0.445300
     23 H2         -5.3160    0.3800   -0.5270 hn        1 1AV      0.445300
     24 H3         -1.0370   -3.3380   -2.1360 DU        1 1AV      0.201667
     25 H4          0.1010   -3.1600   -4.3740 DU        1 1AV      0.201667
     26 H5         -0.4260    0.5700   -2.9300 DU        1 1AV      0.201667
     27 H6          1.1200    1.6370    3.5040 ha        1 1AV      0.106500
     28 H7          4.3990    3.3260    1.8320 ha        1 1AV      0.100500
     29 H8          4.5940    1.4920    0.3570 ha        1 1AV      0.100500
     30 H9          3.0490   -0.2630    0.4630 ha        1 1AV      0.102500
@<TRIPOS>BOND
     1    1    2 1   
     2    1   22 1   
     3    1   23 1   
     4    2    4 3   
     5    3   15 3   
     6    5    6 1   
     7    5   11 3   
     8    6    7 1   
     9    6   10 2   
    10    7    8 3   
    11    8    9 1   
    12    9   10 2   
    13   12   13 3   
    14   13   14 1   
    15   14   15 1   
    16   16   21 3   
    17   17   18 3   
    18   17   27 1   
    19   19   20 3   
    20   19   28 1   
    21   20   29 1   
    22   21   30 1   
@<TRIPOS>SUBSTRUCTURE
     1 1AV         1 TEMP              0 ****  ****    0 ROOT
