@<TRIPOS>MOLECULE
1AW
   49    51     1     0     0
SMALL
bcc


@<TRIPOS>ATOM
      1 CBB         0.2050   -0.1530    0.3180 ca        1 1AW     -0.155000
      2 CBA         1.5560   -0.4310    0.5130 ca        1 1AW     -0.109000
      3 CAN         2.0940   -0.5010    1.7960 ca        1 1AW     -0.148000
      4 CAI         1.2700   -0.2840    2.9000 ca        1 1AW     -0.109000
      5 CAL        -0.0800    0.0030    2.7290 ca        1 1AW     -0.155000
      6 CAX        -0.6350    0.0680    1.4290 ca        1 1AW      0.054600
      7 NAS        -2.0240    0.2820    1.2950 n         1 1AW     -0.457100
      8 CAU        -2.5830    1.0020    0.2160 c         1 1AW      0.764100
      9 OAE        -1.9340    1.2820   -0.8130 o         1 1AW     -0.591100
     10 NAT        -3.9360    1.4110    0.3580 n         1 1AW     -0.440100
     11 CAZ        -4.6510    1.8440   -0.7600 cc        1 1AW      0.024300
     12 CAQ        -4.2300    2.6390   -1.8410 cd        1 1AW     -0.269300
     13 CAY        -5.4160    2.8290   -2.6540 cd        1 1AW      0.334600
     14 CBD        -5.4820    3.6000   -3.9360 c3        1 1AW     -0.074300
     15 CAB        -4.1150    4.1920   -4.2580 c3        1 1AW     -0.086100
     16 CAC        -5.9030    2.6720   -5.0710 c3        1 1AW     -0.086100
     17 CAA        -6.4960    4.7310   -3.8040 c3        1 1AW     -0.086100
     18 NAR        -6.4820    2.1970   -2.0910 nc        1 1AW     -0.501800
     19 NBC        -6.0360    1.5490   -0.9970 na        1 1AW      0.125300
     20 CAW        -6.9040    0.9820   -0.0170 ca        1 1AW      0.053800
     21 CAP        -8.0710    1.6530    0.3790 ca        1 1AW     -0.184000
     22 CAK        -6.5880   -0.2770    0.5360 ca        1 1AW     -0.200000
     23 CAH        -7.4360   -0.8320    1.4890 ca        1 1AW     -0.082000
     24 CAJ        -8.5910   -0.1790    1.8990 ca        1 1AW     -0.196000
     25 CAV        -8.9280    1.0790    1.3470 ca        1 1AW      0.157600
     26 NAD       -10.0410    1.7840    1.8090 nh        1 1AW     -0.822200
     27 HBB        -0.1970   -0.0950   -0.7070 ha        1 1AW      0.148500
     28 HBA         2.2000   -0.5980   -0.3630 ha        1 1AW      0.134000
     29 HAN         3.1610   -0.7230    1.9390 ha        1 1AW      0.134000
     30 HAI         1.6870   -0.3360    3.9170 ha        1 1AW      0.134000
     31 HAL        -0.7090    0.1720    3.6160 ha        1 1AW      0.148500
     32 HNAS       -2.5180    0.2990    2.1620 hn        1 1AW      0.307500
     33 HNAT       -4.4810    1.0090    1.0930 hn        1 1AW      0.318500
     34 HAQ        -3.2240    2.9990   -2.0310 ha        1 1AW      0.191000
     35 HAB        -4.1710    4.7710   -5.2100 hc        1 1AW      0.039367
     36 HABA       -3.7850    4.8780   -3.4410 hc        1 1AW      0.039367
     37 HABB       -3.3570    3.3810   -4.3760 hc        1 1AW      0.039367
     38 HAC        -5.1870    1.8210   -5.1600 hc        1 1AW      0.039367
     39 HACA       -5.9130    3.2350   -6.0350 hc        1 1AW      0.039367
     40 HACB       -6.9250    2.2640   -4.8840 hc        1 1AW      0.039367
     41 HAA        -6.2230    5.4000   -2.9530 hc        1 1AW      0.039367
     42 HAAA       -6.5130    5.3350   -4.7430 hc        1 1AW      0.039367
     43 HAAB       -7.5190    4.3220   -3.6260 hc        1 1AW      0.039367
     44 HAP        -8.3250    2.6280   -0.0660 ha        1 1AW      0.157000
     45 HAK        -5.7060   -0.8390    0.1970 ha        1 1AW      0.144000
     46 HAH        -7.1910   -1.8160    1.9190 ha        1 1AW      0.136000
     47 HAJ        -9.2410   -0.6450    2.6540 ha        1 1AW      0.137000
     48 HNAD      -10.7560    1.2190    2.2080 hn        1 1AW      0.396800
     49 HNAA      -10.3820    2.4820    1.1860 hn        1 1AW      0.396800
@<TRIPOS>BOND
     1    1    2 ar  
     2    1    6 ar  
     3    1   27 1   
     4    2    3 ar  
     5    2   28 1   
     6    3    4 ar  
     7    3   29 1   
     8    4    5 ar  
     9    4   30 1   
    10    5    6 ar  
    11    5   31 1   
    12    6    7 1   
    13    7    8 1   
    14    7   32 1   
    15    8    9 2   
    16    8   10 1   
    17   10   11 1   
    18   10   33 1   
    19   11   12 2   
    20   11   19 1   
    21   12   13 1   
    22   12   34 1   
    23   13   14 1   
    24   13   18 2   
    25   14   15 1   
    26   14   16 1   
    27   14   17 1   
    28   15   35 1   
    29   15   36 1   
    30   15   37 1   
    31   16   38 1   
    32   16   39 1   
    33   16   40 1   
    34   17   41 1   
    35   17   42 1   
    36   17   43 1   
    37   18   19 1   
    38   19   20 1   
    39   20   21 ar  
    40   20   22 ar  
    41   21   25 ar  
    42   21   44 1   
    43   22   23 ar  
    44   22   45 1   
    45   23   24 ar  
    46   23   46 1   
    47   24   25 ar  
    48   24   47 1   
    49   25   26 1   
    50   26   48 1   
    51   26   49 1   
@<TRIPOS>SUBSTRUCTURE
     1 1AW         1 TEMP              0 ****  ****    0 ROOT
