@<TRIPOS>MOLECULE
1AW
   49    51     1     0     0
SMALL
bcc


@<TRIPOS>ATOM
      1 CBB         4.8270    0.1250    0.4860 ca        1 1AW     -0.155000
      2 CBA         6.2200    0.0940    0.4920 ca        1 1AW     -0.109000
      3 CAN         6.9600    1.0850   -0.1500 ca        1 1AW     -0.148000
      4 CAI         6.2980    2.1180   -0.8110 ca        1 1AW     -0.109000
      5 CAL         4.9080    2.1650   -0.8380 ca        1 1AW     -0.155000
      6 CAX         4.1490    1.1660   -0.1820 ca        1 1AW      0.054600
      7 NAS         2.7430    1.2880   -0.1600 n         1 1AW     -0.457100
      8 CAU         1.8820    0.1690   -0.1780 c         1 1AW      0.764100
      9 OAE         2.2850   -0.9930    0.0380 o         1 1AW     -0.591100
     10 NAT         0.5150    0.4250   -0.4680 n         1 1AW     -0.440100
     11 CAZ        -0.4450   -0.5550   -0.2050 cc        1 1AW      0.024300
     12 CAQ        -0.3760   -1.9490   -0.3820 cd        1 1AW     -0.269300
     13 CAY        -1.6900   -2.4410   -0.0190 cd        1 1AW      0.334600
     14 CBD        -2.1190   -3.8760   -0.0270 c3        1 1AW     -0.074300
     15 CAB        -0.9710   -4.7590   -0.5010 c3        1 1AW     -0.086100
     16 CAC        -2.5230   -4.2970    1.3820 c3        1 1AW     -0.086100
     17 CAA        -3.3050   -4.0530   -0.9690 c3        1 1AW     -0.086100
     18 NAR        -2.5000   -1.4080    0.3420 nc        1 1AW     -0.501800
     19 NBC        -1.7600   -0.2820    0.3020 na        1 1AW      0.125300
     20 CAW        -2.3240    1.0260    0.3790 ca        1 1AW      0.053800
     21 CAP        -3.5240    1.3280   -0.2840 ca        1 1AW     -0.184000
     22 CAK        -1.6720    2.0120    1.1480 ca        1 1AW     -0.200000
     23 CAH        -2.2230    3.2870    1.2260 ca        1 1AW     -0.082000
     24 CAJ        -3.4050    3.6060    0.5710 ca        1 1AW     -0.196000
     25 CAV        -4.0770    2.6270   -0.1970 ca        1 1AW      0.157600
     26 NAD        -5.2210    2.9550   -0.9260 nh        1 1AW     -0.822200
     27 HBB         4.2630   -0.6740    0.9940 ha        1 1AW      0.148500
     28 HBA         6.7350   -0.7260    1.0140 ha        1 1AW      0.134000
     29 HAN         8.0590    1.0520   -0.1370 ha        1 1AW      0.134000
     30 HAI         6.8750    2.9030   -1.3220 ha        1 1AW      0.134000
     31 HAL         4.4100    2.9890   -1.3690 ha        1 1AW      0.148500
     32 HNAS        2.4030    2.1350   -0.5640 hn        1 1AW      0.307500
     33 HNAT        0.1900    1.3690   -0.4410 hn        1 1AW      0.318500
     34 HAQ         0.4910   -2.5230   -0.6930 ha        1 1AW      0.191000
     35 HAB        -0.0940   -4.6580    0.1820 hc        1 1AW      0.039478
     36 HABA       -1.2970   -5.8270   -0.5100 hc        1 1AW      0.039478
     37 HABB       -0.6580   -4.4710   -1.5330 hc        1 1AW      0.039478
     38 HAC        -3.3980   -3.7000    1.7340 hc        1 1AW      0.039478
     39 HACA       -2.8040   -5.3780    1.3860 hc        1 1AW      0.039478
     40 HACB       -1.6750   -4.1440    2.0900 hc        1 1AW      0.039478
     41 HAA        -3.0370   -3.7140   -1.9980 hc        1 1AW      0.039478
     42 HAAA       -3.5960   -5.1300   -1.0110 hc        1 1AW      0.039478
     43 HAAB       -4.1810   -3.4610   -0.6120 hc        1 1AW      0.039478
     44 HAP        -4.0400    0.5520   -0.8710 ha        1 1AW      0.157000
     45 HAK        -0.7600    1.7770    1.7160 ha        1 1AW      0.144000
     46 HAH        -1.7150    4.0560    1.8290 ha        1 1AW      0.136000
     47 HAJ        -3.8150    4.6240    0.6530 ha        1 1AW      0.137000
     48 HNAD       -5.7940    2.1800   -1.1770 hn        1 1AW      0.396800
     49 HNAA       -5.7310    3.7330   -0.5730 hn        1 1AW      0.396800
@<TRIPOS>BOND
     1    1    2 ar  
     2    1    6 ar  
     3    1   27 1   
     4    2    3 ar  
     5    2   28 1   
     6    3    4 ar  
     7    3   29 1   
     8    4    5 ar  
     9    4   30 1   
    10    5    6 ar  
    11    5   31 1   
    12    6    7 1   
    13    7    8 1   
    14    7   32 1   
    15    8    9 2   
    16    8   10 1   
    17   10   11 1   
    18   10   33 1   
    19   11   12 2   
    20   11   19 1   
    21   12   13 1   
    22   12   34 1   
    23   13   14 1   
    24   13   18 2   
    25   14   15 1   
    26   14   16 1   
    27   14   17 1   
    28   15   35 1   
    29   15   36 1   
    30   15   37 1   
    31   16   38 1   
    32   16   39 1   
    33   16   40 1   
    34   17   41 1   
    35   17   42 1   
    36   17   43 1   
    37   18   19 1   
    38   19   20 1   
    39   20   21 ar  
    40   20   22 ar  
    41   21   25 ar  
    42   21   44 1   
    43   22   23 ar  
    44   22   45 1   
    45   23   24 ar  
    46   23   46 1   
    47   24   25 ar  
    48   24   47 1   
    49   25   26 1   
    50   26   48 1   
    51   26   49 1   
@<TRIPOS>SUBSTRUCTURE
     1 1AW         1 TEMP              0 ****  ****    0 ROOT
