@<TRIPOS>MOLECULE
1AW
   49    51     1     0     0
SMALL
bcc


@<TRIPOS>ATOM
      1 CBB         0.2050   -0.1500    0.3240 ca        1 1AW     -0.155000
      2 CBA         1.5550   -0.4260    0.5210 ca        1 1AW     -0.109000
      3 CAN         2.0900   -0.5000    1.8060 ca        1 1AW     -0.148000
      4 CAI         1.2630   -0.2890    2.9080 ca        1 1AW     -0.109000
      5 CAL        -0.0870   -0.0040    2.7350 ca        1 1AW     -0.155000
      6 CAX        -0.6390    0.0650    1.4330 ca        1 1AW      0.054600
      7 NAS        -2.0280    0.2760    1.2960 ns        1 1AW     -0.457100
      8 CAU        -2.5840    1.0000    0.2190 c         1 1AW      0.764100
      9 OAE        -1.9330    1.2860   -0.8070 o         1 1AW     -0.591100
     10 NAT        -3.9390    1.4070    0.3600 ns        1 1AW     -0.440100
     11 CAZ        -4.6510    1.8440   -0.7580 cc        1 1AW      0.024300
     12 CAQ        -4.2290    2.6440   -1.8360 cd        1 1AW     -0.269300
     13 CAY        -5.4120    2.8360   -2.6500 cd        1 1AW      0.334600
     14 CBD        -5.4760    3.6140   -3.9290 c3        1 1AW     -0.074300
     15 CAB        -4.1080    4.2070   -4.2450 c3        1 1AW     -0.086100
     16 CAC        -5.8940    2.6910   -5.0690 c3        1 1AW     -0.086100
     17 CAA        -6.4900    4.7450   -3.7940 c3        1 1AW     -0.086100
     18 NAR        -6.4790    2.2010   -2.0930 nc        1 1AW     -0.501800
     19 NBC        -6.0360    1.5480   -1.0010 na        1 1AW      0.125300
     20 CAW        -6.9060    0.9750   -0.0270 ca        1 1AW      0.053800
     21 CAP        -8.0750    1.6430    0.3690 ca        1 1AW     -0.184000
     22 CAK        -6.5900   -0.2850    0.5210 ca        1 1AW     -0.200000
     23 CAH        -7.4390   -0.8460    1.4690 ca        1 1AW     -0.082000
     24 CAJ        -8.5960   -0.1970    1.8790 ca        1 1AW     -0.196000
     25 CAV        -8.9330    1.0630    1.3320 ca        1 1AW      0.157600
     26 NAD       -10.0490    1.7640    1.7940 nv        1 1AW     -0.822200
     27 HBB        -0.1940   -0.0900   -0.7020 ha        1 1AW      0.148500
     28 HBA         2.2030   -0.5890   -0.3540 ha        1 1AW      0.134000
     29 HAN         3.1570   -0.7200    1.9500 ha        1 1AW      0.134000
     30 HAI         1.6780   -0.3430    3.9250 ha        1 1AW      0.134000
     31 HAL        -0.7180    0.1610    3.6210 ha        1 1AW      0.148500
     32 HNAS       -2.5240    0.2890    2.1620 hn        1 1AW      0.307500
     33 HNAT       -4.4850    1.0000    1.0910 hn        1 1AW      0.318500
     34 HAQ        -3.2220    3.0070   -2.0210 ha        1 1AW      0.191000
     35 HAB        -4.1610    4.7900   -5.1960 hc        1 1AW      0.039478
     36 HABA       -3.3490    3.3970   -4.3650 hc        1 1AW      0.039478
     37 HABB       -3.7790    4.8890   -3.4250 hc        1 1AW      0.039478
     38 HAC        -6.9170    2.2830   -4.8870 hc        1 1AW      0.039478
     39 HACA       -5.9020    3.2590   -6.0300 hc        1 1AW      0.039478
     40 HACB       -5.1790    1.8400   -5.1600 hc        1 1AW      0.039478
     41 HAA        -6.5040    5.3530   -4.7310 hc        1 1AW      0.039478
     42 HAAA       -7.5130    4.3350   -3.6190 hc        1 1AW      0.039478
     43 HAAB       -6.2170    5.4090   -2.9400 hc        1 1AW      0.039478
     44 HAP        -8.3290    2.6200   -0.0720 ha        1 1AW      0.157000
     45 HAK        -5.7050   -0.8450    0.1820 ha        1 1AW      0.144000
     46 HAH        -7.1930   -1.8320    1.8950 ha        1 1AW      0.136000
     47 HAJ        -9.2480   -0.6680    2.6300 ha        1 1AW      0.137000
     48 HNAD      -10.3890    2.4650    1.1730 hn        1 1AW      0.396800
     49 HNAA      -10.7640    1.1960    2.1880 hn        1 1AW      0.396800
@<TRIPOS>BOND
     1    1    2 ar  
     2    1    6 ar  
     3    1   27 1   
     4    2    3 ar  
     5    2   28 1   
     6    3    4 ar  
     7    3   29 1   
     8    4    5 ar  
     9    4   30 1   
    10    5    6 ar  
    11    5   31 1   
    12    6    7 1   
    13    7    8 1   
    14    7   32 1   
    15    8    9 2   
    16    8   10 1   
    17   10   11 1   
    18   10   33 1   
    19   11   12 2   
    20   11   19 1   
    21   12   13 1   
    22   12   34 1   
    23   13   14 1   
    24   13   18 2   
    25   14   15 1   
    26   14   16 1   
    27   14   17 1   
    28   15   35 1   
    29   15   36 1   
    30   15   37 1   
    31   16   38 1   
    32   16   39 1   
    33   16   40 1   
    34   17   41 1   
    35   17   42 1   
    36   17   43 1   
    37   18   19 1   
    38   19   20 1   
    39   20   21 ar  
    40   20   22 ar  
    41   21   25 ar  
    42   21   44 1   
    43   22   23 ar  
    44   22   45 1   
    45   23   24 ar  
    46   23   46 1   
    47   24   25 ar  
    48   24   47 1   
    49   25   26 1   
    50   26   48 1   
    51   26   49 1   
@<TRIPOS>SUBSTRUCTURE
     1 1AW         1 TEMP              0 ****  ****    0 ROOT
