@<TRIPOS>MOLECULE
1AW
   49    43     1     0     0
SMALL
bcc


@<TRIPOS>ATOM
      1 CBB         4.4320   -0.3420    2.5240 c1        1 1AW     -0.134000
      2 CBA         5.3760    0.2590    3.3420 c1        1 1AW     -0.137000
      3 CAN         5.0060    0.7470    4.5860 c1        1 1AW     -0.137000
      4 CAI         3.6920    0.6330    5.0120 c1        1 1AW     -0.137000
      5 CAL         2.7480    0.0320    4.1930 c1        1 1AW     -0.137000
      6 CAX         3.1180   -0.4550    2.9490 c1        1 1AW      0.065000
      7 NAS         2.1700   -1.1470    2.1480 n         1 1AW     -0.312000
      8 CAU         1.4710   -0.4580    1.1210 c2        1 1AW      0.390000
      9 OAE         1.6830    0.7220    0.9270 o         1 1AW     -0.352000
     10 NAT         0.5290   -1.1520    0.3150 n         1 1AW     -0.285000
     11 CAZ        -0.1660   -0.4650   -0.7180 c2        1 1AW      0.052000
     12 CAQ         0.3990    0.3350   -1.6690 c1        1 1AW     -0.208000
     13 CAY        -0.5880    0.7310   -2.5270 c1        1 1AW     -0.090000
     14 CBD        -0.4170    1.6550   -3.7160 c2        1 1AW      0.018000
     15 CAB         0.2840    2.9210   -3.2740 c3        1 1AW     -0.203000
     16 CAC         0.4110    0.9650   -4.7770 c3        1 1AW     -0.203000
     17 CAA        -1.7760    2.0040   -4.2840 c3        1 1AW     -0.203000
     18 NAR        -1.7470    0.1810   -2.1100 n2        1 1AW     -0.062000
     19 NBC        -1.4860   -0.5620   -0.9860 n3        1 1AW     -0.121000
     20 CAW        -2.3900   -1.2300   -0.2560 c1        1 1AW      0.099000
     21 CAP        -3.0060   -0.6100    0.8200 c1        1 1AW     -0.177000
     22 CAK        -2.6820   -2.5510   -0.5560 c1        1 1AW     -0.205000
     23 CAH        -3.5910   -3.2530    0.2210 c1        1 1AW     -0.137000
     24 CAJ        -4.2060   -2.6340    1.2970 c1        1 1AW     -0.137000
     25 CAV        -3.9140   -1.3120    1.5960 c1        1 1AW      0.074000
     26 NAD        -4.5690   -0.6680    2.6780 n3        1 1AW     -0.331000
     27 HBB         4.6930   -0.6850    1.6480 ha        1 1AW      0.170000
     28 HBA         6.3020    0.3390    3.0420 ha        1 1AW      0.133833
     29 HAN         5.6710    1.1700    5.1620 ha        1 1AW      0.133833
     30 HAI         3.4310    0.9760    5.8870 ha        1 1AW      0.133833
     31 HAL         1.8220   -0.0480    4.4930 ha        1 1AW      0.133833
     32 HNAS        1.9970   -2.0290    2.3060 hn        1 1AW      0.222000
     33 HNAT        0.3520   -2.0330    0.4750 hn        1 1AW      0.227000
     34 HAQ         1.3380    0.5960   -1.7160 DU        1 1AW      0.192000
     35 HAB         0.2970    3.5630   -4.0140 hc        1 1AW      0.078333
     36 HABA       -0.1940    3.3100   -2.5120 hc        1 1AW      0.078333
     37 HABB        1.2040    2.7100   -3.0080 hc        1 1AW      0.078333
     38 HAC        -0.0810    0.1910   -5.1230 hc        1 1AW      0.078333
     39 HACA        0.5920    1.5910   -5.5090 hc        1 1AW      0.078333
     40 HACB        1.2590    0.6650   -4.3870 hc        1 1AW      0.078333
     41 HAA        -2.3540    2.3380   -3.5670 hc        1 1AW      0.078333
     42 HAAA       -2.1790    1.2030   -4.6820 hc        1 1AW      0.078333
     43 HAAB       -1.6760    2.6950   -4.9720 hc        1 1AW      0.078333
     44 HAP        -2.8000    0.3200    1.0300 ha        1 1AW      0.157000
     45 HAK        -2.2490   -2.9880   -1.3130 ha        1 1AW      0.148000
     46 HAH        -3.7960   -4.1830    0.0110 ha        1 1AW      0.133833
     47 HAJ        -4.8460   -3.1280    1.8440 ha        1 1AW      0.133833
     48 HNAD       -5.1800   -1.1260    3.1800 hn        1 1AW      0.192000
     49 HNAA       -4.3850    0.2070    2.8680 hn        1 1AW      0.192000
@<TRIPOS>BOND
     1    1    6 1   
     2    1   27 1   
     3    2    3 1   
     4    2   28 1   
     5    3   29 1   
     6    4    5 1   
     7    4   30 1   
     8    5   31 1   
     9    6    7 1   
    10    7    8 1   
    11    7   32 1   
    12    8    9 1   
    13    8   10 1   
    14   10   11 1   
    15   10   33 1   
    16   11   12 1   
    17   11   19 1   
    18   12   13 1   
    19   13   18 1   
    20   14   15 1   
    21   14   16 1   
    22   14   17 1   
    23   15   35 1   
    24   15   36 1   
    25   15   37 1   
    26   16   38 1   
    27   16   39 1   
    28   16   40 1   
    29   17   41 1   
    30   17   42 1   
    31   17   43 1   
    32   18   19 1   
    33   19   20 1   
    34   20   22 1   
    35   21   25 1   
    36   21   44 1   
    37   22   45 1   
    38   23   24 1   
    39   23   46 1   
    40   24   47 1   
    41   25   26 1   
    42   26   48 1   
    43   26   49 1   
@<TRIPOS>SUBSTRUCTURE
     1 1AW         1 TEMP              0 ****  ****    0 ROOT
