@<TRIPOS>MOLECULE
1AW
   52    54     1     0     0
SMALL
bcc


@<TRIPOS>ATOM
      1 CBB        -0.1820    1.3370    2.4010 ca        1 1AW     -0.106000
      2 CBA         0.7700    0.3270    2.5360 ca        1 1AW     -0.083500
      3 CAN         1.0940   -0.4940    1.4540 ca        1 1AW     -0.017000
      4 CAI         0.4560   -0.3140    0.2180 ca        1 1AW     -0.083500
      5 CAL        -0.4970    0.6840    0.0540 ca        1 1AW     -0.106000
      6 CAX        -0.8160    1.5110    1.1550 ca        1 1AW     -0.155400
      7 NAS        -1.7280    2.6430    0.9640 n4        1 1AW     -0.482200
      8 CAU        -3.1430    2.3080    1.3170 c         1 1AW      0.480100
      9 OAE        -3.8040    3.0170    2.0560 o         1 1AW     -0.304100
     10 NAT        -3.7390    1.0440    0.7450 n4        1 1AW     -0.459200
     11 CAZ        -4.4780    1.3120   -0.4670 cc        1 1AW     -0.181700
     12 CAQ        -3.9470    1.4000   -1.7760 cd        1 1AW     -0.178300
     13 CAY        -5.0760    1.7500   -2.6130 cd        1 1AW      0.399600
     14 CBD        -5.0080    1.9450   -4.1030 c3        1 1AW     -0.092300
     15 CAB        -4.0040    3.0530   -4.4010 c3        1 1AW     -0.097767
     16 CAC        -4.5410    0.6360   -4.7340 c3        1 1AW     -0.097767
     17 CAA        -6.3650    2.3260   -4.6810 c3        1 1AW     -0.097767
     18 NAR        -6.1960    1.8620   -1.8390 nc        1 1AW     -0.396800
     19 NBC        -5.8680    1.6470   -0.5570 na        1 1AW      0.183300
     20 CAW        -6.8850    1.3850    0.4200 ca        1 1AW     -0.008200
     21 CAP        -7.9640    2.2880    0.5220 ca        1 1AW     -0.066000
     22 CAK        -6.8750    0.2080    1.1950 ca        1 1AW     -0.123000
     23 CAH        -7.9110   -0.0390    2.0940 ca        1 1AW     -0.067000
     24 CAJ        -8.9880    0.8410    2.2110 ca        1 1AW     -0.065000
     25 CAV        -9.0150    1.9940    1.4080 ca        1 1AW     -0.027400
     26 NAD       -10.1790    2.8820    1.4690 n4        1 1AW     -0.711000
     27 HBB        -0.3980    1.9900    3.2650 ha        1 1AW      0.164000
     28 HBA         1.2840    0.1920    3.5090 ha        1 1AW      0.205500
     29 HAN         1.8670   -1.2820    1.5650 ha        1 1AW      0.211000
     30 HAI         0.7300   -0.9570   -0.6410 ha        1 1AW      0.205500
     31 HAL        -0.9430    0.8450   -0.9410 ha        1 1AW      0.164000
     32 HNAS       -1.6850    2.9660   -0.0200 hn        1 1AW      0.513800
     33 HNAT       -2.9940    0.3520    0.5230 hn        1 1AW      0.509800
     34 HAQ        -2.9280    1.2300   -2.1220 ha        1 1AW      0.201000
     35 HAB        -2.9990    2.7980   -3.9900 hc        1 1AW      0.059478
     36 HABA       -3.9110    3.1760   -5.5100 hc        1 1AW      0.059478
     37 HABB       -4.3450    4.0240   -3.9700 hc        1 1AW      0.059478
     38 HAC        -4.4450    0.7750   -5.8400 hc        1 1AW      0.059478
     39 HACA       -3.5470    0.3330   -4.3280 hc        1 1AW      0.059478
     40 HACB       -5.2790   -0.1800   -4.5470 hc        1 1AW      0.059478
     41 HAA        -6.7300    3.2850   -4.2420 hc        1 1AW      0.059478
     42 HAAA       -6.2680    2.4610   -5.7870 hc        1 1AW      0.059478
     43 HAAB       -7.1180    1.5240   -4.4920 hc        1 1AW      0.059478
     44 HAP        -7.9900    3.1950   -0.1120 ha        1 1AW      0.192000
     45 HAK        -6.1020   -0.5670    1.0580 ha        1 1AW      0.158000
     46 HAH        -7.9020   -0.9640    2.7040 ha        1 1AW      0.205000
     47 HAJ        -9.8050    0.5990    2.9170 ha        1 1AW      0.198000
     48 HNAD       -9.9310    3.8320    1.1630 hn        1 1AW      0.484467
     49 HNAA      -10.9210    2.5160    0.8510 hn        1 1AW      0.484467
     50 HAS2       -1.4340    3.4300    1.5820 hn        1 1AW      0.513800
     51 HAT2       -4.3680    0.6470    1.4710 hn        1 1AW      0.509800
     52 HAD3      -10.5420    2.9250    2.4330 hn        1 1AW      0.484467
@<TRIPOS>BOND
     1    1    2 ar  
     2    1    6 ar  
     3    1   27 1   
     4    2    3 ar  
     5    2   28 1   
     6    3    4 ar  
     7    3   29 1   
     8    4    5 ar  
     9    4   30 1   
    10    5    6 ar  
    11    5   31 1   
    12    6    7 1   
    13    7    8 1   
    14    7   32 1   
    15    7   50 1   
    16    8    9 2   
    17    8   10 1   
    18   10   11 1   
    19   10   33 1   
    20   10   51 1   
    21   11   12 2   
    22   11   19 1   
    23   12   13 1   
    24   12   34 1   
    25   13   14 1   
    26   13   18 2   
    27   14   15 1   
    28   14   16 1   
    29   14   17 1   
    30   15   35 1   
    31   15   36 1   
    32   15   37 1   
    33   16   38 1   
    34   16   39 1   
    35   16   40 1   
    36   17   41 1   
    37   17   42 1   
    38   17   43 1   
    39   18   19 1   
    40   19   20 1   
    41   20   21 ar  
    42   20   22 ar  
    43   21   25 ar  
    44   21   44 1   
    45   22   23 ar  
    46   22   45 1   
    47   23   24 ar  
    48   23   46 1   
    49   24   25 ar  
    50   24   47 1   
    51   25   26 1   
    52   26   48 1   
    53   26   49 1   
    54   26   52 1   
@<TRIPOS>SUBSTRUCTURE
     1 1AW         1 TEMP              0 ****  ****    0 ROOT
