@<TRIPOS>MOLECULE
1AX
   25    24     1     0     0
SMALL
bcc


@<TRIPOS>ATOM
      1 OAA         0.2060   -0.5690    1.4600 oh        1 1AX     -0.614800
      2 CAE         1.4300    0.1360    1.3150 c3        1 1AX      0.092400
      3 CAJ         2.5310   -0.9270    1.2520 c3        1 1AX      0.144100
      4 OAC         2.3660   -1.7670    0.1190 oh        1 1AX     -0.604800
      5 CAG         3.9060   -0.2720    1.0950 c3        1 1AX      0.130400
      6 OAI         4.2480    0.2480    2.3790 os        1 1AX     -0.434600
      7 CAH         5.5650    0.7950    2.3950 c3        1 1AX      0.130400
      8 CAK         5.7530    1.4170    3.7810 c3        1 1AX      0.144100
      9 OAD         6.8730    2.2830    3.6720 oh        1 1AX     -0.604800
     10 CAF         5.9970    0.3310    4.8320 c3        1 1AX      0.092400
     11 OAB         6.1560    1.0060    6.0710 oh        1 1AX     -0.614800
     12 H1         -0.4900    0.0940    1.5260 ho        1 1AX      0.409000
     13 H2          1.6080    0.8090    2.1940 h1        1 1AX      0.041700
     14 H3          1.4130    0.7400    0.3690 h1        1 1AX      0.041700
     15 H4          2.5020   -1.5490    2.1890 h1        1 1AX      0.062700
     16 H5          1.4560   -2.0890    0.1510 ho        1 1AX      0.424000
     17 H6          4.6580   -1.0380    0.7710 h1        1 1AX      0.046200
     18 H7          3.8730    0.5610    0.3450 h1        1 1AX      0.046200
     19 H8          5.6700    1.5850    1.6050 h1        1 1AX      0.046200
     20 H9          6.3160   -0.0180    2.2120 h1        1 1AX      0.046200
     21 H10         4.8420    2.0140    4.0650 h1        1 1AX      0.062700
     22 H11         7.0690    2.5860    4.5690 ho        1 1AX      0.424000
     23 H12         6.9270   -0.2480    4.5910 h1        1 1AX      0.041700
     24 H13         5.1160   -0.3610    4.8670 h1        1 1AX      0.041700
     25 H14         6.2840    0.3280    6.7430 ho        1 1AX      0.409000
@<TRIPOS>BOND
     1    1    2 1   
     2    1   12 1   
     3    2    3 1   
     4    2   13 1   
     5    2   14 1   
     6    3    4 1   
     7    3    5 1   
     8    3   15 1   
     9    4   16 1   
    10    5    6 1   
    11    5   17 1   
    12    5   18 1   
    13    6    7 1   
    14    7    8 1   
    15    7   19 1   
    16    7   20 1   
    17    8    9 1   
    18    8   10 1   
    19    8   21 1   
    20    9   22 1   
    21   10   11 1   
    22   10   23 1   
    23   10   24 1   
    24   11   25 1   
@<TRIPOS>SUBSTRUCTURE
     1 1AX         1 TEMP              0 ****  ****    0 ROOT
