@<TRIPOS>MOLECULE
1AX
   25    24     1     0     0
SMALL
bcc


@<TRIPOS>ATOM
      1 OAA        -3.7070    1.1510    1.1380 oh        1 1AX     -0.601800
      2 CAE        -3.6670    0.5010   -0.1200 c3        1 1AX      0.095400
      3 CAJ        -2.3610   -0.3040   -0.1810 c3        1 1AX      0.139100
      4 OAC        -2.3820   -1.1300   -1.3290 oh        1 1AX     -0.581800
      5 CAG        -1.1690    0.6520   -0.1510 c3        1 1AX      0.096400
      6 OAI         0.0000   -0.1470   -0.0050 os        1 1AX     -0.406600
      7 CAH         1.1690    0.6460    0.1790 c3        1 1AX      0.096400
      8 CAK         2.3620   -0.3090    0.1630 c3        1 1AX      0.139100
      9 OAD         2.3850   -1.1880    1.2700 oh        1 1AX     -0.581800
     10 CAF         3.6670    0.5000    0.1410 c3        1 1AX      0.095400
     11 OAB         3.7050    1.2100   -1.0850 oh        1 1AX     -0.601800
     12 H1         -4.6050    1.4840    1.2480 ho        1 1AX      0.405000
     13 H2         -4.5370   -0.1990   -0.2380 h1        1 1AX      0.032200
     14 H3         -3.6970    1.2640   -0.9430 h1        1 1AX      0.032200
     15 H4         -2.3030   -1.0210    0.6860 h1        1 1AX      0.103700
     16 H5         -2.1280   -0.5880   -2.0850 ho        1 1AX      0.399000
     17 H6         -1.1040    1.2410   -1.1050 h1        1 1AX      0.040700
     18 H7         -1.2760    1.3550    0.7180 h1        1 1AX      0.040700
     19 H8          1.2750    1.3900   -0.6560 h1        1 1AX      0.040700
     20 H9          1.1020    1.1900    1.1590 h1        1 1AX      0.040700
     21 H10         2.3050   -0.9840   -0.7370 h1        1 1AX      0.103700
     22 H11         2.1290   -0.6820    2.0520 ho        1 1AX      0.399000
     23 H12         3.6950    1.2240    0.9990 h1        1 1AX      0.032200
     24 H13         4.5370   -0.2020    0.2260 h1        1 1AX      0.032200
     25 H14         4.6030    1.5490   -1.1790 ho        1 1AX      0.405000
@<TRIPOS>BOND
     1    1    2 1   
     2    1   12 1   
     3    2    3 1   
     4    2   13 1   
     5    2   14 1   
     6    3    4 1   
     7    3    5 1   
     8    3   15 1   
     9    4   16 1   
    10    5    6 1   
    11    5   17 1   
    12    5   18 1   
    13    6    7 1   
    14    7    8 1   
    15    7   19 1   
    16    7   20 1   
    17    8    9 1   
    18    8   10 1   
    19    8   21 1   
    20    9   22 1   
    21   10   11 1   
    22   10   23 1   
    23   10   24 1   
    24   11   25 1   
@<TRIPOS>SUBSTRUCTURE
     1 1AX         1 TEMP              0 ****  ****    0 ROOT
