@<TRIPOS>MOLECULE
1AX
   25    24     1     0     0
SMALL
bcc


@<TRIPOS>ATOM
      1 OAA        -4.0470   -0.1920   -2.5400 oh        1 1AX     -0.614800
      2 CAE        -2.6360   -0.1920   -2.5400 c3        1 1AX      0.092400
      3 CAJ        -2.1330   -0.1920   -1.1150 c3        1 1AX      0.144100
      4 OAC        -2.5960   -1.3450   -0.4530 oh        1 1AX     -0.604800
      5 CAG        -0.6210   -0.1840   -1.1150 c3        1 1AX      0.130400
      6 OAI        -0.1520    0.0230    0.1970 os        1 1AX     -0.434600
      7 CAH         1.2500    0.1030    0.2960 c3        1 1AX      0.130400
      8 CAK         1.6450    0.2560    1.7480 c3        1 1AX      0.144100
      9 OAD         1.2430    1.5220    2.2120 oh        1 1AX     -0.604800
     10 CAF         3.1460    0.1250    1.8780 c3        1 1AX      0.092400
     11 OAB         3.5130    0.2610    3.2330 oh        1 1AX     -0.614800
     12 H1         -4.3430   -0.1030   -3.3720 ho        1 1AX      0.409000
     13 H2         -2.3110    0.6050   -3.0000 h1        1 1AX      0.041700
     14 H3         -2.3110   -0.9890   -3.0000 h1        1 1AX      0.041700
     15 H4         -2.4620    0.6020   -0.6530 h1        1 1AX      0.062700
     16 H5         -3.1580   -1.1100    0.1920 ho        1 1AX      0.424000
     17 H6         -0.2990    0.5340   -1.6920 h1        1 1AX      0.046200
     18 H7         -0.2910   -1.0410   -1.4470 h1        1 1AX      0.046200
     19 H8          1.6490   -0.7110   -0.0650 h1        1 1AX      0.046200
     20 H9          1.5690    0.8740   -0.2110 h1        1 1AX      0.046200
     21 H10         1.2100   -0.4380    2.2780 h1        1 1AX      0.062700
     22 H11         0.7470    1.4260    2.9420 ho        1 1AX      0.424000
     23 H12         3.5800    0.8220    1.3520 h1        1 1AX      0.041700
     24 H13         3.4250   -0.7510    1.5520 h1        1 1AX      0.041700
     25 H14         4.3810    0.0970    3.3220 ho        1 1AX      0.409000
@<TRIPOS>BOND
     1    1    2 1   
     2    1   12 1   
     3    2    3 1   
     4    2   13 1   
     5    2   14 1   
     6    3    4 1   
     7    3    5 1   
     8    3   15 1   
     9    4   16 1   
    10    5    6 1   
    11    5   17 1   
    12    5   18 1   
    13    6    7 1   
    14    7    8 1   
    15    7   19 1   
    16    7   20 1   
    17    8    9 1   
    18    8   10 1   
    19    8   21 1   
    20    9   22 1   
    21   10   11 1   
    22   10   23 1   
    23   10   24 1   
    24   11   25 1   
@<TRIPOS>SUBSTRUCTURE
     1 1AX         1 TEMP              0 ****  ****    0 ROOT
