@<TRIPOS>MOLECULE
1AX
   25    24     1     0     0
SMALL
bcc


@<TRIPOS>ATOM
      1 OAA         0.1830   -0.4180    1.4470 oh        1 1AX     -0.614800
      2 CAE         1.4340    0.2380    1.3070 c3        1 1AX      0.092400
      3 CAJ         2.4920   -0.8660    1.2450 c3        1 1AX      0.144100
      4 OAC         2.2990   -1.6970    0.1100 oh        1 1AX     -0.604800
      5 CAG         3.8920   -0.2640    1.0930 c3        1 1AX      0.130400
      6 OAI         4.2500    0.2420    2.3780 os        1 1AX     -0.435600
      7 CAH         5.5880    0.7360    2.4000 c3        1 1AX      0.130400
      8 CAK         5.7940    1.3520    3.7860 c3        1 1AX      0.144100
      9 OAD         6.9490    2.1710    3.6820 oh        1 1AX     -0.604800
     10 CAF         5.9870    0.2590    4.8400 c3        1 1AX      0.092400
     11 OAB         6.1670    0.9290    6.0780 oh        1 1AX     -0.614800
     12 H1         -0.4870    0.2710    1.5130 ho        1 1AX      0.409000
     13 H2          1.6350    0.9030    2.1880 h1        1 1AX      0.041700
     14 H3          1.4420    0.8450    0.3620 h1        1 1AX      0.041700
     15 H4          2.4370   -1.4880    2.1810 h1        1 1AX      0.062700
     16 H5          1.3760   -1.9830    0.1390 ho        1 1AX      0.424000
     17 H6          4.6150   -1.0590    0.7720 h1        1 1AX      0.046200
     18 H7          3.8940    0.5690    0.3430 h1        1 1AX      0.046200
     19 H8          5.7270    1.5190    1.6090 h1        1 1AX      0.046200
     20 H9          6.3060   -0.1060    2.2210 h1        1 1AX      0.046200
     21 H10         4.9070    1.9860    4.0640 h1        1 1AX      0.062700
     22 H11         7.1530    2.4660    4.5790 ho        1 1AX      0.424000
     23 H12         6.8940   -0.3590    4.6050 h1        1 1AX      0.041700
     24 H13         5.0770   -0.3970    4.8720 h1        1 1AX      0.041700
     25 H14         6.2640    0.2470    6.7520 ho        1 1AX      0.409000
@<TRIPOS>BOND
     1    1    2 1   
     2    1   12 1   
     3    2    3 1   
     4    2   13 1   
     5    2   14 1   
     6    3    4 1   
     7    3    5 1   
     8    3   15 1   
     9    4   16 1   
    10    5    6 1   
    11    5   17 1   
    12    5   18 1   
    13    6    7 1   
    14    7    8 1   
    15    7   19 1   
    16    7   20 1   
    17    8    9 1   
    18    8   10 1   
    19    8   21 1   
    20    9   22 1   
    21   10   11 1   
    22   10   23 1   
    23   10   24 1   
    24   11   25 1   
@<TRIPOS>SUBSTRUCTURE
     1 1AX         1 TEMP              0 ****  ****    0 ROOT
