@<TRIPOS>MOLECULE
1AY
   70    73     1     0     0
SMALL
bcc


@<TRIPOS>ATOM
      1 C3         -5.3470    0.6220   -1.0260 c2        1 1AY     -0.020000
      2 C5         -6.7560    0.9580   -1.1970 c2        1 1AY     -0.131000
      3 C6         -7.5140    0.3180   -2.1210 c2        1 1AY     -0.094000
      4 C4         -4.5480    1.3080   -0.0950 c2        1 1AY      0.032000
      5 N2         -4.7970   -0.4110   -1.8080 n2        1 1AY     -0.121000
      6 C7         -6.9450   -0.7110   -2.9420 c2        1 1AY     -0.714000
      7 C1         -5.5510   -1.0040   -2.6870 c2        1 1AY     -0.007000
      8 N25        -5.1460    2.3350    0.6800 n2        1 1AY     -0.189000
      9 C23        -4.4120    2.9710    1.5610 c2        1 1AY      0.096000
     10 C24        -5.0300    4.0590    2.3890 c3        1 1AY     -0.190000
     11 N9         -3.1800    0.9680    0.0400 n2        1 1AY     -0.173000
     12 C10        -2.4620    1.6180    0.9330 c2        1 1AY      0.130000
     13 C21        -3.0150    2.6690    1.7790 c2        1 1AY     -0.801000
     14 CL2        -2.0690    3.4080    2.8930 cl        1 1AY      1.270000
     15 N11        -1.0530    1.3520    1.1440 nh        1 1AY     -0.295000
     16 C12        -0.7620   -0.0480    1.4100 c3        1 1AY     -0.068000
     17 C13         0.7640   -0.3300    1.5240 c3        1 1AY      0.009000
     18 C14         0.9200   -1.7440    2.0370 ca        1 1AY     -0.115000
     19 C26         0.4890   -2.8320    1.2700 ca        1 1AY     -0.120500
     20 C27         0.6320   -4.1320    1.7520 ca        1 1AY     -0.129500
     21 C28         1.2060   -4.3550    3.0040 ca        1 1AY     -0.127000
     22 C29         1.6370   -3.2740    3.7720 ca        1 1AY     -0.129500
     23 C30         1.4960   -1.9730    3.2910 ca        1 1AY     -0.120500
     24 N15         1.4470   -0.0470    0.2700 n3        1 1AY     -0.300000
     25 C16         2.8930   -0.0960    0.3670 c3        1 1AY     -0.075000
     26 C17         3.5860   -0.0870   -0.9950 c3        1 1AY     -0.164000
     27 C18         5.0880   -0.0640   -0.8120 c3        1 1AY     -0.154000
     28 C19         5.7970   -0.0680   -2.1530 c3        1 1AY     -0.123000
     29 C31         7.2760   -0.0040   -1.9940 ca        1 1AY     -0.070000
     30 C36         7.8930    1.1990   -1.6270 ca        1 1AY     -0.127500
     31 C35         9.2770    1.2650   -1.4840 ca        1 1AY     -0.128000
     32 C34        10.0590    0.1310   -1.7060 ca        1 1AY     -0.133000
     33 C33         9.4510   -1.0690   -2.0720 ca        1 1AY     -0.128000
     34 C32         8.0660   -1.1380   -2.2160 ca        1 1AY     -0.127500
     35 H1         -7.1980    1.7330   -0.5550 ha        1 1AY      0.148000
     36 H2         -8.5790    0.5630   -2.2440 ha        1 1AY      0.108000
     37 H3         -7.8110   -0.8740   -5.4540 ha        1 1AY     -0.189000
     38 H4         -7.1710   -2.5530   -4.5290 ha        1 1AY     -0.189000
     39 H5         -9.0840   -1.3170   -3.9610 ha        1 1AY     -0.189000
     40 H6         -5.0700   -1.8130   -3.2690 h4        1 1AY      0.126000
     41 H7         -4.9800    3.7840    3.4710 hc        1 1AY      0.086667
     42 H8         -4.4800    5.0180    2.2240 hc        1 1AY      0.086667
     43 H9         -6.1030    4.2260    2.1230 hc        1 1AY      0.086667
     44 H10        -1.4590    2.5460    3.7390 ha        1 1AY     -0.129667
     45 H11        -0.9730    4.0050    2.3700 ha        1 1AY     -0.129667
     46 H12        -2.7230    4.3160    3.6190 ha        1 1AY     -0.129667
     47 H13        -0.5380    1.6680    0.3380 hn        1 1AY      0.187000
     48 H14        -1.2280   -0.3080    2.4010 h1        1 1AY      0.095500
     49 H15        -1.1970   -0.7420    0.6350 h1        1 1AY      0.095500
     50 H16         1.2000    0.3760    2.2950 h1        1 1AY      0.102000
     51 H17         0.0250   -2.6620    0.2850 ha        1 1AY      0.133000
     52 H18         0.2870   -4.9820    1.1450 ha        1 1AY      0.132500
     53 H19         1.3170   -5.3810    3.3840 ha        1 1AY      0.132000
     54 H20         2.0890   -3.4470    4.7600 ha        1 1AY      0.132500
     55 H21         1.8380   -1.1250    3.9020 ha        1 1AY      0.133000
     56 H22         1.1160   -0.6600   -0.4530 hn        1 1AY      0.158000
     57 H24         3.2180    0.8130    0.9480 h1        1 1AY      0.072500
     58 H25         3.2490   -1.0030    0.9410 h1        1 1AY      0.072500
     59 H26         3.2920   -0.9970   -1.5820 hc        1 1AY      0.086500
     60 H27         3.2620    0.8100   -1.5850 hc        1 1AY      0.086500
     61 H28         5.3860    0.8520   -0.2350 hc        1 1AY      0.084500
     62 H29         5.4120   -0.9550   -0.2130 hc        1 1AY      0.084500
     63 H30         5.5110   -0.9930   -2.7220 hc        1 1AY      0.088500
     64 H31         5.4510    0.8130   -2.7590 hc        1 1AY      0.088500
     65 H32         7.2770    2.0940   -1.4530 ha        1 1AY      0.131000
     66 H33         9.7540    2.2140   -1.1970 ha        1 1AY      0.130000
     67 H34        11.1510    0.1840   -1.5940 ha        1 1AY      0.130000
     68 H35        10.0640   -1.9650   -2.2490 ha        1 1AY      0.130000
     69 H36         7.5910   -2.0870   -2.5060 ha        1 1AY      0.131000
     70 CL8        -7.7490   -1.3800   -4.1800 cl        1 1AY      1.239000
@<TRIPOS>BOND
     1    1    2 1   
     2    1    4 1   
     3    1    5 1   
     4    2    3 1   
     5    2   35 1   
     6    3    6 1   
     7    3   36 1   
     8    4    8 1   
     9    4   11 1   
    10    5    7 1   
    11    6    7 1   
    12    6   70 1   
    13    7   40 1   
    14    8    9 1   
    15    9   10 1   
    16    9   13 1   
    17   10   41 1   
    18   10   42 1   
    19   10   43 1   
    20   11   12 1   
    21   12   13 1   
    22   12   15 1   
    23   13   14 1   
    24   14   44 1   
    25   14   45 1   
    26   14   46 1   
    27   15   16 1   
    28   15   47 1   
    29   16   17 1   
    30   16   48 1   
    31   16   49 1   
    32   17   18 1   
    33   17   24 1   
    34   17   50 1   
    35   18   19 1   
    36   18   23 1   
    37   19   20 1   
    38   19   51 1   
    39   20   21 1   
    40   20   52 1   
    41   21   22 1   
    42   21   53 1   
    43   22   23 1   
    44   22   54 1   
    45   23   55 1   
    46   24   25 1   
    47   24   56 1   
    48   25   26 1   
    49   25   57 1   
    50   25   58 1   
    51   26   27 1   
    52   26   59 1   
    53   26   60 1   
    54   27   28 1   
    55   27   61 1   
    56   27   62 1   
    57   28   29 1   
    58   28   63 1   
    59   28   64 1   
    60   29   30 1   
    61   29   34 1   
    62   30   31 1   
    63   30   65 1   
    64   31   32 1   
    65   31   66 1   
    66   32   33 1   
    67   32   67 1   
    68   33   34 1   
    69   33   68 1   
    70   34   69 1   
    71   37   70 1   
    72   38   70 1   
    73   39   70 1   
@<TRIPOS>SUBSTRUCTURE
     1 1AY         1 TEMP              0 ****  ****    0 ROOT
