@<TRIPOS>MOLECULE
1AY
   70    63     1     0     0
SMALL
bcc


@<TRIPOS>ATOM
      1 C3          4.3630   -3.4890   -1.0210 c1        1 1AY     -0.011000
      2 C5          4.2240   -4.6320   -1.8070 c1        1 1AY     -0.127500
      3 C6          4.6650   -5.8440   -1.3380 c1        1 1AY     -0.127500
      4 C4          3.8060   -2.1480   -1.5150 c2        1 1AY      0.020000
      5 N2          4.9350   -3.5740    0.2090 n1        1 1AY     -0.134000
      6 CL8         5.7240   -7.2970    0.4370 cl        1 1AY      1.247000
      7 C7          5.2430   -5.9300   -0.0970 c1        1 1AY     -0.734000
      8 C1          5.3790   -4.7900    0.6830 c1        1 1AY      0.001000
      9 N25         4.7100   -1.4430   -2.2880 n2        1 1AY     -0.186000
     10 C23         4.7680   -0.1080   -2.2050 c1        1 1AY      0.093000
     11 C24         5.8560    0.6770   -3.0130 c2        1 1AY     -0.190000
     12 N9          2.9630   -1.4790   -0.6560 n1        1 1AY     -0.182000
     13 C10         3.0150   -0.1340   -0.5670 c1        1 1AY      0.127000
     14 C21         3.9180    0.5710   -1.3400 c2        1 1AY     -0.806000
     15 CL2         3.9730    2.0740   -1.2580 cl        1 1AY      1.272000
     16 N11         2.1950    0.5620    0.4260 n3        1 1AY     -0.292000
     17 C12         1.0960    1.3850    0.0010 c3        1 1AY     -0.066000
     18 C13        -0.0330    1.3030    1.0260 c3        1 1AY     -0.035000
     19 C14         0.2320    2.2780    2.1530 c2        1 1AY     -0.078000
     20 C26         0.6540    3.5640    1.8710 c2        1 1AY     -0.106000
     21 C27         0.9570    4.4380    2.9070 c1        1 1AY     -0.140000
     22 C28         0.8360    4.0170    4.2300 c1        1 1AY     -0.127500
     23 C29         0.4150    2.7320    4.5100 c1        1 1AY     -0.127500
     24 C30         0.1120    1.8600    3.4760 c1        1 1AY     -0.136000
     25 N15        -1.2570    1.6280    0.3990 n3        1 1AY     -0.288000
     26 C16        -2.2500    0.7250    0.8140 c3        1 1AY     -0.079000
     27 C17        -3.2470    0.4520   -0.3740 c3        1 1AY     -0.206000
     28 C18        -4.7100    0.7980    0.0810 c3        1 1AY     -0.147000
     29 C19        -5.7410   -0.0410   -0.7740 c3        1 1AY     -0.125000
     30 C31        -7.0610    0.6540   -0.7910 c1        1 1AY     -0.068000
     31 C36        -7.3200    1.6420   -1.7420 c1        1 1AY     -0.127500
     32 C35        -8.5580    2.2690   -1.7720 c1        1 1AY     -0.127500
     33 C34        -9.5380    1.9140   -0.8570 c1        1 1AY     -0.127500
     34 C33        -9.2780    0.9250    0.0950 c1        1 1AY     -0.127500
     35 C32        -8.0410    0.2990    0.1250 c1        1 1AY     -0.131000
     36 H1          3.8080   -4.5690   -2.7010 ha        1 1AY      0.128875
     37 H2          4.5700   -6.6320   -1.8790 ha        1 1AY      0.128875
     38 H3          5.1030   -7.6170    1.1290 ha        1 1AY     -0.177000
     39 H4          6.6210   -7.2020    0.8220 ha        1 1AY     -0.177000
     40 H5          5.7520   -7.9520   -0.3100 ha        1 1AY     -0.177000
     41 H6          5.7880   -4.8480    1.5610 ha        1 1AY      0.123000
     42 H7          5.4380    1.4230   -3.4820 ha        1 1AY      0.086000
     43 H8          6.5390    1.0210   -2.3940 ha        1 1AY      0.086000
     44 H9          6.2800    0.0720   -3.6690 ha        1 1AY      0.086000
     45 H10         3.4520    2.4560   -1.9820 ha        1 1AY     -0.130667
     46 H11         3.6080    2.3680   -0.4040 ha        1 1AY     -0.130667
     47 H12         4.8990    2.3690   -1.3340 ha        1 1AY     -0.130667
     48 H13         2.3410    0.4170    1.3270 hn        1 1AY      0.181000
     49 H14         0.7650    1.0680   -0.8770 h1        1 1AY      0.096500
     50 H15         1.3950    2.3090   -0.0780 h1        1 1AY      0.096500
     51 H16        -0.0820    0.3870    1.3890 h1        1 1AY      0.118000
     52 H17         0.7380    3.8570    0.9460 ha        1 1AY      0.145000
     53 H18         1.2550    5.3480    2.7090 ha        1 1AY      0.128000
     54 H19         1.0470    4.6260    4.9540 ha        1 1AY      0.128875
     55 H20         0.3290    2.4330    5.4500 ha        1 1AY      0.128875
     56 H21        -0.1840    0.9570    3.6740 ha        1 1AY      0.148000
     57 H22        -1.1580    1.5750   -0.5040 hn        1 1AY      0.152000
     58 H24        -2.7410    1.1070    1.5720 h1        1 1AY      0.091500
     59 H25        -1.8260   -0.1270    1.0920 h1        1 1AY      0.091500
     60 H26        -3.2000   -0.4940   -0.6270 hc        1 1AY      0.094000
     61 H27        -3.0000    1.0130   -1.1490 hc        1 1AY      0.094000
     62 H28        -4.8800    1.7730   -0.0560 hc        1 1AY      0.082000
     63 H29        -4.8180    0.5740    1.0470 hc        1 1AY      0.082000
     64 H30        -5.8480   -0.9380   -0.3710 hc        1 1AY      0.089000
     65 H31        -5.4100   -0.1320   -1.6850 hc        1 1AY      0.089000
     66 H32        -6.6170    1.8960   -2.3980 ha        1 1AY      0.128875
     67 H33        -8.7400    2.9610   -2.4390 ha        1 1AY      0.128875
     68 H34       -10.4100    2.3550   -0.8780 ha        1 1AY      0.128875
     69 H35        -9.9570    0.6780    0.7310 ha        1 1AY      0.128875
     70 H36        -7.8600   -0.3890    0.7850 ha        1 1AY      0.134000
@<TRIPOS>BOND
     1    1    4 1   
     2    1    5 1   
     3    2    3 1   
     4    2   36 1   
     5    3   37 1   
     6    4    9 1   
     7    4   12 1   
     8    6    7 1   
     9    6   38 1   
    10    6   39 1   
    11    6   40 1   
    12    7    8 1   
    13    8   41 1   
    14    9   10 1   
    15   10   14 1   
    16   11   42 1   
    17   11   43 1   
    18   11   44 1   
    19   13   14 1   
    20   13   16 1   
    21   14   15 1   
    22   15   45 1   
    23   15   46 1   
    24   15   47 1   
    25   16   17 1   
    26   16   48 1   
    27   17   18 1   
    28   17   49 1   
    29   17   50 1   
    30   18   19 1   
    31   18   25 1   
    32   18   51 1   
    33   19   20 1   
    34   19   24 1   
    35   20   21 1   
    36   20   52 1   
    37   21   53 1   
    38   22   23 1   
    39   22   54 1   
    40   23   55 1   
    41   24   56 1   
    42   25   26 1   
    43   25   57 1   
    44   26   27 1   
    45   26   58 1   
    46   26   59 1   
    47   27   28 1   
    48   27   60 1   
    49   27   61 1   
    50   28   29 1   
    51   28   62 1   
    52   28   63 1   
    53   29   30 1   
    54   29   64 1   
    55   29   65 1   
    56   30   35 1   
    57   31   32 1   
    58   31   66 1   
    59   32   67 1   
    60   33   34 1   
    61   33   68 1   
    62   34   69 1   
    63   35   70 1   
@<TRIPOS>SUBSTRUCTURE
     1 1AY         1 TEMP              0 ****  ****    0 ROOT
