@<TRIPOS>MOLECULE
1AY
   65    68     1     0     0
SMALL
bcc


@<TRIPOS>ATOM
      1 C3         -2.4000    1.8750   -1.7190 cp        1 1AY      0.337300
      2 C5         -1.3460    2.6820   -1.2450 ca        1 1AY     -0.171300
      3 C6         -1.6250    3.9970   -0.8610 ca        1 1AY     -0.088000
      4 C4         -2.1040    0.4660   -2.1470 cp        1 1AY      0.650000
      5 N2         -3.6830    2.3170   -1.8160 nb        1 1AY     -0.681000
      6 C7         -2.9380    4.4630   -0.9620 ca        1 1AY     -0.080900
      7 C1         -3.9330    3.5810   -1.4480 ca        1 1AY      0.393200
      8 N25        -0.9030    0.2300   -2.7510 nb        1 1AY     -0.696000
      9 C23        -0.6530   -1.0390   -3.1590 ca        1 1AY      0.512600
     10 C24         0.6530   -1.3450   -3.8160 c3        1 1AY     -0.169400
     11 N9         -3.0710   -0.4650   -1.9050 nb        1 1AY     -0.802000
     12 C10        -2.8400   -1.7420   -2.3390 ca        1 1AY      0.658200
     13 C21        -1.6040   -2.0760   -2.9780 ca        1 1AY     -0.278200
     14 CL2        -1.2950   -3.6490   -3.5020 cl        1 1AY     -0.033400
     15 N11        -3.8730   -2.6870   -2.2190 nh        1 1AY     -0.865900
     16 C12        -4.8700   -2.5440   -1.1940 c3        1 1AY      0.189800
     17 C13        -6.1880   -1.8660   -1.6770 c3        1 1AY      0.178800
     18 C14        -7.1400   -1.8100   -0.5170 ca        1 1AY     -0.171300
     19 C26        -6.8330   -1.0670    0.6290 ca        1 1AY     -0.112000
     20 C27        -7.7160   -1.0560    1.7080 ca        1 1AY     -0.116500
     21 C28        -8.9030   -1.7880    1.6490 ca        1 1AY     -0.088000
     22 C29        -9.2090   -2.5310    0.5080 ca        1 1AY     -0.116500
     23 C30        -8.3320   -2.5420   -0.5760 ca        1 1AY     -0.112000
     24 N15        -5.9500   -0.5000   -2.2630 n4        1 1AY     -0.749000
     25 C16        -7.2070    0.1260   -2.7670 c3        1 1AY      0.103800
     26 C17        -6.9650    1.4960   -3.3880 c3        1 1AY     -0.106400
     27 C18        -8.2910    2.0840   -3.8300 c3        1 1AY     -0.077400
     28 C19        -8.0850    3.4450   -4.4700 c3        1 1AY     -0.029100
     29 C31        -9.3830    4.0440   -4.8870 ca        1 1AY     -0.099300
     30 C36        -9.7560    4.0580   -6.2360 ca        1 1AY     -0.125000
     31 C35       -10.9670    4.6310   -6.6220 ca        1 1AY     -0.122500
     32 C34       -11.8130    5.1930   -5.6660 ca        1 1AY     -0.119000
     33 C33       -11.4440    5.1840   -4.3210 ca        1 1AY     -0.122500
     34 C32       -10.2340    4.6120   -3.9320 ca        1 1AY     -0.125000
     35 H1         -0.3180    2.2930   -1.1810 ha        1 1AY      0.177000
     36 H2         -0.8190    4.6500   -0.4890 ha        1 1AY      0.173000
     37 H3         -4.9820    3.9170   -1.5490 h4        1 1AY      0.035100
     38 H4          0.4640   -1.7440   -4.8450 hc        1 1AY      0.079367
     39 H5          1.1910   -2.1250   -3.2210 hc        1 1AY      0.079367
     40 H6          1.3070   -0.4420   -3.8970 hc        1 1AY      0.079367
     41 H7         -3.5870   -3.6290   -2.4010 hn        1 1AY      0.449800
     42 H8         -4.4840   -1.9780   -0.2970 h1        1 1AY      0.090200
     43 H9         -5.1830   -3.5710   -0.8410 h1        1 1AY      0.090200
     44 H10        -6.6330   -2.4890   -2.5120 hx        1 1AY      0.101700
     45 H11        -5.8930   -0.4980    0.6950 ha        1 1AY      0.139500
     46 H12        -7.4720   -0.4720    2.6100 ha        1 1AY      0.157000
     47 H13        -9.5970   -1.7810    2.5050 ha        1 1AY      0.159000
     48 H14       -10.1430   -3.1120    0.4620 ha        1 1AY      0.157000
     49 H15        -8.5790   -3.1340   -1.4700 ha        1 1AY      0.139500
     50 H16        -5.5260    0.1110   -1.5510 hn        1 1AY      0.465800
     51 H18        -7.9230    0.2120   -1.9000 hx        1 1AY      0.099700
     52 H19        -7.6580   -0.5680   -3.5330 hx        1 1AY      0.099700
     53 H20        -6.2790    1.4090   -4.2720 hc        1 1AY      0.068200
     54 H21        -6.4740    2.1830   -2.6470 hc        1 1AY      0.068200
     55 H22        -8.7870    1.3960   -4.5640 hc        1 1AY      0.055700
     56 H23        -8.9770    2.1870   -2.9480 hc        1 1AY      0.055700
     57 H24        -7.4050    3.3420   -5.3570 hc        1 1AY      0.051700
     58 H25        -7.5760    4.1290   -3.7380 hc        1 1AY      0.051700
     59 H26        -9.0900    3.6220   -6.9950 ha        1 1AY      0.128000
     60 H27       -11.2530    4.6410   -7.6850 ha        1 1AY      0.139000
     61 H28       -12.7670    5.6470   -5.9730 ha        1 1AY      0.142000
     62 H29       -12.1070    5.6320   -3.5660 ha        1 1AY      0.139000
     63 H30        -9.9420    4.6120   -2.8720 ha        1 1AY      0.128000
     64 CL8        -3.3470    6.0370   -0.5210 cl        1 1AY     -0.033400
     65 H152       -5.2870   -0.5800   -3.0430 hn        1 1AY      0.465800
@<TRIPOS>BOND
     1    1    2 ar  
     2    1    4 1   
     3    1    5 ar  
     4    2    3 ar  
     5    2   35 1   
     6    3    6 ar  
     7    3   36 1   
     8    4    8 ar  
     9    4   11 ar  
    10    5    7 ar  
    11    6    7 ar  
    12    6   64 1   
    13    7   37 1   
    14    8    9 ar  
    15    9   10 1   
    16    9   13 ar  
    17   10   38 1   
    18   10   39 1   
    19   10   40 1   
    20   11   12 ar  
    21   12   13 ar  
    22   12   15 1   
    23   13   14 1   
    24   15   16 1   
    25   15   41 1   
    26   16   17 1   
    27   16   42 1   
    28   16   43 1   
    29   17   18 1   
    30   17   24 1   
    31   17   44 1   
    32   18   19 ar  
    33   18   23 ar  
    34   19   20 ar  
    35   19   45 1   
    36   20   21 ar  
    37   20   46 1   
    38   21   22 ar  
    39   21   47 1   
    40   22   23 ar  
    41   22   48 1   
    42   23   49 1   
    43   24   25 1   
    44   24   50 1   
    45   24   65 1   
    46   25   26 1   
    47   25   51 1   
    48   25   52 1   
    49   26   27 1   
    50   26   53 1   
    51   26   54 1   
    52   27   28 1   
    53   27   55 1   
    54   27   56 1   
    55   28   29 1   
    56   28   57 1   
    57   28   58 1   
    58   29   30 ar  
    59   29   34 ar  
    60   30   31 ar  
    61   30   59 1   
    62   31   32 ar  
    63   31   60 1   
    64   32   33 ar  
    65   32   61 1   
    66   33   34 ar  
    67   33   62 1   
    68   34   63 1   
@<TRIPOS>SUBSTRUCTURE
     1 1AY         1 TEMP              0 ****  ****    0 ROOT
