@<TRIPOS>MOLECULE
1AZ
   47    44     1     0     0
SMALL
bcc


@<TRIPOS>ATOM
      1 O1         -1.9710   -0.8280    1.1040 o         1 1AZ     -0.362000
      2 C5         -0.7450   -0.6510    1.1240 c1        1 1AZ      0.403000
      3 N1         -0.0560   -0.5960    2.3620 n2        1 1AZ     -0.310000
      4 C4         -0.7500   -0.8770    3.5900 c3        1 1AZ      0.018000
      5 C3         -1.2230    0.4890    4.2590 c2        1 1AZ     -0.106000
      6 C2         -0.5940    0.9500    5.4300 c1        1 1AZ     -0.094000
      7 C1         -1.0090    2.1380    6.0240 c1        1 1AZ     -0.061000
      8 CL1        -0.1520    2.7590    7.4130 cl        1 1AZ      0.008000
      9 C16        -2.2530    1.2150    3.6960 c2        1 1AZ     -0.100000
     10 C17        -2.6740    2.4150    4.2930 c1        1 1AZ     -0.127000
     11 C18        -2.0470    2.8730    5.4600 c1        1 1AZ     -0.061000
     12 CL2        -2.5460    4.4130    6.1940 cl        1 1AZ      0.008000
     13 C6          0.0490   -0.6860   -0.1770 c2        1 1AZ     -0.235000
     14 N2         -0.3310   -0.7630   -1.4760 n2        1 1AZ     -0.121000
     15 C7         -1.7460   -0.7640   -1.7160 c2        1 1AZ     -0.093000
     16 C8          0.7810   -0.6710   -2.2450 c1        1 1AZ      0.092000
     17 N4          1.8670   -0.5350   -1.4100 n2        1 1AZ     -0.123000
     18 C13         1.4210   -0.5440   -0.1450 c1        1 1AZ      0.075000
     19 N5          2.1280   -0.5070    1.1490 n2        1 1AZ     -0.231000
     20 C14         3.6140   -0.4280    1.1840 c3        1 1AZ     -0.066000
     21 C15         1.3800   -0.4220    2.3770 c2        1 1AZ      0.410000
     22 O3          1.9970   -0.2830    3.4950 o         1 1AZ     -0.369000
     23 N3          1.0040   -0.5530   -3.6940 n2        1 1AZ     -0.201000
     24 C9          0.3940    0.6450   -4.1790 c3        1 1AZ     -0.092000
     25 C10         0.4630    0.7590   -5.7170 c3        1 1AZ     -0.025500
     26 O2         -0.0210   -0.3990   -6.3640 os        1 1AZ     -0.269000
     27 C11         0.5920   -1.6040   -5.8740 c3        1 1AZ     -0.025500
     28 C12         0.5200   -1.7170   -4.3470 c3        1 1AZ     -0.092000
     29 H41C       -1.5440   -1.4520    3.4040 h1        1 1AZ      0.126500
     30 H42C       -0.1430   -1.3470    4.2040 h1        1 1AZ      0.126500
     31 H2          0.1720    0.4740    5.7850 ha        1 1AZ      0.172000
     32 H16        -2.6750    0.9030    2.9080 ha        1 1AZ      0.159000
     33 H17        -3.4260    2.9450    3.8820 ha        1 1AZ      0.152000
     34 H71C       -2.1410    0.0140   -1.3110 ha        1 1AZ      0.110333
     35 H72C       -2.1340   -1.5530   -1.3360 ha        1 1AZ      0.110333
     36 H73C       -1.9140   -0.7500   -2.6720 ha        1 1AZ      0.110333
     37 H141        3.9630   -0.5430    0.2960 h1        1 1AZ      0.103667
     38 H142        3.9580   -1.1170    1.7540 h1        1 1AZ      0.103667
     39 H143        3.8830    0.4390    1.5290 h1        1 1AZ      0.103667
     40 H91C       -0.5730    0.6610   -3.8900 h1        1 1AZ      0.091250
     41 H92C        0.8640    1.4270   -3.7770 h1        1 1AZ      0.091250
     42 H121       -0.3980   -1.8620   -4.0880 h1        1 1AZ      0.091250
     43 H122        1.0470   -2.4760   -4.0650 h1        1 1AZ      0.091250
     44 H101       -0.0790    1.5350   -6.0060 h1        1 1AZ      0.102000
     45 H102        1.4050    0.9070   -5.9880 h1        1 1AZ      0.102000
     46 H111        1.5300   -1.6110   -6.1440 h1        1 1AZ      0.102000
     47 H112        0.1140   -2.4210   -6.2960 h1        1 1AZ      0.102000
@<TRIPOS>BOND
     1    1    2 1   
     2    2   13 1   
     3    3    4 1   
     4    3   21 1   
     5    4    5 1   
     6    4   29 1   
     7    4   30 1   
     8    5    6 1   
     9    5    9 1   
    10    6   31 1   
    11    7    8 1   
    12    7   11 1   
    13    9   10 1   
    14    9   32 1   
    15   10   33 1   
    16   11   12 1   
    17   13   14 1   
    18   13   18 1   
    19   14   16 1   
    20   15   34 1   
    21   15   35 1   
    22   15   36 1   
    23   16   17 1   
    24   17   18 1   
    25   19   20 1   
    26   19   21 1   
    27   20   37 1   
    28   20   38 1   
    29   20   39 1   
    30   21   22 1   
    31   23   24 1   
    32   23   28 1   
    33   24   25 1   
    34   24   40 1   
    35   24   41 1   
    36   25   26 1   
    37   25   44 1   
    38   25   45 1   
    39   26   27 1   
    40   27   28 1   
    41   27   46 1   
    42   27   47 1   
    43   28   42 1   
    44   28   43 1   
@<TRIPOS>SUBSTRUCTURE
     1 1AZ         1 TEMP              0 ****  ****    0 ROOT
