@<TRIPOS>MOLECULE
1AZ
   47    50     1     0     0
SMALL
bcc


@<TRIPOS>ATOM
      1 O1         -0.1350   -0.2050   -0.0720 o         1 1AZ     -0.637500
      2 C5          1.1050   -0.0810   -0.0460 c         1 1AZ      0.768100
      3 N1          1.7970    0.0080    1.1830 n         1 1AZ     -0.481400
      4 C4          1.0460   -0.1030    2.4230 c3        1 1AZ      0.141300
      5 C3          0.8710   -1.5120    2.9140 ca        1 1AZ     -0.113300
      6 C2          1.8110   -2.0670    3.7840 ca        1 1AZ     -0.094000
      7 C1          1.6260   -3.3620    4.2780 ca        1 1AZ      0.009400
      8 CL1         2.7800   -4.0110    5.3390 cl        1 1AZ     -0.069400
      9 C16        -0.2450   -2.2560    2.5190 ca        1 1AZ     -0.100000
     10 C17        -0.4330   -3.5460    3.0090 ca        1 1AZ     -0.127000
     11 C18         0.4980   -4.1040    3.8920 ca        1 1AZ      0.025400
     12 CL2         0.2400   -5.6750    4.4760 cl        1 1AZ     -0.071400
     13 C6          1.9570    0.0020   -1.2160 cc        1 1AZ     -0.353200
     14 N2          1.6450   -0.0280   -2.5770 na        1 1AZ     -0.131900
     15 C7          0.3420   -0.1660   -3.1450 c3        1 1AZ      0.014600
     16 C8          2.8740    0.0700   -3.2630 cc        1 1AZ      0.628400
     17 N4          3.9500    0.1710   -2.3970 nd        1 1AZ     -0.704000
     18 C13         3.3800    0.1350   -1.1230 cd        1 1AZ      0.497200
     19 N5          4.0060    0.2100    0.1140 n         1 1AZ     -0.417300
     20 C14         5.4410    0.2960    0.2040 c3        1 1AZ      0.089300
     21 C15         3.2100    0.1180    1.2800 c         1 1AZ      0.819500
     22 O3          3.7590    0.1610    2.4040 o         1 1AZ     -0.645500
     23 N3          2.9130    0.1200   -4.6910 nh        1 1AZ     -0.704300
     24 C9          4.0050    0.9400   -5.2160 c3        1 1AZ      0.136800
     25 C10         3.9710    0.9810   -6.7500 c3        1 1AZ      0.124400
     26 O2          3.9750   -0.3280   -7.3080 os        1 1AZ     -0.409600
     27 C11         2.8930   -1.1200   -6.8340 c3        1 1AZ      0.124400
     28 C12         2.8820   -1.2100   -5.3020 c3        1 1AZ      0.136800
     29 H41C        0.0290    0.3540    2.2410 h1        1 1AZ      0.087200
     30 H42C        1.5810    0.5020    3.2120 h1        1 1AZ      0.087200
     31 H2          2.7040   -1.4820    4.0690 ha        1 1AZ      0.172000
     32 H16        -0.9690   -1.8190    1.8110 ha        1 1AZ      0.159000
     33 H17        -1.3140   -4.1290    2.7000 ha        1 1AZ      0.152000
     34 H71C        0.1950    0.6100   -3.9430 h1        1 1AZ      0.072033
     35 H72C       -0.4310   -0.0370   -2.3390 h1        1 1AZ      0.072033
     36 H73C        0.2310   -1.1870   -3.6030 h1        1 1AZ      0.072033
     37 H141        5.7470    0.3980    1.2790 h1        1 1AZ      0.064033
     38 H142        5.9030   -0.6300   -0.2320 h1        1 1AZ      0.064033
     39 H143        5.7950    1.1900   -0.3760 h1        1 1AZ      0.064033
     40 H91C        5.0140    0.5520   -4.8940 h1        1 1AZ      0.060200
     41 H92C        3.8790    1.9820   -4.8150 h1        1 1AZ      0.060200
     42 H121        3.7600   -1.8360   -4.9710 h1        1 1AZ      0.060200
     43 H122        1.9370   -1.7250   -4.9760 h1        1 1AZ      0.060200
     44 H101        3.0730    1.5450   -7.1170 h1        1 1AZ      0.059200
     45 H102        4.9110    1.4540   -7.1380 h1        1 1AZ      0.059200
     46 H111        1.9240   -0.7000   -7.2140 h1        1 1AZ      0.059200
     47 H112        3.0740   -2.1360   -7.2730 h1        1 1AZ      0.059200
@<TRIPOS>BOND
     1    1    2 2   
     2    2    3 1   
     3    2   13 1   
     4    3    4 1   
     5    3   21 1   
     6    4    5 1   
     7    4   29 1   
     8    4   30 1   
     9    5    6 ar  
    10    5    9 ar  
    11    6    7 ar  
    12    6   31 1   
    13    7    8 1   
    14    7   11 ar  
    15    9   10 ar  
    16    9   32 1   
    17   10   11 ar  
    18   10   33 1   
    19   11   12 1   
    20   13   14 1   
    21   13   18 2   
    22   14   15 1   
    23   14   16 1   
    24   15   34 1   
    25   15   35 1   
    26   15   36 1   
    27   16   17 2   
    28   16   23 1   
    29   17   18 1   
    30   18   19 1   
    31   19   20 1   
    32   19   21 1   
    33   20   37 1   
    34   20   38 1   
    35   20   39 1   
    36   21   22 2   
    37   23   24 1   
    38   23   28 1   
    39   24   25 1   
    40   24   40 1   
    41   24   41 1   
    42   25   26 1   
    43   25   44 1   
    44   25   45 1   
    45   26   27 1   
    46   27   28 1   
    47   27   46 1   
    48   27   47 1   
    49   28   42 1   
    50   28   43 1   
@<TRIPOS>SUBSTRUCTURE
     1 1AZ         1 TEMP              0 ****  ****    0 ROOT
