@<TRIPOS>MOLECULE
1AZ
   47    50     1     0     0
SMALL
bcc


@<TRIPOS>ATOM
      1 O1         -0.1360   -0.2060   -0.0740 o         1 1AZ     -0.637500
      2 C5          1.1030   -0.0820   -0.0470 c         1 1AZ      0.768100
      3 N1          1.7950    0.0060    1.1830 n         1 1AZ     -0.481400
      4 C4          1.0410   -0.1060    2.4220 c3        1 1AZ      0.141300
      5 C3          0.8660   -1.5150    2.9120 ca        1 1AZ     -0.113300
      6 C2          1.8050   -2.0710    3.7820 ca        1 1AZ     -0.094000
      7 C1          1.6190   -3.3680    4.2750 ca        1 1AZ      0.009400
      8 Cl1         2.7720   -4.0180    5.3360 cl        1 1AZ     -0.069400
      9 C16        -0.2490   -2.2600    2.5150 ca        1 1AZ     -0.100000
     10 C17        -0.4380   -3.5500    3.0030 ca        1 1AZ     -0.127000
     11 C18         0.4920   -4.1080    3.8870 ca        1 1AZ      0.025400
     12 Cl2         0.2340   -5.6810    4.4690 cl        1 1AZ     -0.071400
     13 C6          1.9580    0.0020   -1.2160 cc        1 1AZ     -0.353200
     14 N2          1.6460   -0.0260   -2.5770 na        1 1AZ     -0.131900
     15 C7          0.3450   -0.1660   -3.1470 c3        1 1AZ      0.014600
     16 C8          2.8770    0.0720   -3.2620 cc        1 1AZ      0.628400
     17 N4          3.9520    0.1730   -2.3940 nd        1 1AZ     -0.704000
     18 C13         3.3800    0.1360   -1.1210 cd        1 1AZ      0.497200
     19 N5          4.0050    0.2100    0.1170 n         1 1AZ     -0.417300
     20 C14         5.4390    0.2960    0.2090 c3        1 1AZ      0.089300
     21 C15         3.2070    0.1170    1.2820 c         1 1AZ      0.819500
     22 O3          3.7550    0.1580    2.4060 o         1 1AZ     -0.645500
     23 N3          2.9170    0.1230   -4.6890 nh        1 1AZ     -0.704300
     24 C9          4.0110    0.9420   -5.2130 c3        1 1AZ      0.136800
     25 C10         3.9790    0.9860   -6.7460 c3        1 1AZ      0.124400
     26 O2          3.9820   -0.3230   -7.3060 os        1 1AZ     -0.409600
     27 C11         2.8980   -1.1140   -6.8340 c3        1 1AZ      0.124400
     28 C12         2.8850   -1.2060   -5.3020 c3        1 1AZ      0.136800
     29 H41C        0.0250    0.3510    2.2390 h1        1 1AZ      0.087200
     30 H42C        1.5760    0.4980    3.2120 h1        1 1AZ      0.087200
     31 H2          2.6970   -1.4870    4.0680 ha        1 1AZ      0.172000
     32 H16        -0.9720   -1.8210    1.8060 ha        1 1AZ      0.159000
     33 H17        -1.3190   -4.1330    2.6920 ha        1 1AZ      0.152000
     34 H71C        0.2330   -1.1880   -3.6020 h1        1 1AZ      0.071700
     35 H72C       -0.4300   -0.0340   -2.3420 h1        1 1AZ      0.071700
     36 H73C        0.1990    0.6080   -3.9470 h1        1 1AZ      0.071700
     37 H141        5.7930    1.1900   -0.3700 h1        1 1AZ      0.064033
     38 H142        5.7440    0.3980    1.2840 h1        1 1AZ      0.064033
     39 H143        5.9020   -0.6290   -0.2260 h1        1 1AZ      0.064033
     40 H91C        3.8870    1.9850   -4.8110 h1        1 1AZ      0.060450
     41 H92C        5.0190    0.5530   -4.8890 h1        1 1AZ      0.060450
     42 H121        1.9380   -1.7200   -4.9770 h1        1 1AZ      0.060450
     43 H122        3.7620   -1.8330   -4.9710 h1        1 1AZ      0.060450
     44 H101        3.0830    1.5510   -7.1140 h1        1 1AZ      0.059200
     45 H102        4.9200    1.4570   -7.1330 h1        1 1AZ      0.059200
     46 H111        3.0780   -2.1290   -7.2740 h1        1 1AZ      0.059200
     47 H112        1.9300   -0.6920   -7.2140 h1        1 1AZ      0.059200
@<TRIPOS>BOND
     1    1    2 2   
     2    2    3 1   
     3    2   13 1   
     4    3    4 1   
     5    3   21 1   
     6    4    5 1   
     7    4   29 1   
     8    4   30 1   
     9    5    6 ar  
    10    5    9 ar  
    11    6    7 ar  
    12    6   31 1   
    13    7    8 1   
    14    7   11 ar  
    15    9   10 ar  
    16    9   32 1   
    17   10   11 ar  
    18   10   33 1   
    19   11   12 1   
    20   13   14 1   
    21   13   18 2   
    22   14   15 1   
    23   14   16 1   
    24   15   34 1   
    25   15   35 1   
    26   15   36 1   
    27   16   17 2   
    28   16   23 1   
    29   17   18 1   
    30   18   19 1   
    31   19   20 1   
    32   19   21 1   
    33   20   37 1   
    34   20   38 1   
    35   20   39 1   
    36   21   22 2   
    37   23   24 1   
    38   23   28 1   
    39   24   25 1   
    40   24   40 1   
    41   24   41 1   
    42   25   26 1   
    43   25   44 1   
    44   25   45 1   
    45   26   27 1   
    46   27   28 1   
    47   27   46 1   
    48   27   47 1   
    49   28   42 1   
    50   28   43 1   
@<TRIPOS>SUBSTRUCTURE
     1 1AZ         1 TEMP              0 ****  ****    0 ROOT
