@<TRIPOS>MOLECULE
1AZ
   47    50     1     0     0
SMALL
bcc


@<TRIPOS>ATOM
      1 O1          0.0320   -0.9150    2.3840 o         1 1AZ     -0.637500
      2 C5         -0.2440    0.0180    1.6060 c         1 1AZ      0.768100
      3 N1          0.6950    1.0400    1.3400 n         1 1AZ     -0.481400
      4 C4          2.0140    0.9590    1.9490 c3        1 1AZ      0.141300
      5 C3          3.0170    0.1800    1.1470 ca        1 1AZ     -0.113300
      6 C2          3.8170    0.8350    0.2100 ca        1 1AZ     -0.094000
      7 C1          4.7830    0.1190   -0.5060 ca        1 1AZ      0.009400
      8 CL1         5.7490    0.9400   -1.6330 cl        1 1AZ     -0.069400
      9 C16         3.1630   -1.1950    1.3560 ca        1 1AZ     -0.100000
     10 C17         4.1220   -1.9110    0.6460 ca        1 1AZ     -0.127000
     11 C18         4.9390   -1.2580   -0.2840 ca        1 1AZ      0.025400
     12 CL2         6.1030   -2.1550   -1.1310 cl        1 1AZ     -0.071400
     13 C6         -1.5090    0.1790    0.9150 cc        1 1AZ     -0.353200
     14 N2         -2.6670   -0.6010    0.9390 na        1 1AZ     -0.131900
     15 C7         -2.8640   -1.8050    1.6810 c3        1 1AZ      0.014600
     16 C8         -3.5760    0.0220    0.0570 cc        1 1AZ      0.628400
     17 N4         -3.0490    1.1680   -0.5150 nd        1 1AZ     -0.704000
     18 C13        -1.7650    1.2700    0.0240 cd        1 1AZ      0.497200
     19 N5         -0.8000    2.2420   -0.2030 n         1 1AZ     -0.417300
     20 C14        -1.0440    3.3110   -1.1370 c3        1 1AZ      0.089300
     21 C15         0.4530    2.1120    0.4400 c         1 1AZ      0.819500
     22 O3          1.3440    2.9660    0.2300 o         1 1AZ     -0.645500
     23 N3         -4.8960   -0.4970   -0.1190 nh        1 1AZ     -0.704300
     24 C9         -5.8990    0.5360   -0.3770 c3        1 1AZ      0.136800
     25 C10        -7.2980   -0.0800   -0.5210 c3        1 1AZ      0.124400
     26 O2         -7.3190   -1.0990   -1.5140 os        1 1AZ     -0.409600
     27 C11        -6.3750   -2.1300   -1.2490 c3        1 1AZ      0.124400
     28 C12        -4.9510   -1.5750   -1.1080 c3        1 1AZ      0.136800
     29 H41C        2.3950    2.0120    2.1000 h1        1 1AZ      0.087200
     30 H42C        1.8870    0.4690    2.9590 h1        1 1AZ      0.087200
     31 H2          3.6760    1.9160    0.0310 ha        1 1AZ      0.172000
     32 H16         2.5070   -1.7080    2.0790 ha        1 1AZ      0.159000
     33 H17         4.2390   -2.9930    0.8150 ha        1 1AZ      0.152000
     34 H71C       -3.8460   -1.7560    2.2240 h1        1 1AZ      0.072033
     35 H72C       -2.8760   -2.6870    0.9840 h1        1 1AZ      0.072033
     36 H73C       -2.0240   -1.9290    2.4190 h1        1 1AZ      0.072033
     37 H141       -1.9730    3.8630   -0.8330 h1        1 1AZ      0.064033
     38 H142       -0.1700    4.0160   -1.1420 h1        1 1AZ      0.064033
     39 H143       -1.1900    2.8880   -2.1670 h1        1 1AZ      0.064033
     40 H91C       -5.8970    1.2480    0.4930 h1        1 1AZ      0.060200
     41 H92C       -5.6700    1.1190   -1.3150 h1        1 1AZ      0.060200
     42 H121       -4.5990   -1.2230   -2.1200 h1        1 1AZ      0.060200
     43 H122       -4.2720   -2.4020   -0.7640 h1        1 1AZ      0.060200
     44 H101       -7.6550   -0.4970    0.4560 h1        1 1AZ      0.059200
     45 H102       -8.0170    0.6940   -0.8990 h1        1 1AZ      0.059200
     46 H111       -6.6770   -2.6880   -0.3240 h1        1 1AZ      0.059200
     47 H112       -6.4340   -2.8020   -2.1450 h1        1 1AZ      0.059200
@<TRIPOS>BOND
     1    1    2 2   
     2    2    3 1   
     3    2   13 1   
     4    3    4 1   
     5    3   21 1   
     6    4    5 1   
     7    4   29 1   
     8    4   30 1   
     9    5    6 ar  
    10    5    9 ar  
    11    6    7 ar  
    12    6   31 1   
    13    7    8 1   
    14    7   11 ar  
    15    9   10 ar  
    16    9   32 1   
    17   10   11 ar  
    18   10   33 1   
    19   11   12 1   
    20   13   14 1   
    21   13   18 2   
    22   14   15 1   
    23   14   16 1   
    24   15   34 1   
    25   15   35 1   
    26   15   36 1   
    27   16   17 2   
    28   16   23 1   
    29   17   18 1   
    30   18   19 1   
    31   19   20 1   
    32   19   21 1   
    33   20   37 1   
    34   20   38 1   
    35   20   39 1   
    36   21   22 2   
    37   23   24 1   
    38   23   28 1   
    39   24   25 1   
    40   24   40 1   
    41   24   41 1   
    42   25   26 1   
    43   25   44 1   
    44   25   45 1   
    45   26   27 1   
    46   27   28 1   
    47   27   46 1   
    48   27   47 1   
    49   28   42 1   
    50   28   43 1   
@<TRIPOS>SUBSTRUCTURE
     1 1AZ         1 TEMP              0 ****  ****    0 ROOT
