@<TRIPOS>MOLECULE
1AZ
   47    50     1     0     0
SMALL
bcc


@<TRIPOS>ATOM
      1 O1         -0.1330   -0.2080   -0.0690 o         1 1AZ     -0.637500
      2 C5          1.1060   -0.0870   -0.0410 c         1 1AZ      0.768100
      3 N1          1.7990   -0.0120    1.1880 n         1 1AZ     -0.481400
      4 C4          1.0460   -0.1310    2.4280 c3        1 1AZ      0.141300
      5 C3          0.8670   -1.5440    2.9070 ca        1 1AZ     -0.113300
      6 C2          1.8060   -2.1090    3.7720 ca        1 1AZ     -0.094000
      7 C1          1.6170   -3.4080    4.2540 ca        1 1AZ      0.009400
      8 CL1         2.7690   -4.0700    5.3090 cl        1 1AZ     -0.069400
      9 C16        -0.2510   -2.2810    2.5050 ca        1 1AZ     -0.100000
     10 C17        -0.4420   -3.5750    2.9830 ca        1 1AZ     -0.127000
     11 C18         0.4870   -4.1430    3.8620 ca        1 1AZ      0.025400
     12 CL2         0.2250   -5.7190    4.4320 cl        1 1AZ     -0.071400
     13 C6          1.9600    0.0030   -1.2100 cc        1 1AZ     -0.353200
     14 N2          1.6470   -0.0140   -2.5710 na        1 1AZ     -0.131900
     15 C7          0.3440   -0.1440   -3.1410 c3        1 1AZ      0.014600
     16 C8          2.8770    0.0860   -3.2560 cc        1 1AZ      0.628400
     17 N4          3.9530    0.1770   -2.3890 nd        1 1AZ     -0.704000
     18 C13         3.3830    0.1320   -1.1160 cd        1 1AZ      0.497200
     19 N5          4.0090    0.1940    0.1220 n         1 1AZ     -0.417300
     20 C14         5.4430    0.2750    0.2130 c3        1 1AZ      0.089300
     21 C15         3.2120    0.0940    1.2870 c         1 1AZ      0.819500
     22 O3          3.7610    0.1250    2.4120 o         1 1AZ     -0.645500
     23 N3          2.9170    0.1490   -4.6830 nh        1 1AZ     -0.704300
     24 C9          4.0110    0.9700   -5.2010 c3        1 1AZ      0.136800
     25 C10         3.9780    1.0250   -6.7350 c3        1 1AZ      0.124400
     26 O2          3.9780   -0.2790   -7.3040 os        1 1AZ     -0.409600
     27 C11         2.8930   -1.0710   -6.8380 c3        1 1AZ      0.124400
     28 C12         2.8820   -1.1750   -5.3060 c3        1 1AZ      0.136800
     29 H41C        0.0310    0.3310    2.2490 h1        1 1AZ      0.087200
     30 H42C        1.5840    0.4660    3.2220 h1        1 1AZ      0.087200
     31 H2          2.7000   -1.5290    4.0610 ha        1 1AZ      0.172000
     32 H16        -0.9730   -1.8360    1.8000 ha        1 1AZ      0.159000
     33 H17        -1.3250   -4.1530    2.6690 ha        1 1AZ      0.152000
     34 H71C       -0.4290   -0.0180   -2.3340 h1        1 1AZ      0.072033
     35 H72C        0.2000    0.6380   -3.9330 h1        1 1AZ      0.072033
     36 H73C        0.2300   -1.1610   -3.6070 h1        1 1AZ      0.072033
     37 H141        5.8000    1.1730   -0.3590 h1        1 1AZ      0.064033
     38 H142        5.7500    0.3670    1.2890 h1        1 1AZ      0.064033
     39 H143        5.9040   -0.6480   -0.2300 h1        1 1AZ      0.064033
     40 H91C        5.0190    0.5760   -4.8820 h1        1 1AZ      0.060200
     41 H92C        3.8890    2.0090   -4.7910 h1        1 1AZ      0.060200
     42 H121        3.7580   -1.8070   -4.9810 h1        1 1AZ      0.060200
     43 H122        1.9350   -1.6900   -4.9850 h1        1 1AZ      0.060200
     44 H101        3.0820    1.5950   -7.0970 h1        1 1AZ      0.059200
     45 H102        4.9200    1.4980   -7.1190 h1        1 1AZ      0.059200
     46 H111        3.0710   -2.0840   -7.2860 h1        1 1AZ      0.059200
     47 H112        1.9260   -0.6450   -7.2140 h1        1 1AZ      0.059200
@<TRIPOS>BOND
     1    1    2 2   
     2    2    3 1   
     3    2   13 1   
     4    3    4 1   
     5    3   21 1   
     6    4    5 1   
     7    4   29 1   
     8    4   30 1   
     9    5    6 ar  
    10    5    9 ar  
    11    6    7 ar  
    12    6   31 1   
    13    7    8 1   
    14    7   11 ar  
    15    9   10 ar  
    16    9   32 1   
    17   10   11 ar  
    18   10   33 1   
    19   11   12 1   
    20   13   14 1   
    21   13   18 2   
    22   14   15 1   
    23   14   16 1   
    24   15   34 1   
    25   15   35 1   
    26   15   36 1   
    27   16   17 2   
    28   16   23 1   
    29   17   18 1   
    30   18   19 1   
    31   19   20 1   
    32   19   21 1   
    33   20   37 1   
    34   20   38 1   
    35   20   39 1   
    36   21   22 2   
    37   23   24 1   
    38   23   28 1   
    39   24   25 1   
    40   24   40 1   
    41   24   41 1   
    42   25   26 1   
    43   25   44 1   
    44   25   45 1   
    45   26   27 1   
    46   27   28 1   
    47   27   46 1   
    48   27   47 1   
    49   28   42 1   
    50   28   43 1   
@<TRIPOS>SUBSTRUCTURE
     1 1AZ         1 TEMP              0 ****  ****    0 ROOT
