@<TRIPOS>MOLECULE
1B0
   60    63     1     0     0
SMALL
bcc


@<TRIPOS>ATOM
      1 O24        -0.6980    2.6990    0.8790 o         1 1B0     -0.441100
      2 C23         0.0240    1.9700    0.2130 c         1 1B0      0.550100
      3 N4          0.2260    0.5570    0.7110 ny        1 1B0     -0.669800
      4 C5          0.1300    0.3970    2.2000 c3        1 1B0      0.044500
      5 C13         1.5130    0.6940    2.8400 c         1 1B0      0.648100
      6 N15         1.5530    1.2040    4.1120 n         1 1B0     -0.340000
      7 C17         2.8060    1.5090    4.7310 ca        1 1B0      0.010600
      8 C22         2.9860    2.7520    5.3730 ca        1 1B0     -0.126000
      9 C21         4.1940    3.0360    6.0050 ca        1 1B0     -0.113000
     10 C20         5.2310    2.1040    6.0020 ca        1 1B0     -0.113000
     11 C19         5.0600    0.8790    5.3600 ca        1 1B0     -0.113000
     12 C18         3.8580    0.5730    4.7250 ca        1 1B0     -0.126000
     13 C16         0.3550    1.5600    4.8310 c3        1 1B0      0.062300
     14 O14         2.5300    0.4280    2.1620 o         1 1B0     -0.617100
     15 C6         -0.2750   -1.0380    2.5770 c3        1 1B0     -0.050100
     16 C7         -1.5680   -1.4210    1.9510 ca        1 1B0     -0.153300
     17 C12        -1.5860   -2.2360    0.8110 ca        1 1B0     -0.129500
     18 C11        -2.8000   -2.6160    0.2420 ca        1 1B0     -0.114500
     19 C10        -4.0020   -2.1880    0.8050 ca        1 1B0     -0.102000
     20 C9         -3.9900   -1.3800    1.9430 ca        1 1B0     -0.114500
     21 C8         -2.7770   -0.9990    2.5160 ca        1 1B0     -0.129500
     22 C25         0.7360    2.3250   -1.0700 c3        1 1B0     -0.046200
     23 C1          1.3890    1.2020   -1.7330 cc        1 1B0     -0.287400
     24 C26         0.7620    0.3060   -2.6830 ca        1 1B0     -0.090800
     25 C31        -0.5310    0.1760   -3.1950 ca        1 1B0     -0.118000
     26 C30        -0.7840   -0.8180   -4.1270 ca        1 1B0     -0.124000
     27 C29         0.2320   -1.6900   -4.5630 ca        1 1B0     -0.106000
     28 C28         1.5300   -1.5900   -4.0860 ca        1 1B0     -0.120000
     29 C27         1.7990   -0.5850   -3.1440 ca        1 1B0     -0.053200
     30 N3          2.9920   -0.2400   -2.4940 na        1 1B0     -0.165400
     31 C2          2.7540    0.8510   -1.6630 cd        1 1B0      0.019700
     32 C32         3.8010    1.4820   -0.8360 c3        1 1B0     -0.079900
     33 H4         -0.4810   -0.0490    0.2660 hn        1 1B0      0.482300
     34 H251        1.4800    3.1320   -0.8040 hc        1 1B0      0.120200
     35 H252       -0.0430    2.7850   -1.7470 hc        1 1B0      0.120200
     36 H5         -0.6620    1.1210    2.5600 hx        1 1B0      0.133700
     37 H61C        0.5390   -1.7530    2.2790 hc        1 1B0      0.092700
     38 H62C       -0.3610   -1.0820    3.6970 hc        1 1B0      0.092700
     39 H161       -0.1180    2.4770    4.3850 h1        1 1B0      0.061367
     40 H162       -0.3820    0.7130    4.8090 h1        1 1B0      0.061367
     41 H163        0.6110    1.7740    5.9040 h1        1 1B0      0.061367
     42 H22         2.1810    3.5030    5.3830 ha        1 1B0      0.144000
     43 H18         3.7450   -0.3910    4.2060 ha        1 1B0      0.144000
     44 H21         4.3270    4.0060    6.5080 ha        1 1B0      0.149000
     45 H20         6.1830    2.3360    6.5060 ha        1 1B0      0.151000
     46 H19         5.8780    0.1410    5.3520 ha        1 1B0      0.149000
     47 H12        -0.6420   -2.6080    0.3820 ha        1 1B0      0.136000
     48 H8         -2.7710   -0.3750    3.4230 ha        1 1B0      0.136000
     49 H11        -2.8080   -3.2660   -0.6470 ha        1 1B0      0.153000
     50 H10        -4.9610   -2.4950    0.3580 ha        1 1B0      0.155000
     51 H9         -4.9380   -1.0500    2.3960 ha        1 1B0      0.153000
     52 H31        -1.3270    0.8670   -2.8810 ha        1 1B0      0.131000
     53 H30        -1.7960   -0.9270   -4.5490 ha        1 1B0      0.147000
     54 H29        -0.0120   -2.4630   -5.3100 ha        1 1B0      0.151000
     55 H28         2.3210   -2.2660   -4.4390 ha        1 1B0      0.151000
     56 H3          3.8790   -0.6350   -2.6790 hn        1 1B0      0.318700
     57 H321        4.8310    1.2200   -1.1840 hc        1 1B0      0.076367
     58 H322        3.6970    1.1470    0.2310 hc        1 1B0      0.076367
     59 H323        3.6920    2.5950   -0.8750 hc        1 1B0      0.076367
     60 H42         1.1650    0.2410    0.4020 hn        1 1B0      0.482300
@<TRIPOS>BOND
     1    1    2 2   
     2    2    3 1   
     3    2   22 1   
     4    3    4 1   
     5    3   33 1   
     6    3   60 1   
     7    4    5 1   
     8    4   15 1   
     9    4   36 1   
    10    5    6 1   
    11    5   14 2   
    12    6    7 1   
    13    6   13 1   
    14    7    8 ar  
    15    7   12 ar  
    16    8    9 ar  
    17    8   42 1   
    18    9   10 ar  
    19    9   44 1   
    20   10   11 ar  
    21   10   45 1   
    22   11   12 ar  
    23   11   46 1   
    24   12   43 1   
    25   13   39 1   
    26   13   40 1   
    27   13   41 1   
    28   15   16 1   
    29   15   37 1   
    30   15   38 1   
    31   16   17 ar  
    32   16   21 ar  
    33   17   18 ar  
    34   17   47 1   
    35   18   19 ar  
    36   18   49 1   
    37   19   20 ar  
    38   19   50 1   
    39   20   21 ar  
    40   20   51 1   
    41   21   48 1   
    42   22   23 1   
    43   22   34 1   
    44   22   35 1   
    45   23   24 1   
    46   23   31 2   
    47   24   25 ar  
    48   24   29 ar  
    49   25   26 ar  
    50   25   52 1   
    51   26   27 ar  
    52   26   53 1   
    53   27   28 ar  
    54   27   54 1   
    55   28   29 ar  
    56   28   55 1   
    57   29   30 1   
    58   30   31 1   
    59   30   56 1   
    60   31   32 1   
    61   32   57 1   
    62   32   58 1   
    63   32   59 1   
@<TRIPOS>SUBSTRUCTURE
     1 1B0         1 TEMP              0 ****  ****    0 ROOT
