@<TRIPOS>MOLECULE
1B0
   60    63     1     0     0
SMALL
bcc


@<TRIPOS>ATOM
      1 O24        -0.5610    2.7630    0.7160 o         1 1B0     -0.441100
      2 C23         0.1450    1.9690    0.1120 c         1 1B0      0.550100
      3 N4          0.2520    0.5710    0.6780 n4        1 1B0     -0.669800
      4 C5          0.0900    0.4830    2.1660 c3        1 1B0      0.044500
      5 C13         1.4620    0.7360    2.8500 c         1 1B0      0.648100
      6 N15         1.4790    1.3000    4.1000 n         1 1B0     -0.340000
      7 C17         2.7230    1.5660    4.7570 ca        1 1B0      0.010600
      8 C22         2.9440    2.8260    5.3520 ca        1 1B0     -0.126000
      9 C21         4.1400    3.0740    6.0210 ca        1 1B0     -0.113000
     10 C20         5.1250    2.0900    6.1000 ca        1 1B0     -0.113000
     11 C19         4.9130    0.8480    5.5030 ca        1 1B0     -0.113000
     12 C18         3.7220    0.5770    4.8330 ca        1 1B0     -0.126000
     13 C16         0.2760    1.7500    4.7530 c3        1 1B0      0.062300
     14 O14         2.4890    0.3870    2.2260 o         1 1B0     -0.617100
     15 C6         -0.4060   -0.9100    2.5880 c3        1 1B0     -0.050100
     16 C7         -1.6920   -1.2530    1.9260 ca        1 1B0     -0.153300
     17 C12        -1.7100   -2.1160    0.8230 ca        1 1B0     -0.129500
     18 C11        -2.9200   -2.4580    0.2210 ca        1 1B0     -0.114500
     19 C10        -4.1180   -1.9420    0.7160 ca        1 1B0     -0.102000
     20 C9         -4.1060   -1.0860    1.8180 ca        1 1B0     -0.114500
     21 C8         -2.8980   -0.7430    2.4230 ca        1 1B0     -0.129500
     22 C25         0.9240    2.2290   -1.1550 c3        1 1B0     -0.046200
     23 C1          1.5450    1.0450   -1.7410 cc        1 1B0     -0.287400
     24 C26         0.9110    0.1390   -2.6750 ca        1 1B0     -0.090800
     25 C31        -0.3650    0.0510   -3.2360 ca        1 1B0     -0.118000
     26 C30        -0.6310   -0.9720   -4.1340 ca        1 1B0     -0.124000
     27 C29         0.3550   -1.9120   -4.4880 ca        1 1B0     -0.106000
     28 C28         1.6360   -1.8550   -3.9620 ca        1 1B0     -0.120000
     29 C27         1.9190   -0.8220   -3.0540 ca        1 1B0     -0.053200
     30 N3          3.1010   -0.5070   -2.3700 na        1 1B0     -0.165400
     31 C2          2.8860    0.6310   -1.5980 cd        1 1B0      0.019700
     32 C32         3.9300    1.2460   -0.7550 c3        1 1B0     -0.079900
     33 H4          1.1850    0.1940    0.4210 hn        1 1B0      0.482300
     34 H251        0.1970    2.6950   -1.8830 hc        1 1B0      0.120200
     35 H252        1.6970    3.0100   -0.8950 hc        1 1B0      0.120200
     36 H5         -0.6740    1.2630    2.4620 hx        1 1B0      0.133700
     37 H61C        0.3800   -1.6790    2.3540 hc        1 1B0      0.092700
     38 H62C       -0.5370   -0.9000    3.7040 hc        1 1B0      0.092700
     39 H161       -0.5050    0.9420    4.7360 h1        1 1B0      0.061367
     40 H162       -0.1300    2.6690    4.2490 h1        1 1B0      0.061367
     41 H163        0.5010    1.9970    5.8260 h1        1 1B0      0.061367
     42 H22         2.1810    3.6170    5.2970 ha        1 1B0      0.144000
     43 H18         3.5780   -0.4020    4.3510 ha        1 1B0      0.144000
     44 H21         4.3050    4.0570    6.4870 ha        1 1B0      0.149000
     45 H20         6.0670    2.2940    6.6310 ha        1 1B0      0.151000
     46 H19         5.6900    0.0690    5.5600 ha        1 1B0      0.149000
     47 H12        -0.7720   -2.5560    0.4490 ha        1 1B0      0.136000
     48 H8         -2.8930   -0.0810    3.3020 ha        1 1B0      0.136000
     49 H11        -2.9290   -3.1460   -0.6390 ha        1 1B0      0.153000
     50 H10        -5.0740   -2.2190    0.2440 ha        1 1B0      0.155000
     51 H9         -5.0520   -0.6870    2.2170 ha        1 1B0      0.153000
     52 H31        -1.1360    0.7930   -2.9860 ha        1 1B0      0.131000
     53 H30        -1.6300   -1.0500   -4.5920 ha        1 1B0      0.147000
     54 H29         0.1010   -2.7050   -5.2100 ha        1 1B0      0.151000
     55 H28         2.4050   -2.5840   -4.2510 ha        1 1B0      0.151000
     56 H3          3.9730   -0.9530   -2.5000 hn        1 1B0      0.318700
     57 H321        3.8790    2.3610   -0.8460 hc        1 1B0      0.076367
     58 H322        4.9590    0.9200   -1.0500 hc        1 1B0      0.076367
     59 H323        3.7680    0.9650    0.3200 hc        1 1B0      0.076367
     60 H42        -0.4670   -0.0170    0.2300 hn        1 1B0      0.482300
@<TRIPOS>BOND
     1    1    2 2   
     2    2    3 1   
     3    2   22 1   
     4    3    4 1   
     5    3   33 1   
     6    3   60 1   
     7    4    5 1   
     8    4   15 1   
     9    4   36 1   
    10    5    6 1   
    11    5   14 2   
    12    6    7 1   
    13    6   13 1   
    14    7    8 ar  
    15    7   12 ar  
    16    8    9 ar  
    17    8   42 1   
    18    9   10 ar  
    19    9   44 1   
    20   10   11 ar  
    21   10   45 1   
    22   11   12 ar  
    23   11   46 1   
    24   12   43 1   
    25   13   39 1   
    26   13   40 1   
    27   13   41 1   
    28   15   16 1   
    29   15   37 1   
    30   15   38 1   
    31   16   17 ar  
    32   16   21 ar  
    33   17   18 ar  
    34   17   47 1   
    35   18   19 ar  
    36   18   49 1   
    37   19   20 ar  
    38   19   50 1   
    39   20   21 ar  
    40   20   51 1   
    41   21   48 1   
    42   22   23 1   
    43   22   34 1   
    44   22   35 1   
    45   23   24 1   
    46   23   31 2   
    47   24   25 ar  
    48   24   29 ar  
    49   25   26 ar  
    50   25   52 1   
    51   26   27 ar  
    52   26   53 1   
    53   27   28 ar  
    54   27   54 1   
    55   28   29 ar  
    56   28   55 1   
    57   29   30 1   
    58   30   31 1   
    59   30   56 1   
    60   31   32 1   
    61   32   57 1   
    62   32   58 1   
    63   32   59 1   
@<TRIPOS>SUBSTRUCTURE
     1 1B0         1 TEMP              0 ****  ****    0 ROOT
