@<TRIPOS>MOLECULE
1B0
   61    64     1     0     0
SMALL
bcc


@<TRIPOS>ATOM
      1 O24         1.8930    2.7710    0.2970 o         1 1B0     -0.512100
      2 C23         1.4430    1.8380   -0.3590 c         1 1B0      0.581100
      3 N4          1.2040    0.5590    0.4320 n4        1 1B0     -0.684800
      4 C5          1.4420    0.7120    1.9010 c3        1 1B0      0.066500
      5 C13         2.9050    1.0970    2.1640 c         1 1B0      0.522100
      6 N15         3.1530    2.3510    2.9530 n4        1 1B0     -0.437600
      7 C17         2.5720    2.2450    4.3050 ca        1 1B0     -0.083400
      8 C22         2.9900    1.2180    5.1720 ca        1 1B0     -0.110000
      9 C21         2.4710    1.1690    6.4640 ca        1 1B0     -0.095500
     10 C20         1.5520    2.1290    6.8960 ca        1 1B0     -0.056000
     11 C19         1.1430    3.1450    6.0290 ca        1 1B0     -0.095500
     12 C18         1.6460    3.2150    4.7320 ca        1 1B0     -0.110000
     13 C16         4.6070    2.6860    3.0220 c3        1 1B0      0.096100
     14 O14         3.8570    0.4410    1.7670 o         1 1B0     -0.393100
     15 C6          1.1580   -0.5890    2.6780 c3        1 1B0     -0.038100
     16 C7         -0.2540   -1.0220    2.5350 ca        1 1B0     -0.183300
     17 C12        -0.5420   -2.2960    2.0310 ca        1 1B0     -0.119500
     18 C11        -1.8610   -2.7510    1.9950 ca        1 1B0     -0.110000
     19 C10        -2.8960   -1.9380    2.4570 ca        1 1B0     -0.084000
     20 C9         -2.6130   -0.6650    2.9570 ca        1 1B0     -0.110000
     21 C8         -1.2970   -0.2100    3.0020 ca        1 1B0     -0.119500
     22 C25         1.1030    1.7910   -1.8270 c3        1 1B0     -0.034200
     23 C1          0.9200    0.4420   -2.3410 cc        1 1B0     -0.324400
     24 C26        -0.2720   -0.3620   -2.1580 ca        1 1B0     -0.108800
     25 C31        -1.4730   -0.1810   -1.4680 ca        1 1B0     -0.160000
     26 C30        -2.4460   -1.1670   -1.5520 ca        1 1B0     -0.101000
     27 C29        -2.2410   -2.3380   -2.3060 ca        1 1B0     -0.104000
     28 C28        -1.0660   -2.5510   -3.0120 ca        1 1B0     -0.099000
     29 C27        -0.0790   -1.5550   -2.9450 ca        1 1B0     -0.048200
     30 N3          1.1750   -1.4690   -3.5680 na        1 1B0     -0.155400
     31 C2          1.7630   -0.2560   -3.2350 cd        1 1B0      0.052700
     32 C32         3.0620    0.1780   -3.7880 c3        1 1B0     -0.078900
     33 H4          1.8120   -0.1760    0.0410 hn        1 1B0      0.498300
     34 H251        1.9260    2.3440   -2.3670 hc        1 1B0      0.135700
     35 H252        0.1520    2.3970   -1.9430 hc        1 1B0      0.135700
     36 H5          0.7350    1.5200    2.2670 hx        1 1B0      0.137700
     37 H61C        1.3810   -0.3730    3.7620 hc        1 1B0      0.097700
     38 H62C        1.8650   -1.3960    2.3410 hc        1 1B0      0.097700
     39 H161        4.7250    3.6350    3.6120 hx        1 1B0      0.118367
     40 H162        5.0030    2.8190    1.9800 hx        1 1B0      0.118367
     41 H163        5.1620    1.8530    3.5330 hx        1 1B0      0.118367
     42 H22         3.7300    0.4640    4.8560 ha        1 1B0      0.159500
     43 H18         1.3250    4.0390    4.0730 ha        1 1B0      0.159500
     44 H21         2.8000    0.3700    7.1520 ha        1 1B0      0.184500
     45 H20         1.1550    2.0900    7.9260 ha        1 1B0      0.187000
     46 H19         0.4230    3.9100    6.3730 ha        1 1B0      0.184500
     47 H12         0.2690   -2.9560    1.6880 ha        1 1B0      0.132000
     48 H8         -1.0800    0.7760    3.4380 ha        1 1B0      0.132000
     49 H11        -2.0800   -3.7620    1.6140 ha        1 1B0      0.164000
     50 H10        -3.9360   -2.3050    2.4400 ha        1 1B0      0.168000
     51 H9         -3.4290   -0.0280    3.3340 ha        1 1B0      0.164000
     52 H31        -1.6730    0.7520   -0.9230 ha        1 1B0      0.119000
     53 H30        -3.4100   -1.0290   -1.0370 ha        1 1B0      0.153000
     54 H29        -3.0440   -3.0920   -2.3530 ha        1 1B0      0.165000
     55 H28        -0.9210   -3.4590   -3.6170 ha        1 1B0      0.166000
     56 H3          1.5230   -2.1110   -4.2380 hn        1 1B0      0.329700
     57 H321        3.8000   -0.6630   -3.8250 hc        1 1B0      0.078033
     58 H322        2.9190    0.5610   -4.8340 hc        1 1B0      0.078033
     59 H323        3.4930    1.0020   -3.1690 hc        1 1B0      0.078033
     60 H42         0.2230    0.2410    0.2800 hn        1 1B0      0.498300
     61 H151        2.6700    3.1190    2.4500 hn        1 1B0      0.479800
@<TRIPOS>BOND
     1    1    2 2   
     2    2    3 1   
     3    2   22 1   
     4    3    4 1   
     5    3   33 1   
     6    3   60 1   
     7    4    5 1   
     8    4   15 1   
     9    4   36 1   
    10    5    6 1   
    11    5   14 2   
    12    6    7 1   
    13    6   13 1   
    14    6   61 1   
    15    7    8 ar  
    16    7   12 ar  
    17    8    9 ar  
    18    8   42 1   
    19    9   10 ar  
    20    9   44 1   
    21   10   11 ar  
    22   10   45 1   
    23   11   12 ar  
    24   11   46 1   
    25   12   43 1   
    26   13   39 1   
    27   13   40 1   
    28   13   41 1   
    29   15   16 1   
    30   15   37 1   
    31   15   38 1   
    32   16   17 ar  
    33   16   21 ar  
    34   17   18 ar  
    35   17   47 1   
    36   18   19 ar  
    37   18   49 1   
    38   19   20 ar  
    39   19   50 1   
    40   20   21 ar  
    41   20   51 1   
    42   21   48 1   
    43   22   23 1   
    44   22   34 1   
    45   22   35 1   
    46   23   24 1   
    47   23   31 2   
    48   24   25 ar  
    49   24   29 ar  
    50   25   26 ar  
    51   25   52 1   
    52   26   27 ar  
    53   26   53 1   
    54   27   28 ar  
    55   27   54 1   
    56   28   29 ar  
    57   28   55 1   
    58   29   30 1   
    59   30   31 1   
    60   30   56 1   
    61   31   32 1   
    62   32   57 1   
    63   32   58 1   
    64   32   59 1   
@<TRIPOS>SUBSTRUCTURE
     1 1B0         1 TEMP              0 ****  ****    0 ROOT
