@<TRIPOS>MOLECULE
1B0
   59    51     1     0     0
SMALL
bcc


@<TRIPOS>ATOM
      1 O24        -0.6740   -0.4720   -1.7470 o         1 1B0     -0.394000
      2 C23         0.4780   -0.7530   -1.4600 c1        1 1B0      0.312000
      3 N4          0.7420   -1.7480   -0.4750 n2        1 1B0     -0.367000
      4 C5          0.0560   -1.7180    0.7650 c3        1 1B0      0.026000
      5 C13         0.4310   -0.4600    1.5180 c2        1 1B0      0.285000
      6 N15        -0.5460    0.2210    2.2810 n         1 1B0     -0.282000
      7 C17        -0.2300    1.4750    2.8880 c2        1 1B0      0.062000
      8 C22        -0.2690    2.6410    2.1340 c1        1 1B0     -0.127000
      9 C21         0.0400    3.8590    2.7240 c1        1 1B0     -0.127500
     10 C20         0.3890    3.9120    4.0670 c1        1 1B0     -0.127500
     11 C19         0.4270    2.7460    4.8200 c1        1 1B0     -0.118000
     12 C18         0.1180    1.5280    4.2310 c2        1 1B0     -0.160000
     13 C16        -1.8150   -0.3930    2.5260 c3        1 1B0     -0.092000
     14 O14         1.5380    0.0230    1.3800 o         1 1B0     -0.358000
     15 C6          0.4420   -2.9330    1.5870 c3        1 1B0     -0.135000
     16 C7         -0.4070   -4.1250    1.1620 c2        1 1B0     -0.072000
     17 C12         0.1970   -5.2300    0.5760 c2        1 1B0     -0.125000
     18 C11        -0.5480   -6.3720    0.3190 c1        1 1B0     -0.131000
     19 C10        -1.8950   -6.4110    0.6480 c1        1 1B0     -0.127500
     20 C9         -2.4980   -5.3080    1.2340 c1        1 1B0     -0.127500
     21 C8         -1.7540   -4.1650    1.4910 c1        1 1B0     -0.123000
     22 C25         1.6240   -0.1430   -2.2470 c3        1 1B0     -0.104000
     23 C1          1.1430    1.1170   -2.9500 c2        1 1B0     -0.175000
     24 C26         0.6470    2.2870   -2.4240 c1        1 1B0     -0.082000
     25 C31         0.4300    2.7070   -1.1040 c1        1 1B0     -0.127500
     26 C30        -0.0930    3.9670   -0.8540 c1        1 1B0     -0.127500
     27 C29        -0.4040    4.8130   -1.9110 c1        1 1B0     -0.127500
     28 C28        -0.1910    4.3990   -3.2140 c1        1 1B0     -0.127500
     29 C27         0.3400    3.1230   -3.4680 c1        1 1B0      0.006000
     30 N3          0.6470    2.4670   -4.6440 n1        1 1B0     -0.211000
     31 C2          1.1410    1.2340   -4.3250 c1        1 1B0      0.007000
     32 C32         1.6080    0.8020   -5.6910 c2        1 1B0     -0.175000
     33 H4          1.3390   -2.4120   -0.6490 hn        1 1B0      0.249000
     34 H251        2.3550    0.0820   -1.6370 hc        1 1B0      0.120000
     35 H252        1.9410   -0.7870   -2.9110 hc        1 1B0      0.120000
     36 H5         -0.9060   -1.7260    0.6040 h1        1 1B0      0.138000
     37 H61C        1.3880   -3.1380    1.4410 hc        1 1B0      0.111000
     38 H62C        0.2910   -2.7470    2.5360 hc        1 1B0      0.111000
     39 H161       -1.7190   -1.0730    3.2300 h1        1 1B0      0.094667
     40 H162       -2.1380   -0.8170    1.7020 h1        1 1B0      0.094667
     41 H163       -2.4570    0.2890    2.8170 h1        1 1B0      0.094667
     42 H22        -0.5140    2.6040    1.1900 ha        1 1B0      0.159000
     43 H18         0.1450    0.7080    4.7610 ha        1 1B0      0.133000
     44 H21         0.0130    4.6790    2.1940 ha        1 1B0      0.132375
     45 H20         0.6070    4.7700    4.4830 ha        1 1B0      0.132375
     46 H19         0.6720    2.7830    5.7650 ha        1 1B0      0.130000
     47 H12         1.1470   -5.2030    0.3440 ha        1 1B0      0.132000
     48 H8         -2.1790   -3.3890    1.9030 ha        1 1B0      0.131000
     49 H11        -0.1230   -7.1510   -0.0940 ha        1 1B0      0.130000
     50 H10        -2.4190   -7.2160    0.4670 ha        1 1B0      0.132375
     51 H9         -3.4500   -5.3360    1.4660 ha        1 1B0      0.132375
     52 H31         0.6480    2.1150   -0.3630 ha        1 1B0      0.132375
     53 H30        -0.2420    4.2570    0.0560 ha        1 1B0      0.132375
     54 H29        -0.7730    5.7000   -1.7350 ha        1 1B0      0.132375
     55 H28        -0.4090    4.9920   -3.9550 ha        1 1B0      0.132375
     56 H3          0.5390    2.8000   -5.4880 DU        1 1B0      0.251000
     57 H321        2.0040    1.5670   -6.1590 ha        1 1B0      0.097667
     58 H322        0.8460    0.4640   -6.2050 ha        1 1B0      0.097667
     59 H323        2.2770    0.0940   -5.5980 ha        1 1B0      0.097667
@<TRIPOS>BOND
     1    1    2 1   
     2    2   22 1   
     3    3    4 1   
     4    3   33 1   
     5    4    5 1   
     6    4   15 1   
     7    4   36 1   
     8    5    6 1   
     9    5   14 1   
    10    6    7 1   
    11    6   13 1   
    12    7    8 1   
    13    7   12 1   
    14    8   42 1   
    15    9   10 1   
    16    9   44 1   
    17   10   45 1   
    18   11   12 1   
    19   11   46 1   
    20   12   43 1   
    21   13   39 1   
    22   13   40 1   
    23   13   41 1   
    24   15   16 1   
    25   15   37 1   
    26   15   38 1   
    27   16   17 1   
    28   16   21 1   
    29   17   18 1   
    30   17   47 1   
    31   18   49 1   
    32   19   20 1   
    33   19   50 1   
    34   20   51 1   
    35   21   48 1   
    36   22   23 1   
    37   22   34 1   
    38   22   35 1   
    39   23   24 1   
    40   23   31 1   
    41   24   29 1   
    42   25   26 1   
    43   25   52 1   
    44   26   53 1   
    45   27   28 1   
    46   27   54 1   
    47   28   55 1   
    48   30   31 1   
    49   32   57 1   
    50   32   58 1   
    51   32   59 1   
@<TRIPOS>SUBSTRUCTURE
     1 1B0         1 TEMP              0 ****  ****    0 ROOT
