@<TRIPOS>MOLECULE
1B0
   59    62     1     0     0
SMALL
bcc


@<TRIPOS>ATOM
      1 O24         0.2260    1.9750    1.7810 o         1 1B0     -0.633100
      2 C23        -0.5550    1.3540    1.0280 c         1 1B0      0.663100
      3 N4         -0.2640    0.0760    0.5970 n         1 1B0     -0.550900
      4 C5          1.0040   -0.5520    0.8500 c3        1 1B0      0.051700
      5 C13         1.9840   -0.2730   -0.3290 c         1 1B0      0.638100
      6 N15         3.1570    0.4300   -0.0910 n         1 1B0     -0.378000
      7 C17         4.1830    0.5200   -1.0700 ca        1 1B0      0.053600
      8 C22         3.8880    0.7210   -2.4350 ca        1 1B0     -0.142500
      9 C21         4.9180    0.8170   -3.3660 ca        1 1B0     -0.117500
     10 C20         6.2500    0.7250   -2.9680 ca        1 1B0     -0.143000
     11 C19         6.5520    0.5270   -1.6220 ca        1 1B0     -0.117500
     12 C18         5.5370    0.4200   -0.6770 ca        1 1B0     -0.142500
     13 C16         3.3950    1.0840    1.1710 c3        1 1B0      0.063300
     14 O14         1.6840   -0.6970   -1.4630 o         1 1B0     -0.612100
     15 C6          0.9130   -2.0870    0.9600 c3        1 1B0     -0.044100
     16 C7          0.0830   -2.5160    2.1150 ca        1 1B0     -0.082300
     17 C12        -1.2080   -3.0170    1.9140 ca        1 1B0     -0.121000
     18 C11        -1.9770   -3.4330    2.9990 ca        1 1B0     -0.127500
     19 C10        -1.4650   -3.3520    4.2930 ca        1 1B0     -0.128000
     20 C9         -0.1790   -2.8530    4.5010 ca        1 1B0     -0.127500
     21 C8          0.5930   -2.4370    3.4170 ca        1 1B0     -0.121000
     22 C25        -1.8660    1.9880    0.5900 c3        1 1B0     -0.068200
     23 C1         -2.5290    1.3550   -0.5540 cc        1 1B0     -0.177400
     24 C26        -3.8420    0.7470   -0.5310 ca        1 1B0     -0.081800
     25 C31        -4.8020    0.5400    0.4620 ca        1 1B0     -0.087000
     26 C30        -5.9880   -0.0950    0.1270 ca        1 1B0     -0.153000
     27 C29        -6.2390   -0.5320   -1.1870 ca        1 1B0     -0.114000
     28 C28        -5.3140   -0.3470   -2.2030 ca        1 1B0     -0.142000
     29 C27        -4.1090    0.2950   -1.8780 ca        1 1B0     -0.046200
     30 N3         -3.0060    0.6170   -2.6700 na        1 1B0     -0.185400
     31 C2         -2.0510    1.2610   -1.8710 cd        1 1B0     -0.031300
     32 C32        -0.7510    1.7200   -2.3970 c3        1 1B0     -0.062900
     33 H4         -0.8580   -0.3600   -0.0710 hn        1 1B0      0.331500
     34 H251       -2.5480    1.9720    1.4850 hc        1 1B0      0.083700
     35 H252       -1.6370    3.0660    0.3570 hc        1 1B0      0.083700
     36 H5          1.4010   -0.1510    1.8300 h1        1 1B0      0.098700
     37 H61C        0.5080   -2.5080    0.0000 hc        1 1B0      0.069200
     38 H62C        1.9600   -2.4760    1.0800 hc        1 1B0      0.069200
     39 H161        3.7080    0.3370    1.9490 h1        1 1B0      0.056367
     40 H162        4.2110    1.8460    1.0570 h1        1 1B0      0.056367
     41 H163        2.4640    1.6150    1.5160 h1        1 1B0      0.056367
     42 H22         2.8410    0.7810   -2.7730 ha        1 1B0      0.144500
     43 H18         5.7990    0.2540    0.3800 ha        1 1B0      0.144500
     44 H21         4.6720    0.9690   -4.4280 ha        1 1B0      0.132500
     45 H20         7.0570    0.8060   -3.7100 ha        1 1B0      0.132000
     46 H19         7.6010    0.4490   -1.3000 ha        1 1B0      0.132500
     47 H12        -1.6170   -3.0820    0.8940 ha        1 1B0      0.131000
     48 H8          1.6060   -2.0430    3.5830 ha        1 1B0      0.131000
     49 H11        -2.9910   -3.8250    2.8320 ha        1 1B0      0.132000
     50 H10        -2.0730   -3.6800    5.1490 ha        1 1B0      0.131000
     51 H9          0.2280   -2.7860    5.5210 ha        1 1B0      0.132000
     52 H31        -4.6140    0.8780    1.4910 ha        1 1B0      0.135000
     53 H30        -6.7530   -0.2640    0.8990 ha        1 1B0      0.131000
     54 H29        -7.1940   -1.0320   -1.4100 ha        1 1B0      0.131000
     55 H28        -5.5160   -0.6900   -3.2260 ha        1 1B0      0.133000
     56 H3         -2.9090    0.4240   -3.6310 hn        1 1B0      0.301700
     57 H321       -0.8160    2.0180   -3.4720 hc        1 1B0      0.063700
     58 H322       -0.4040    2.6030   -1.8030 hc        1 1B0      0.063700
     59 H323        0.0140    0.9030   -2.2990 hc        1 1B0      0.063700
@<TRIPOS>BOND
     1    1    2 2   
     2    2    3 1   
     3    2   22 1   
     4    3    4 1   
     5    3   33 1   
     6    4    5 1   
     7    4   15 1   
     8    4   36 1   
     9    5    6 1   
    10    5   14 2   
    11    6    7 1   
    12    6   13 1   
    13    7    8 ar  
    14    7   12 ar  
    15    8    9 ar  
    16    8   42 1   
    17    9   10 ar  
    18    9   44 1   
    19   10   11 ar  
    20   10   45 1   
    21   11   12 ar  
    22   11   46 1   
    23   12   43 1   
    24   13   39 1   
    25   13   40 1   
    26   13   41 1   
    27   15   16 1   
    28   15   37 1   
    29   15   38 1   
    30   16   17 ar  
    31   16   21 ar  
    32   17   18 ar  
    33   17   47 1   
    34   18   19 ar  
    35   18   49 1   
    36   19   20 ar  
    37   19   50 1   
    38   20   21 ar  
    39   20   51 1   
    40   21   48 1   
    41   22   23 1   
    42   22   34 1   
    43   22   35 1   
    44   23   24 1   
    45   23   31 2   
    46   24   25 ar  
    47   24   29 ar  
    48   25   26 ar  
    49   25   52 1   
    50   26   27 ar  
    51   26   53 1   
    52   27   28 ar  
    53   27   54 1   
    54   28   29 ar  
    55   28   55 1   
    56   29   30 1   
    57   30   31 1   
    58   30   56 1   
    59   31   32 1   
    60   32   57 1   
    61   32   58 1   
    62   32   59 1   
@<TRIPOS>SUBSTRUCTURE
     1 1B0         1 TEMP              0 ****  ****    0 ROOT
