@<TRIPOS>MOLECULE
1B1
   46    49     1     0     0
SMALL
bcc


@<TRIPOS>ATOM
      1 C1          0.0050   -0.0210    0.1140 c3        1 1B1      0.352700
      2 N1          1.5200    0.0950    0.0710 n2        1 1B1     -0.460900
      3 C2          1.8900    0.3070    1.3100 ce        1 1B1      0.291900
      4 C4         -0.4790   -1.3770   -0.4010 cx        1 1B1     -0.119700
      5 C5         -0.6480    1.0620   -0.7400 ca        1 1B1     -0.099300
      6 C6          0.0330    1.6510   -1.8070 ca        1 1B1     -0.106000
      7 C7         -0.5980    2.6230   -2.5990 cp        1 1B1     -0.020000
      8 C8         -1.9230    2.9860   -2.3170 ca        1 1B1     -0.093000
      9 C9         -2.6040    2.3800   -1.2640 ca        1 1B1     -0.121000
     10 C10        -1.9770    1.4170   -0.4750 ca        1 1B1     -0.099000
     11 N3          3.2570    0.5110    1.7720 n4        1 1B1     -0.766600
     12 C13         0.2110   -2.0900   -1.5320 cx        1 1B1     -0.112900
     13 C12         0.2610   -2.6610   -0.1470 cx        1 1B1     -0.112900
     14 C14         0.1220    3.2410   -3.7050 cp        1 1B1     -0.174300
     15 C15        -0.0230    4.6040   -3.9970 ca        1 1B1     -0.068000
     16 C16         0.6950    5.1570   -5.0690 ca        1 1B1     -0.061300
     17 C17         1.5440    4.2990   -5.8150 ca        1 1B1      0.423200
     18 C19         0.9900    2.4770   -4.5190 ca        1 1B1      0.404200
     19 C21         0.5810    6.5130   -5.4010 cg        1 1B1     -0.163000
     20 N17        -0.3900    0.1390    1.5730 n2        1 1B1     -0.464900
     21 N5          1.6890    2.9900   -5.5480 nb        1 1B1     -0.658000
     22 C18         0.6910    0.3310    2.2680 ce        1 1B1      0.323000
     23 C22         0.4840    7.6720   -5.6930 c1        1 1B1     -0.066100
     24 C23         0.3690    9.0490   -6.0450 c3        1 1B1     -0.032000
     25 H4         -1.5910   -1.3970   -0.3710 hc        1 1B1      0.124700
     26 H31N        3.5190    1.4970    1.6310 hn        1 1B1      0.478133
     27 H32N        3.2930    0.2860    2.7750 hn        1 1B1      0.478133
     28 H121        1.2170   -2.6550    0.4050 hc        1 1B1      0.084200
     29 H122       -0.3320   -3.5650    0.0880 hc        1 1B1      0.084200
     30 H131       -0.4220   -2.5800   -2.2960 hc        1 1B1      0.084200
     31 H132        1.1260   -1.6650   -1.9810 hc        1 1B1      0.084200
     32 H6          1.0650    1.3630   -2.0620 ha        1 1B1      0.143000
     33 H10        -2.5420    0.9400    0.3420 ha        1 1B1      0.155000
     34 H8         -2.4280    3.7410   -2.9400 ha        1 1B1      0.154000
     35 H9         -3.6500    2.6580   -1.0550 ha        1 1B1      0.153000
     36 H111        1.3690    1.5130    3.9130 hc        1 1B1      0.080367
     37 H112       -0.1340    0.5570    4.2420 hc        1 1B1      0.080367
     38 H113        1.4610   -0.2980    4.1590 hc        1 1B1      0.080367
     39 H15        -0.6890    5.2380   -3.3920 ha        1 1B1      0.149000
     40 H19         1.1190    1.3940   -4.3470 h4        1 1B1      0.021100
     41 H17         2.1290    4.6900   -6.6680 h4        1 1B1      0.040100
     42 H231        1.2580    9.3770   -6.6440 hc        1 1B1      0.066700
     43 H232       -0.5540    9.2200   -6.6590 hc        1 1B1      0.066700
     44 H233        0.3050    9.6860   -5.1250 hc        1 1B1      0.066700
     45 C11         0.8590    0.5370    3.7190 c3        1 1B1     -0.150400
     46 H33         3.9170   -0.0880    1.2570 hn        1 1B1      0.478133
@<TRIPOS>BOND
     1    1    2 1   
     2    1    4 1   
     3    1    5 1   
     4    1   20 1   
     5    2    3 2   
     6    3   11 1   
     7    3   22 1   
     8    4   12 1   
     9    4   13 1   
    10    4   25 1   
    11    5    6 ar  
    12    5   10 ar  
    13    6    7 ar  
    14    6   32 1   
    15    7    8 ar  
    16    7   14 1   
    17    8    9 ar  
    18    8   34 1   
    19    9   10 ar  
    20    9   35 1   
    21   10   33 1   
    22   11   26 1   
    23   11   27 1   
    24   11   46 1   
    25   12   13 1   
    26   12   30 1   
    27   12   31 1   
    28   13   28 1   
    29   13   29 1   
    30   14   15 ar  
    31   14   18 ar  
    32   15   16 ar  
    33   15   39 1   
    34   16   17 ar  
    35   16   19 1   
    36   17   21 ar  
    37   17   41 1   
    38   18   21 ar  
    39   18   40 1   
    40   19   23 3   
    41   20   22 2   
    42   22   45 1   
    43   23   24 1   
    44   24   42 1   
    45   24   43 1   
    46   24   44 1   
    47   36   45 1   
    48   37   45 1   
    49   38   45 1   
@<TRIPOS>SUBSTRUCTURE
     1 1B1         1 TEMP              0 ****  ****    0 ROOT
