@<TRIPOS>MOLECULE
1B1
   45    42     1     0     0
SMALL
bcc


@<TRIPOS>ATOM
      1 C1          2.3250    0.1880   -0.6530 c3        1 1B1      0.086000
      2 N1          2.9260    1.5240   -0.4310 n2        1 1B1     -0.210000
      3 C2          4.0410    1.7450   -1.3940 c1        1 1B1      0.032000
      4 C4          2.4060   -0.2840   -0.0060 cx        1 1B1     -0.139000
      5 C5          0.5450    0.3180   -1.1570 c2        1 1B1     -0.053000
      6 C6         -0.4480   -0.2260   -0.3490 c1        1 1B1     -0.094000
      7 C7         -1.7880   -0.0810   -0.6990 c1        1 1B1     -0.049000
      8 C8         -2.1340    0.6090   -1.8570 c1        1 1B1     -0.113000
      9 C9         -1.1410    1.1530   -2.6650 c1        1 1B1     -0.139000
     10 C10         0.1990    1.0080   -2.3150 c2        1 1B1     -0.099000
     11 N3          4.2840    3.0570   -1.9190 n2        1 1B1     -0.311000
     12 C11         5.5900    0.1030   -2.7480 c3        1 1B1     -0.173000
     13 C13         3.0200   -1.1730   -0.1320 cx        1 1B1     -0.201500
     14 C12         1.9360   -1.2660   -0.0610 cx        1 1B1     -0.201500
     15 C14        -2.8710   -0.7770    0.1250 c2        1 1B1     -0.080000
     16 C15        -3.1470   -0.3470    1.3960 c2        1 1B1     -0.068000
     17 C16        -4.1620   -0.9260    2.1080 c1        1 1B1     -0.013000
     18 C17        -4.9120   -1.9510    1.5410 c1        1 1B1     -0.054000
     19 C19        -3.6230   -1.8030   -0.4400 c1        1 1B1     -0.060000
     20 C21        -4.4540   -0.4650    3.5310 c1        1 1B1     -0.134000
     21 N17         3.2750   -0.3940   -1.9440 n2        1 1B1     -0.134000
     22 N5         -4.6350   -2.3800    0.2710 n1        1 1B1     -0.139000
     23 C18         4.1960    0.5370   -2.2830 c2        1 1B1     -0.050000
     24 C22        -4.6840   -0.1030    4.6500 c1        1 1B1     -0.132000
     25 C23        -4.9740    0.3560    6.0670 c2        1 1B1     -0.112000
     26 H4          2.4310    0.1300    0.9040 hc        1 1B1      0.134000
     27 H31N        3.5850    3.6300   -2.0610 hn        1 1B1      0.203500
     28 H32N        5.1450    3.3370   -2.0710 hn        1 1B1      0.203500
     29 H121        1.4690   -1.4690   -0.9020 hc        1 1B1      0.112500
     30 H122        1.5910   -1.6250    0.7930 hc        1 1B1      0.112500
     31 H131        3.5300   -1.4600    0.6690 hc        1 1B1      0.112500
     32 H132        3.4010   -1.3040   -1.0260 hc        1 1B1      0.112500
     33 H6         -0.2040   -0.7120    0.4660 ha        1 1B1      0.152000
     34 H10         0.8970    1.3910   -2.8830 ha        1 1B1      0.151000
     35 H8         -3.0820    0.7120   -2.1040 ha        1 1B1      0.135000
     36 H9         -1.3850    1.6390   -3.4800 ha        1 1B1      0.134000
     37 H111        5.9690    0.7920   -3.3380 hc        1 1B1      0.101667
     38 H112        6.1740   -0.0160   -1.9650 hc        1 1B1      0.101667
     39 H113        5.5220   -0.7410   -3.2350 hc        1 1B1      0.101667
     40 H15        -2.6210    0.3700    1.7930 ha        1 1B1      0.151000
     41 H19        -3.4450   -2.0920   -1.3650 ha        1 1B1      0.164000
     42 H17        -5.6400   -2.3670    2.0510 ha        1 1B1      0.165000
     43 H231       -5.3350    1.2690    6.0480 ha        1 1B1      0.097333
     44 H232       -5.6290   -0.2450    6.4770 ha        1 1B1      0.097333
     45 H233       -4.1450    0.3430    6.5920 ha        1 1B1      0.097333
@<TRIPOS>BOND
     1    1    2 1   
     2    1    4 1   
     3    1    5 1   
     4    1   21 1   
     5    2    3 1   
     6    3   23 1   
     7    4   13 1   
     8    4   14 1   
     9    4   26 1   
    10    5    6 1   
    11    5   10 1   
    12    6   33 1   
    13    7    8 1   
    14    7   15 1   
    15    8   35 1   
    16    9   10 1   
    17    9   36 1   
    18   10   34 1   
    19   11   27 1   
    20   11   28 1   
    21   12   23 1   
    22   12   37 1   
    23   12   38 1   
    24   12   39 1   
    25   13   14 1   
    26   13   31 1   
    27   13   32 1   
    28   14   29 1   
    29   14   30 1   
    30   15   16 1   
    31   15   19 1   
    32   16   17 1   
    33   16   40 1   
    34   17   20 1   
    35   18   22 1   
    36   18   42 1   
    37   19   41 1   
    38   20   24 1   
    39   21   23 1   
    40   25   43 1   
    41   25   44 1   
    42   25   45 1   
@<TRIPOS>SUBSTRUCTURE
     1 1B1         1 TEMP              0 ****  ****    0 ROOT
