@<TRIPOS>MOLECULE
1B1
   46    49     1     0     0
SMALL
bcc


@<TRIPOS>ATOM
      1 C1          0.0260   -0.0180    0.1250 c3        1 1B1      0.352700
      2 N1          1.5410    0.0980    0.0720 n2        1 1B1     -0.460900
      3 C2          1.9190    0.3110    1.3080 ce        1 1B1      0.291900
      4 C4         -0.4620   -1.3740   -0.3850 cx        1 1B1     -0.119700
      5 C5         -0.6320    1.0640   -0.7270 ca        1 1B1     -0.099300
      6 C6          0.0430    1.6530   -1.7980 ca        1 1B1     -0.106000
      7 C7         -0.5930    2.6230   -2.5870 cp        1 1B1     -0.020000
      8 C8         -1.9160    2.9860   -2.2990 ca        1 1B1     -0.093000
      9 C9         -2.5910    2.3810   -1.2420 ca        1 1B1     -0.121000
     10 C10        -1.9600    1.4190   -0.4550 ca        1 1B1     -0.099000
     11 N3          3.2890    0.5160    1.7610 nz        1 1B1     -0.766600
     12 C13         0.2210   -2.0890   -1.5190 cx        1 1B1     -0.112900
     13 C12         0.2800   -2.6580   -0.1330 cx        1 1B1     -0.112900
     14 C14         0.1210    3.2400   -3.6990 cp        1 1B1     -0.174300
     15 C15        -0.0260    4.6040   -3.9910 ca        1 1B1     -0.068000
     16 C16         0.6860    5.1550   -5.0670 ca        1 1B1     -0.061300
     17 C17         1.5320    4.2970   -5.8170 ca        1 1B1      0.423200
     18 C19         0.9850    2.4760   -4.5170 ca        1 1B1      0.404200
     19 C21         0.5710    6.5120   -5.3990 cg        1 1B1     -0.163000
     20 N17        -0.3600    0.1450    1.5860 n2        1 1B1     -0.464900
     21 N5          1.6780    2.9890   -5.5490 nb        1 1B1     -0.658000
     22 C18         0.7260    0.3380    2.2740 ce        1 1B1      0.323000
     23 C22         0.4720    7.6710   -5.6920 c1        1 1B1     -0.066100
     24 C23         0.3550    9.0460   -6.0440 c3        1 1B1     -0.032000
     25 H4         -1.5740   -1.3930   -0.3470 hc        1 1B1      0.124700
     26 H31N        3.9450   -0.0850    1.2440 hn        1 1B1      0.478133
     27 H32N        3.3310    0.2940    2.7640 hn        1 1B1      0.478133
     28 H121        1.2380   -2.6510    0.4120 hc        1 1B1      0.084200
     29 H122       -0.3130   -3.5620    0.1070 hc        1 1B1      0.084200
     30 H131       -0.4180   -2.5800   -2.2780 hc        1 1B1      0.084200
     31 H132        1.1330   -1.6650   -1.9740 hc        1 1B1      0.084200
     32 H6          1.0740    1.3650   -2.0580 ha        1 1B1      0.143000
     33 H10        -2.5200    0.9430    0.3650 ha        1 1B1      0.155000
     34 H8         -2.4250    3.7400   -2.9200 ha        1 1B1      0.154000
     35 H9         -3.6360    2.6580   -1.0270 ha        1 1B1      0.153000
     36 H111        1.5070   -0.2870    4.1620 hc        1 1B1      0.080367
     37 H112        1.4150    1.5240    3.9130 hc        1 1B1      0.080367
     38 H113       -0.0870    0.5680    4.2520 hc        1 1B1      0.080367
     39 H15        -0.6880    5.2380   -3.3830 ha        1 1B1      0.149000
     40 H19         1.1150    1.3930   -4.3440 h4        1 1B1      0.021100
     41 H17         2.1120    4.6880   -6.6730 h4        1 1B1      0.040100
     42 H231        1.3460    9.4520   -6.3780 hc        1 1B1      0.066367
     43 H232       -0.3800    9.1750   -6.8820 hc        1 1B1      0.066367
     44 H233        0.0010    9.6490   -5.1670 hc        1 1B1      0.066367
     45 C11         0.9030    0.5470    3.7240 c3        1 1B1     -0.150400
     46 H33         3.5500    1.5010    1.6160 hn        1 1B1      0.478133
@<TRIPOS>BOND
     1    1    2 1   
     2    1    4 1   
     3    1    5 1   
     4    1   20 1   
     5    2    3 2   
     6    3   11 1   
     7    3   22 1   
     8    4   12 1   
     9    4   13 1   
    10    4   25 1   
    11    5    6 ar  
    12    5   10 ar  
    13    6    7 ar  
    14    6   32 1   
    15    7    8 ar  
    16    7   14 1   
    17    8    9 ar  
    18    8   34 1   
    19    9   10 ar  
    20    9   35 1   
    21   10   33 1   
    22   11   26 1   
    23   11   27 1   
    24   11   46 1   
    25   12   13 1   
    26   12   30 1   
    27   12   31 1   
    28   13   28 1   
    29   13   29 1   
    30   14   15 ar  
    31   14   18 ar  
    32   15   16 ar  
    33   15   39 1   
    34   16   17 ar  
    35   16   19 1   
    36   17   21 ar  
    37   17   41 1   
    38   18   21 ar  
    39   18   40 1   
    40   19   23 3   
    41   20   22 2   
    42   22   45 1   
    43   23   24 1   
    44   24   42 1   
    45   24   43 1   
    46   24   44 1   
    47   36   45 1   
    48   37   45 1   
    49   38   45 1   
@<TRIPOS>SUBSTRUCTURE
     1 1B1         1 TEMP              0 ****  ****    0 ROOT
