@<TRIPOS>MOLECULE
1B1
   45    48     1     0     0
SMALL
bcc


@<TRIPOS>ATOM
      1 C1         -2.8550    0.2440   -0.3460 c3        1 1B1      0.343700
      2 N1         -2.7900   -1.0930    0.3400 n2        1 1B1     -0.632900
      3 C2         -3.5020   -0.9790    1.4500 ce        1 1B1      0.477900
      4 C4         -3.5080    0.1600   -1.7280 cx        1 1B1     -0.104700
      5 C5         -1.4700    0.8530   -0.5470 ca        1 1B1     -0.060300
      6 C6         -0.3140    0.0710   -0.4910 ca        1 1B1     -0.091000
      7 C7          0.9460    0.6520   -0.7070 cp        1 1B1     -0.050000
      8 C8          1.0380    2.0220   -0.9830 ca        1 1B1     -0.113000
      9 C9         -0.1170    2.7970   -1.0490 ca        1 1B1     -0.138000
     10 C10        -1.3670    2.2200   -0.8370 ca        1 1B1     -0.103000
     11 N3         -3.8340   -1.9620    2.3670 nh        1 1B1     -0.873800
     12 C13        -3.3340   -1.0490   -2.6070 cx        1 1B1     -0.119900
     13 C12        -4.6750   -0.7470   -2.0080 cx        1 1B1     -0.119900
     14 C14         2.1500   -0.1700   -0.6450 cp        1 1B1     -0.146300
     15 C15         3.3310    0.3130   -0.0650 ca        1 1B1     -0.070000
     16 C16         4.4650   -0.5140   -0.0290 ca        1 1B1     -0.082300
     17 C17         4.3620   -1.8120   -0.5860 ca        1 1B1      0.412200
     18 C19         2.1600   -1.4820   -1.1730 ca        1 1B1      0.407200
     19 C21         5.6690   -0.0740    0.5430 cg        1 1B1     -0.131000
     20 N17        -3.6940    1.1590    0.5400 n2        1 1B1     -0.536900
     21 N5          3.2370   -2.2870   -1.1460 nb        1 1B1     -0.665000
     22 C18        -4.0640    0.4550    1.5690 ce        1 1B1      0.305000
     23 C22         6.6980    0.2990    1.0300 c1        1 1B1     -0.105100
     24 C23         7.9230    0.7420    1.6090 c3        1 1B1     -0.021000
     25 H4         -3.5010    1.1580   -2.2130 hc        1 1B1      0.091700
     26 H31N       -3.2990   -2.8020    2.3220 hn        1 1B1      0.410300
     27 H32N       -3.9830   -1.6160    3.2880 hn        1 1B1      0.410300
     28 H121       -5.0660   -1.4020   -1.2100 hc        1 1B1      0.074950
     29 H122       -5.4840   -0.3690   -2.6590 hc        1 1B1      0.074950
     30 H131       -3.1780   -0.8860   -3.6890 hc        1 1B1      0.074950
     31 H132       -2.7610   -1.9190   -2.2380 hc        1 1B1      0.074950
     32 H6         -0.3680   -1.0080   -0.2800 ha        1 1B1      0.154000
     33 H10        -2.2710    2.8470   -0.8990 ha        1 1B1      0.149000
     34 H8          2.0220    2.4830   -1.1570 ha        1 1B1      0.134000
     35 H9         -0.0430    3.8720   -1.2730 ha        1 1B1      0.134000
     36 H111       -5.7890    0.1890    2.7870 hc        1 1B1      0.061700
     37 H112       -4.3000    0.7640    3.6620 hc        1 1B1      0.061700
     38 H113       -5.2480    1.9170    2.6270 hc        1 1B1      0.061700
     39 H15         3.3680    1.3250    0.3630 ha        1 1B1      0.148000
     40 H19         1.2540   -1.9040   -1.6460 h4        1 1B1      0.030100
     41 H17         5.2290   -2.4970   -0.5800 h4        1 1B1      0.029100
     42 H231        8.4120   -0.0900    2.1780 hc        1 1B1      0.058367
     43 H232        8.6310    1.0900    0.8120 hc        1 1B1      0.058367
     44 H233        7.7380    1.5940    2.3150 hc        1 1B1      0.058367
     45 C11        -4.8950    0.8590    2.7200 c3        1 1B1     -0.129400
@<TRIPOS>BOND
     1    1    2 1   
     2    1    4 1   
     3    1    5 1   
     4    1   20 1   
     5    2    3 2   
     6    3   11 1   
     7    3   22 1   
     8    4   12 1   
     9    4   13 1   
    10    4   25 1   
    11    5    6 ar  
    12    5   10 ar  
    13    6    7 ar  
    14    6   32 1   
    15    7    8 ar  
    16    7   14 1   
    17    8    9 ar  
    18    8   34 1   
    19    9   10 ar  
    20    9   35 1   
    21   10   33 1   
    22   11   26 1   
    23   11   27 1   
    24   12   13 1   
    25   12   30 1   
    26   12   31 1   
    27   13   28 1   
    28   13   29 1   
    29   14   15 ar  
    30   14   18 ar  
    31   15   16 ar  
    32   15   39 1   
    33   16   17 ar  
    34   16   19 1   
    35   17   21 ar  
    36   17   41 1   
    37   18   21 ar  
    38   18   40 1   
    39   19   23 3   
    40   20   22 2   
    41   22   45 1   
    42   23   24 1   
    43   24   42 1   
    44   24   43 1   
    45   24   44 1   
    46   36   45 1   
    47   37   45 1   
    48   38   45 1   
@<TRIPOS>SUBSTRUCTURE
     1 1B1         1 TEMP              0 ****  ****    0 ROOT
