@<TRIPOS>MOLECULE
1B1
   46    49     1     0     0
SMALL
bcc


@<TRIPOS>ATOM
      1 C1          0.0390    0.0180    0.1650 c3        1 1B1      0.352700
      2 N1          1.5560    0.1020    0.1150 n2        1 1B1     -0.460900
      3 C2          1.9360    0.3270    1.3480 ce        1 1B1      0.291900
      4 C4         -0.4740   -1.3360   -0.3260 cx        1 1B1     -0.119700
      5 C5         -0.5960    1.0990   -0.7050 ca        1 1B1     -0.099300
      6 C6          0.0940    1.6570   -1.7840 ca        1 1B1     -0.106000
      7 C7         -0.5210    2.6280   -2.5900 cp        1 1B1     -0.020000
      8 C8         -1.8370    3.0220   -2.3090 ca        1 1B1     -0.093000
      9 C9         -2.5260    2.4480   -1.2440 ca        1 1B1     -0.121000
     10 C10        -1.9160    1.4850   -0.4420 ca        1 1B1     -0.099000
     11 N3          3.3080    0.5110    1.8010 n4        1 1B1     -0.766600
     12 C13         0.1960   -2.0820   -1.4470 cx        1 1B1     -0.112900
     13 C12         0.2410   -2.6310   -0.0530 cx        1 1B1     -0.112900
     14 C14         0.2080    3.2130   -3.7090 cp        1 1B1     -0.174300
     15 C15         0.0880    4.5740   -4.0230 ca        1 1B1     -0.068000
     16 C16         0.8130    5.0940   -5.1060 ca        1 1B1     -0.061300
     17 C17         1.6430    4.2080   -5.8400 ca        1 1B1      0.423200
     18 C19         1.0570    2.4190   -4.5130 ca        1 1B1      0.404200
     19 C21         0.7260    6.4480   -5.4600 cg        1 1B1     -0.163000
     20 N17        -0.3470    0.2100    1.6220 n2        1 1B1     -0.464900
     21 N5          1.7620    2.9010   -5.5520 nb        1 1B1     -0.658000
     22 C18         0.7410    0.3920    2.3100 ce        1 1B1      0.323000
     23 C22         0.6500    7.6030   -5.7710 c1        1 1B1     -0.066100
     24 C23         0.5620    8.9750   -6.1460 c3        1 1B1     -0.032000
     25 H4         -1.5870   -1.3330   -0.2910 hc        1 1B1      0.124700
     26 H31N        3.9530   -0.1100    1.2940 hn        1 1B1      0.478133
     27 H32N        3.3430    0.3030    2.8080 hn        1 1B1      0.478133
     28 H121        1.1980   -2.6350    0.4950 hc        1 1B1      0.084200
     29 H122       -0.3700   -3.5180    0.2000 hc        1 1B1      0.084200
     30 H131       -0.4500   -2.5710   -2.2000 hc        1 1B1      0.084200
     31 H132        1.1180   -1.6830   -1.9060 hc        1 1B1      0.084200
     32 H6          1.1190    1.3450   -2.0370 ha        1 1B1      0.143000
     33 H10        -2.4870    1.0340    0.3850 ha        1 1B1      0.155000
     34 H8         -2.3300    3.7770   -2.9430 ha        1 1B1      0.154000
     35 H9         -3.5650    2.7490   -1.0370 ha        1 1B1      0.153000
     36 H111        1.4500    1.5880    3.9330 hc        1 1B1      0.080367
     37 H112       -0.0720    0.6680    4.2830 hc        1 1B1      0.080367
     38 H113        1.5050   -0.2200    4.2090 hc        1 1B1      0.080367
     39 H15        -0.5620    5.2310   -3.4260 ha        1 1B1      0.149000
     40 H19         1.1650    1.3360   -4.3230 h4        1 1B1      0.021100
     41 H17         2.2320    4.5730   -6.7020 h4        1 1B1      0.040100
     42 H231        1.5790    9.3860   -6.3770 hc        1 1B1      0.066367
     43 H232       -0.0820    9.0910   -7.0570 hc        1 1B1      0.066367
     44 H233        0.1130    9.5820   -5.3160 hc        1 1B1      0.066367
     45 C11         0.9190    0.6190    3.7570 c3        1 1B1     -0.150400
     46 H33         3.5890    1.4890    1.6420 hn        1 1B1      0.478133
@<TRIPOS>BOND
     1    1    2 1   
     2    1    4 1   
     3    1    5 1   
     4    1   20 1   
     5    2    3 2   
     6    3   11 1   
     7    3   22 1   
     8    4   12 1   
     9    4   13 1   
    10    4   25 1   
    11    5    6 ar  
    12    5   10 ar  
    13    6    7 ar  
    14    6   32 1   
    15    7    8 ar  
    16    7   14 1   
    17    8    9 ar  
    18    8   34 1   
    19    9   10 ar  
    20    9   35 1   
    21   10   33 1   
    22   11   26 1   
    23   11   27 1   
    24   11   46 1   
    25   12   13 1   
    26   12   30 1   
    27   12   31 1   
    28   13   28 1   
    29   13   29 1   
    30   14   15 ar  
    31   14   18 ar  
    32   15   16 ar  
    33   15   39 1   
    34   16   17 ar  
    35   16   19 1   
    36   17   21 ar  
    37   17   41 1   
    38   18   21 ar  
    39   18   40 1   
    40   19   23 3   
    41   20   22 2   
    42   22   45 1   
    43   23   24 1   
    44   24   42 1   
    45   24   43 1   
    46   24   44 1   
    47   36   45 1   
    48   37   45 1   
    49   38   45 1   
@<TRIPOS>SUBSTRUCTURE
     1 1B1         1 TEMP              0 ****  ****    0 ROOT
