@<TRIPOS>MOLECULE
1B2
   44    35     1     0     0
SMALL
bcc


@<TRIPOS>ATOM
      1 O8          2.0580   -3.8820    1.6490 o         1 1B2     -0.348000
      2 C4          1.6310   -3.5630    0.5570 c1        1 1B2      0.336000
      3 C3          0.9590   -4.5930   -0.3210 c3        1 1B2     -0.088000
      4 C2         -0.4070   -4.9170    0.2370 c3        1 1B2      0.007000
      5 C1         -1.3440   -5.2680   -0.8950 c3        1 1B2     -0.217000
      6 O6         -0.3060   -6.0100    1.1190 oh        1 1B2     -0.334000
      7 N7          1.7500   -5.7750   -0.3570 n3        1 1B2     -0.331000
      8 N5          1.8000   -2.2340    0.0910 n2        1 1B2     -0.840000
      9 S9          2.0570   -1.0150    1.1610 s4        1 1B2      2.074800
     10 O10         1.1500   -1.0970    2.2720 o         1 1B2     -0.523900
     11 O11         3.3230   -1.1610    1.8230 o         1 1B2     -0.523900
     12 C12         1.9340    0.5540    0.3450 c1        1 1B2     -0.841000
     13 C13         3.0000    1.0300   -0.4030 c1        1 1B2     -0.086000
     14 C14         2.9300    2.2840   -0.9890 c1        1 1B2     -0.086000
     15 C15         1.7940    3.0620   -0.8270 c1        1 1B2     -0.057000
     16 C16         0.7290    2.5860   -0.0790 c1        1 1B2     -0.053000
     17 C17         0.7990    1.3320    0.5070 c2        1 1B2     -0.010000
     18 C18        -0.4910    3.4540    0.1350 c1        1 1B2     -0.099000
     19 C19        -1.5760    3.4570   -0.7270 c1        1 1B2     -0.089000
     20 C20        -2.6450    4.3470   -0.5080 c1        1 1B2     -0.099000
     21 C26        -3.8470    4.5320   -1.1690 c1        1 1B2     -0.129000
     22 N25        -4.5400    5.4940   -0.5160 n2        1 1B2     -0.103000
     23 N24        -3.7810    5.9160    0.5520 n2        1 1B2     -0.092000
     24 C21        -2.6130    5.2030    0.5500 c1        1 1B2     -0.075000
     25 C22        -1.5100    5.1990    1.4250 c1        1 1B2     -0.085000
     26 C23        -0.4590    4.3240    1.2100 c1        1 1B2     -0.089000
     27 H1          0.8650   -4.2370   -1.2270 h1        1 1B2      0.121000
     28 H2         -0.7550   -4.1410    0.7190 h1        1 1B2      0.101000
     29 H3         -2.2690   -5.2450   -0.5730 hc        1 1B2      0.086667
     30 H4         -1.1360   -6.1670   -1.2250 hc        1 1B2      0.086667
     31 H5         -1.2350   -4.6200   -1.6230 hc        1 1B2      0.086667
     32 H6         -0.8650   -5.8930    1.8010 ho        1 1B2      0.228000
     33 H7          1.5680   -6.2420   -1.1230 hn        1 1B2      0.160500
     34 H8          2.6380   -5.5500   -0.3410 hn        1 1B2      0.160500
     35 H10         1.7970   -2.0620   -0.8050 hn        1 1B2      0.260000
     36 H11         3.8000    0.4820   -0.5170 ha        1 1B2      0.151500
     37 H12         3.6800    2.6200   -1.5150 ha        1 1B2      0.151500
     38 H13         1.7450    3.9450   -1.2390 ha        1 1B2      0.142000
     39 H14         0.0480    0.9970    1.0330 ha        1 1B2      0.160000
     40 H15        -1.5840    2.8670   -1.5040 ha        1 1B2      0.138000
     41 H16        -4.1430    4.0520   -1.9660 DU        1 1B2      0.229000
     42 H17        -5.3740    5.7940   -0.7320 DU        1 1B2      0.229000
     43 H18        -1.4870    5.8130    2.1840 ha        1 1B2      0.150000
     44 H19         0.3100    4.3280    1.8120 ha        1 1B2      0.138000
@<TRIPOS>BOND
     1    1    2 1   
     2    2    3 1   
     3    3    4 1   
     4    3    7 1   
     5    3   27 1   
     6    4    5 1   
     7    4    6 1   
     8    4   28 1   
     9    5   29 1   
    10    5   30 1   
    11    5   31 1   
    12    6   32 1   
    13    7   33 1   
    14    7   34 1   
    15    8    9 1   
    16    8   35 1   
    17    9   10 1   
    18    9   11 1   
    19   12   17 1   
    20   13   14 1   
    21   13   36 1   
    22   14   37 1   
    23   15   16 1   
    24   15   38 1   
    25   16   17 1   
    26   17   39 1   
    27   18   26 1   
    28   19   20 1   
    29   19   40 1   
    30   21   22 1   
    31   22   23 1   
    32   23   24 1   
    33   24   25 1   
    34   25   43 1   
    35   26   44 1   
@<TRIPOS>SUBSTRUCTURE
     1 1B2         1 TEMP              0 ****  ****    0 ROOT
