@<TRIPOS>MOLECULE
1B2
   44    46     1     0     0
SMALL
bcc


@<TRIPOS>ATOM
      1 O8          1.5420   -1.3170   -0.4350 o         1 1B2     -0.582100
      2 C4          2.5590   -0.9180    0.1590 c         1 1B2      0.654100
      3 C3          3.3860   -1.8600    1.0650 c3        1 1B2      0.073500
      4 C2          4.8030   -2.0550    0.4560 c3        1 1B2      0.153100
      5 C1          5.7570   -2.5920    1.5070 c3        1 1B2     -0.131100
      6 O6          4.7690   -2.8750   -0.6950 oh        1 1B2     -0.585800
      7 N7          2.7260   -3.1160    1.3360 n3        1 1B2     -0.886800
      8 N5          2.9510    0.4130    0.0570 n         1 1B2     -0.666300
      9 S9          2.3050    1.6260   -0.8740 sy        1 1B2      1.510900
     10 O10         3.1610    2.7350   -0.6780 o         1 1B2     -0.639300
     11 O11         2.1170    1.2090   -2.1960 o         1 1B2     -0.639300
     12 C12         0.8290    1.9350   -0.1460 ca        1 1B2     -0.398500
     13 C13         0.6700    3.0580    0.6800 ca        1 1B2     -0.019000
     14 C14        -0.5660    3.3550    1.2410 ca        1 1B2     -0.160000
     15 C15        -1.6650    2.5360    0.9860 ca        1 1B2     -0.056000
     16 C16        -1.5320    1.4070    0.1660 cp        1 1B2     -0.056000
     17 C17        -0.2800    1.1170   -0.3920 ca        1 1B2      0.006000
     18 C18        -2.6830    0.5450   -0.1030 cp        1 1B2     -0.056000
     19 C19        -3.5770    0.2370    0.8990 ca        1 1B2     -0.066000
     20 C20        -4.6740   -0.5950    0.6020 ca        1 1B2     -0.135000
     21 C26        -5.7650   -1.1200    1.3330 cc        1 1B2     -0.158100
     22 N25        -6.4930   -1.8820    0.4290 na        1 1B2      0.052800
     23 N24        -5.9880   -1.9030   -0.8000 nc        1 1B2     -0.273400
     24 C21        -4.8570   -1.1210   -0.7550 ca        1 1B2     -0.075000
     25 C22        -3.9120   -0.7800   -1.7640 ca        1 1B2     -0.086000
     26 C23        -2.8620    0.0290   -1.4300 ca        1 1B2     -0.111000
     27 H1          3.5190   -1.3350    2.0590 h1        1 1B2      0.078700
     28 H2          5.1790   -1.0650    0.0690 h1        1 1B2      0.073700
     29 H3          6.7630   -2.7510    1.0490 hc        1 1B2      0.053033
     30 H4          5.8540   -1.8660    2.3480 hc        1 1B2      0.053033
     31 H5          5.3930   -3.5650    1.9160 hc        1 1B2      0.053033
     32 H6          4.7230   -3.7960   -0.4060 ho        1 1B2      0.409000
     33 H7          1.8280   -2.9530    1.7490 hn        1 1B2      0.366300
     34 H8          2.5950   -3.6300    0.4840 hn        1 1B2      0.366300
     35 H10         3.7570    0.6400    0.6010 hn        1 1B2      0.332500
     36 H11         1.5370    3.7160    0.8680 ha        1 1B2      0.158000
     37 H12        -0.6800    4.2420    1.8820 ha        1 1B2      0.142000
     38 H13        -2.6470    2.7790    1.4240 ha        1 1B2      0.141000
     39 H14        -0.1570    0.2220   -1.0330 ha        1 1B2      0.176000
     40 H15        -3.4470    0.6190    1.9220 ha        1 1B2      0.132000
     41 H16        -6.0500   -1.0060    2.3770 h4        1 1B2      0.181000
     42 H17        -7.3260   -2.3900    0.6250 hn        1 1B2      0.323700
     43 H18        -4.0410   -1.1690   -2.7840 ha        1 1B2      0.150000
     44 H19        -2.1200    0.3090   -2.1950 ha        1 1B2      0.143000
@<TRIPOS>BOND
     1    1    2 2   
     2    2    3 1   
     3    2    8 1   
     4    3    4 1   
     5    3    7 1   
     6    3   27 1   
     7    4    5 1   
     8    4    6 1   
     9    4   28 1   
    10    5   29 1   
    11    5   30 1   
    12    5   31 1   
    13    6   32 1   
    14    7   33 1   
    15    7   34 1   
    16    8    9 1   
    17    8   35 1   
    18    9   10 2   
    19    9   11 2   
    20    9   12 1   
    21   12   13 ar  
    22   12   17 ar  
    23   13   14 ar  
    24   13   36 1   
    25   14   15 ar  
    26   14   37 1   
    27   15   16 ar  
    28   15   38 1   
    29   16   17 ar  
    30   16   18 1   
    31   17   39 1   
    32   18   19 ar  
    33   18   26 ar  
    34   19   20 ar  
    35   19   40 1   
    36   20   21 2   
    37   20   24 ar  
    38   21   22 1   
    39   21   41 1   
    40   22   23 1   
    41   22   42 1   
    42   23   24 2   
    43   24   25 ar  
    44   25   26 ar  
    45   25   43 1   
    46   26   44 1   
@<TRIPOS>SUBSTRUCTURE
     1 1B2         1 TEMP              0 ****  ****    0 ROOT
