@<TRIPOS>MOLECULE
1B2
   46    48     1     0     0
SMALL
bcc


@<TRIPOS>ATOM
      1 O8          1.2060    0.2530   -0.6060 os        1 1B2     -0.547300
      2 C4          1.4550   -0.8090    0.1010 c2        1 1B2      0.619600
      3 C3          2.6570   -0.6450    1.0600 c3        1 1B2      0.039200
      4 C2          3.0750   -1.9580    1.7740 c3        1 1B2      0.124100
      5 C1          4.3310   -1.7690    2.5990 c3        1 1B2     -0.168100
      6 O6          1.9560   -2.3260    2.5650 oh        1 1B2     -0.649800
      7 N7          2.3610    0.4430    2.0430 n4        1 1B2     -0.832600
      8 N5          0.7390   -1.9190    0.0050 nh        1 1B2     -0.409100
      9 S9          0.5960    0.5530   -2.3930 sy        1 1B2      1.731800
     10 O10         1.8710    0.4760   -2.8610 o         1 1B2     -0.601300
     11 O11        -0.1920   -0.5610   -2.2960 o         1 1B2     -0.601300
     12 C12        -0.0920    1.9520   -2.3380 ca        1 1B2     -0.580500
     13 C13         0.6270    3.1350   -2.6530 ca        1 1B2      0.005000
     14 C14        -0.0020    4.3670   -2.6810 ca        1 1B2     -0.143000
     15 C15        -1.3660    4.4700   -2.3910 ca        1 1B2      0.016000
     16 C16        -2.1160    3.3220   -2.0670 cp        1 1B2     -0.006000
     17 C17        -1.4730    2.0850   -2.0480 ca        1 1B2      0.009000
     18 C18        -3.5400    3.4220   -1.7670 cp        1 1B2     -0.130000
     19 C19        -4.3510    4.2760   -2.4910 ca        1 1B2     -0.005000
     20 C20        -5.7180    4.3360   -2.1810 ca        1 1B2     -0.161000
     21 C26        -6.8380    5.0520   -2.6810 cc        1 1B2     -0.116100
     22 N25        -7.9170    4.6390   -1.9200 na        1 1B2      0.075800
     23 N24        -7.6210    3.7390   -0.9880 nc        1 1B2     -0.243400
     24 C21        -6.2710    3.5090   -1.1000 ca        1 1B2     -0.071000
     25 C22        -5.4030    2.6490   -0.3710 ca        1 1B2     -0.057000
     26 C23        -4.0800    2.6170   -0.7110 ca        1 1B2     -0.135000
     27 H1          3.5290   -0.3080    0.4070 hx        1 1B2      0.167700
     28 H2          3.2550   -2.7370    0.9760 h1        1 1B2      0.104700
     29 H3          4.1270   -1.1940    3.5350 hc        1 1B2      0.086700
     30 H4          4.7290   -2.7730    2.9050 hc        1 1B2      0.086700
     31 H5          5.1280   -1.2580    2.0070 hc        1 1B2      0.086700
     32 H6          2.2300   -3.0200    3.1860 ho        1 1B2      0.479000
     33 H7          3.2340    0.7100    2.5200 hn        1 1B2      0.485133
     34 H8          1.9660    1.2610    1.5600 hn        1 1B2      0.485133
     35 H10         0.0090   -2.0080   -0.6910 hn        1 1B2      0.357200
     36 H11         1.7030    3.0610   -2.8990 ha        1 1B2      0.168000
     37 H12         0.5720    5.2740   -2.9400 ha        1 1B2      0.182000
     38 H13        -1.8630    5.4570   -2.4140 ha        1 1B2      0.182000
     39 H14        -2.0650    1.1760   -1.8250 ha        1 1B2      0.170000
     40 H15        -3.9520    4.8930   -3.3110 ha        1 1B2      0.138000
     41 H16        -6.9200    5.7850   -3.4850 h4        1 1B2      0.200000
     42 H17        -8.8630    4.9520   -2.0130 hn        1 1B2      0.346700
     43 H18        -5.8100    2.0330    0.4460 ha        1 1B2      0.159000
     44 H19        -3.3910    1.9670   -0.1520 ha        1 1B2      0.109000
     45 H73         1.6940    0.0960    2.7480 hn        1 1B2      0.485133
     46 H52         0.9000   -2.7000    0.6160 hn        1 1B2      0.357200
@<TRIPOS>BOND
     1    1    2 1   
     2    1    9 1   
     3    2    3 1   
     4    2    8 2   
     5    3    4 1   
     6    3    7 1   
     7    3   27 1   
     8    4    5 1   
     9    4    6 1   
    10    4   28 1   
    11    5   29 1   
    12    5   30 1   
    13    5   31 1   
    14    6   32 1   
    15    7   33 1   
    16    7   34 1   
    17    7   45 1   
    18    8   35 1   
    19    8   46 1   
    20    9   10 2   
    21    9   11 2   
    22    9   12 1   
    23   12   13 ar  
    24   12   17 ar  
    25   13   14 ar  
    26   13   36 1   
    27   14   15 ar  
    28   14   37 1   
    29   15   16 ar  
    30   15   38 1   
    31   16   17 ar  
    32   16   18 1   
    33   17   39 1   
    34   18   19 ar  
    35   18   26 ar  
    36   19   20 ar  
    37   19   40 1   
    38   20   21 2   
    39   20   24 ar  
    40   21   22 1   
    41   21   41 1   
    42   22   23 1   
    43   22   42 1   
    44   23   24 2   
    45   24   25 ar  
    46   25   26 ar  
    47   25   43 1   
    48   26   44 1   
@<TRIPOS>SUBSTRUCTURE
     1 1B2         1 TEMP              0 ****  ****    0 ROOT
