@<TRIPOS>MOLECULE
1B2
   46    48     1     0     0
SMALL
bcc


@<TRIPOS>ATOM
      1 O8          1.2260    0.2860   -0.5780 os        1 1B2     -0.547300
      2 C4          1.4770   -0.7780    0.1250 c2        1 1B2      0.619600
      3 C3          2.6560   -0.6040    1.1090 c3        1 1B2      0.039200
      4 C2          3.0800   -1.9170    1.8200 c3        1 1B2      0.124100
      5 C1          4.3160   -1.7170    2.6730 c3        1 1B2     -0.168100
      6 O6          1.9500   -2.3090    2.5850 oh        1 1B2     -0.649800
      7 N7          2.3240    0.4700    2.0960 n4        1 1B2     -0.832600
      8 N5          0.7790   -1.8970    0.0050 nh        1 1B2     -0.409100
      9 S9          0.6480    0.5940   -2.3750 sy        1 1B2      1.731800
     10 O10         1.9330    0.5400   -2.8170 o         1 1B2     -0.601300
     11 O11        -0.1250   -0.5330   -2.3040 o         1 1B2     -0.601300
     12 C12        -0.0630    1.9810   -2.3210 ca        1 1B2     -0.580500
     13 C13         0.6430    3.1770   -2.6110 ca        1 1B2      0.005000
     14 C14        -0.0050    4.3990   -2.6410 ca        1 1B2     -0.143000
     15 C15        -1.3760    4.4790   -2.3790 ca        1 1B2      0.016000
     16 C16        -2.1140    3.3160   -2.0810 cp        1 1B2     -0.006000
     17 C17        -1.4520    2.0900   -2.0590 ca        1 1B2      0.009000
     18 C18        -3.5450    3.3920   -1.8100 cp        1 1B2     -0.130000
     19 C19        -4.3540    4.2390   -2.5430 ca        1 1B2     -0.005000
     20 C20        -5.7290    4.2750   -2.2610 ca        1 1B2     -0.161000
     21 C26        -6.8490    4.9780   -2.7780 cc        1 1B2     -0.116100
     22 N25        -7.9370    4.5420   -2.0420 na        1 1B2      0.075800
     23 N24        -7.6460    3.6380   -1.1120 nc        1 1B2     -0.243400
     24 C21        -6.2900    3.4300   -1.1990 ca        1 1B2     -0.071000
     25 C22        -5.4240    2.5770   -0.4590 ca        1 1B2     -0.057000
     26 C23        -4.0940    2.5690   -0.7720 ca        1 1B2     -0.135000
     27 H1          3.5350   -0.2480    0.4780 hx        1 1B2      0.167700
     28 H2          3.2880   -2.6870    1.0190 h1        1 1B2      0.104700
     29 H3          4.7230   -2.7170    2.9770 hc        1 1B2      0.086700
     30 H4          4.0840   -1.1530    3.6080 hc        1 1B2      0.086700
     31 H5          5.1170   -1.1880    2.1010 hc        1 1B2      0.086700
     32 H6          2.2230   -3.0040    3.2050 ho        1 1B2      0.479000
     33 H7          1.9270    1.2870    1.6120 hn        1 1B2      0.485133
     34 H8          1.6480    0.1070    2.7840 hn        1 1B2      0.485133
     35 H10         0.0660   -1.9920   -0.7070 hn        1 1B2      0.357200
     36 H11         1.7260    3.1220   -2.8350 ha        1 1B2      0.168000
     37 H12         0.5600    5.3180   -2.8810 ha        1 1B2      0.182000
     38 H13        -1.8880    5.4580   -2.4040 ha        1 1B2      0.182000
     39 H14        -2.0340    1.1690   -1.8560 ha        1 1B2      0.170000
     40 H15        -3.9490    4.8700   -3.3490 ha        1 1B2      0.138000
     41 H16        -6.9260    5.7160   -3.5770 h4        1 1B2      0.200000
     42 H17        -8.8850    4.8410   -2.1530 hn        1 1B2      0.346700
     43 H18        -5.8380    1.9480    0.3440 ha        1 1B2      0.159000
     44 H19        -3.4060    1.9250   -0.2040 ha        1 1B2      0.109000
     45 H73         3.1820    0.7460    2.5930 hn        1 1B2      0.485133
     46 H52         0.9410   -2.6810    0.6120 hn        1 1B2      0.357200
@<TRIPOS>BOND
     1    1    2 1   
     2    1    9 1   
     3    2    3 1   
     4    2    8 2   
     5    3    4 1   
     6    3    7 1   
     7    3   27 1   
     8    4    5 1   
     9    4    6 1   
    10    4   28 1   
    11    5   29 1   
    12    5   30 1   
    13    5   31 1   
    14    6   32 1   
    15    7   33 1   
    16    7   34 1   
    17    7   45 1   
    18    8   35 1   
    19    8   46 1   
    20    9   10 2   
    21    9   11 2   
    22    9   12 1   
    23   12   13 ar  
    24   12   17 ar  
    25   13   14 ar  
    26   13   36 1   
    27   14   15 ar  
    28   14   37 1   
    29   15   16 ar  
    30   15   38 1   
    31   16   17 ar  
    32   16   18 1   
    33   17   39 1   
    34   18   19 ar  
    35   18   26 ar  
    36   19   20 ar  
    37   19   40 1   
    38   20   21 2   
    39   20   24 ar  
    40   21   22 1   
    41   21   41 1   
    42   22   23 1   
    43   22   42 1   
    44   23   24 2   
    45   24   25 ar  
    46   25   26 ar  
    47   25   43 1   
    48   26   44 1   
@<TRIPOS>SUBSTRUCTURE
     1 1B2         1 TEMP              0 ****  ****    0 ROOT
