@<TRIPOS>MOLECULE
1B3
   49    50     1     0     0
SMALL
bcc


@<TRIPOS>ATOM
      1 CL2       -64.1520   47.6620   19.6520 cl        1 1B3     -0.077000
      2 C25       -64.6710   49.2750   19.3550 ca        1 1B3      0.796000
      3 N24       -63.9500   50.2640   19.9210 nb        1 1B3     -0.731000
      4 N26       -65.7870   49.3970   18.5570 nb        1 1B3     -0.769000
      5 C27       -66.2270   50.6600   18.3040 ca        1 1B3      0.743200
      6 N28       -67.3410   50.8180   17.5260 nh        1 1B3     -0.952500
      7 C21       -65.5290   51.8260   18.8610 ca        1 1B3     -0.303600
      8 C22       -64.3850   51.5450   19.6690 ca        1 1B3      0.465600
      9 C23       -63.6630   52.6430   20.2390 ca        1 1B3     -0.152300
     10 C20       -65.9180   53.1660   18.6480 ca        1 1B3     -0.056000
     11 C19       -65.2110   54.2040   19.2100 ca        1 1B3     -0.157000
     12 C18       -64.0720   53.9410   20.0120 cp        1 1B3     -0.062000
     13 C16       -63.3270   55.0550   20.6020 cp        1 1B3     -0.032000
     14 C17       -63.9960   56.1260   21.1820 ca        1 1B3      0.035000
     15 C15       -61.9170   55.0470   20.5980 ca        1 1B3      0.052000
     16 C14       -61.2030   56.1050   21.1720 ca        1 1B3     -0.149000
     17 C13       -61.8720   57.1660   21.7510 ca        1 1B3      0.035000
     18 C12       -63.2970   57.2150   21.7780 ca        1 1B3     -0.642500
     19 S9        -64.0480   58.3880   22.4270 s4        1 1B3      1.661300
     20 O10       -65.3980   58.3860   22.4040 o         1 1B3     -0.392900
     21 O11       -63.3310   59.3830   22.9930 o         1 1B3     -0.392900
     22 N5        119.8730  -87.9900  -24.5120 n         1 1B3     -0.608000
     23 C4        120.5570  -88.9920  -23.9160 c         1 1B3      0.649100
     24 O8        120.0180  -89.8950  -23.2400 o         1 1B3     -0.596100
     25 C3        122.1100  -89.0450  -24.0070 c3        1 1B3      0.035500
     26 N7        122.4920  -90.4630  -24.3140 n4        1 1B3     -0.831600
     27 C2        122.7550  -88.0600  -25.0020 c3        1 1B3      0.121100
     28 C1        124.2700  -88.1400  -24.9790 c3        1 1B3     -0.161100
     29 O6        122.2310  -88.4010  -26.2770 oh        1 1B3     -0.627800
     30 H1        -67.6530   51.7220   17.2830 hn        1 1B3      0.454300
     31 H2        -67.8010   50.0270   17.1390 hn        1 1B3      0.454300
     32 H3        -62.7850   52.4230   20.8690 ha        1 1B3      0.159000
     33 H4        -66.7950   53.4060   18.0260 ha        1 1B3      0.141000
     34 H5        -65.5170   55.2440   19.0260 ha        1 1B3      0.133000
     35 H6        -65.1050   56.1320   21.1880 ha        1 1B3      0.182000
     36 H7        -61.3770   54.1990   20.1350 ha        1 1B3      0.189000
     37 H8        -60.0980   56.0890   21.1610 ha        1 1B3      0.189000
     38 H9        -61.2990   57.9980   22.2060 ha        1 1B3      0.179000
     39 H10       118.8820  -87.9600  -24.4090 hn        1 1B3      0.346500
     40 H11       122.4930  -88.7990  -22.9680 hx        1 1B3      0.139700
     41 H12       122.3420  -90.6390  -25.3160 hn        1 1B3      0.475133
     42 H13       123.4760  -90.6170  -24.0860 hn        1 1B3      0.475133
     43 H15       122.4320  -87.0170  -24.7140 h1        1 1B3      0.093700
     44 H16       124.6380  -89.0680  -25.4800 hc        1 1B3      0.071367
     45 H17       124.6520  -88.1050  -23.9300 hc        1 1B3      0.071367
     46 H18       124.7000  -87.2660  -25.5310 hc        1 1B3      0.071367
     47 H19       122.6750  -87.8500  -26.9390 ho        1 1B3      0.454000
     48 H52       120.3000  -87.3920  -25.1770 hn        1 1B3      0.346500
     49 H73       121.8910  -91.0970  -23.7610 hn        1 1B3      0.475133
@<TRIPOS>BOND
     1    1    2 1   
     2    2    3 ar  
     3    2    4 ar  
     4    3    8 ar  
     5    4    5 ar  
     6    5    6 1   
     7    5    7 ar  
     8    6   30 1   
     9    6   31 1   
    10    7    8 ar  
    11    7   10 ar  
    12    8    9 ar  
    13    9   12 ar  
    14    9   32 1   
    15   10   11 ar  
    16   10   33 1   
    17   11   12 ar  
    18   11   34 1   
    19   12   13 1   
    20   13   14 ar  
    21   13   15 ar  
    22   14   18 ar  
    23   14   35 1   
    24   15   16 ar  
    25   15   36 1   
    26   16   17 ar  
    27   16   37 1   
    28   17   18 ar  
    29   17   38 1   
    30   18   19 1   
    31   19   20 1   
    32   19   21 1   
    33   22   23 1   
    34   22   39 1   
    35   22   48 1   
    36   23   24 2   
    37   23   25 1   
    38   25   26 1   
    39   25   27 1   
    40   25   40 1   
    41   26   41 1   
    42   26   42 1   
    43   26   49 1   
    44   27   28 1   
    45   27   29 1   
    46   27   43 1   
    47   28   44 1   
    48   28   45 1   
    49   28   46 1   
    50   29   47 1   
@<TRIPOS>SUBSTRUCTURE
     1 1B3         1 TEMP              0 ****  ****    0 ROOT
