@<TRIPOS>MOLECULE
1B3
   47    49     1     0     0
SMALL
bcc


@<TRIPOS>ATOM
      1 CL2        -6.8690    1.1350   -2.3460 cl        1 1B3     -0.117000
      2 C25        -5.6600    0.9850   -1.1200 ca        1 1B3      0.777000
      3 N24        -4.5880    0.2340   -1.4110 nb        1 1B3     -0.719000
      4 N26        -5.9360    1.6610    0.0520 nb        1 1B3     -0.781000
      5 C27        -5.0010    1.5750    1.0320 ca        1 1B3      0.724200
      6 N28        -5.1990    2.2870    2.1950 nh        1 1B3     -0.953500
      7 C21        -3.7830    0.7830    0.8490 ca        1 1B3     -0.299600
      8 C22        -3.6360    0.1290   -0.4120 ca        1 1B3      0.452600
      9 C23        -2.4660   -0.6580   -0.6480 ca        1 1B3     -0.175300
     10 C20        -2.7700    0.6410    1.8230 ca        1 1B3     -0.085000
     11 C19        -1.6540   -0.1230    1.5730 ca        1 1B3     -0.131000
     12 C18        -1.4950   -0.7830    0.3270 cp        1 1B3     -0.006000
     13 C16        -0.2990   -1.5910    0.0870 cp        1 1B3     -0.074000
     14 C17         0.9500   -1.1600    0.5480 ca        1 1B3      0.011000
     15 C15        -0.3880   -2.8060   -0.6070 ca        1 1B3     -0.047000
     16 C14         0.7550   -3.5720   -0.8310 ca        1 1B3     -0.161000
     17 C13         1.9910   -3.1340   -0.3660 ca        1 1B3     -0.011000
     18 C12         2.1030   -1.9220    0.3310 ca        1 1B3     -0.397500
     19 S9          3.5840   -1.4330    0.9490 sy        1 1B3      1.509900
     20 O10         3.4120   -0.8900    2.2280 o         1 1B3     -0.638300
     21 O11         4.5080   -2.4960    0.8300 o         1 1B3     -0.638300
     22 N5          4.0980   -0.2860   -0.1320 n         1 1B3     -0.667300
     23 C4          3.5970    0.9930   -0.3580 c         1 1B3      0.655100
     24 O8          2.5730    1.3750    0.2350 o         1 1B3     -0.585100
     25 C3          4.3150    1.8920   -1.3920 c3        1 1B3      0.075500
     26 N7          3.5470    3.0550   -1.7700 n3        1 1B3     -0.887800
     27 C2          5.7280    2.2640   -0.8610 c3        1 1B3      0.153100
     28 C1          6.6030    2.7590   -1.9970 c3        1 1B3     -0.131100
     29 O6          5.6580    3.1960    0.1990 oh        1 1B3     -0.586800
     30 H1         -6.0670    2.7460    2.3420 hn        1 1B3      0.438800
     31 H2         -4.6590    2.0520    2.9890 hn        1 1B3      0.438800
     32 H3         -2.3500   -1.1540   -1.6250 ha        1 1B3      0.158000
     33 H4         -2.8540    1.1440    2.7980 ha        1 1B3      0.131000
     34 H5         -0.8720   -0.2310    2.3400 ha        1 1B3      0.150000
     35 H6          1.0370   -0.1940    1.0850 ha        1 1B3      0.175000
     36 H7         -1.3670   -3.1590   -0.9710 ha        1 1B3      0.146000
     37 H8          0.6780   -4.5270   -1.3720 ha        1 1B3      0.146000
     38 H9          2.8940   -3.7490   -0.5300 ha        1 1B3      0.161000
     39 H10         4.8980   -0.5100   -0.6850 hn        1 1B3      0.333500
     40 H11         4.4620    1.2720   -2.3280 h1        1 1B3      0.080700
     41 H12         2.6580    2.7780   -2.1400 hn        1 1B3      0.367300
     42 H13         3.3920    3.6440   -0.9720 hn        1 1B3      0.367300
     43 H15         6.1960    1.3540   -0.3860 h1        1 1B3      0.073700
     44 H16         6.1480    3.6510   -2.4900 hc        1 1B3      0.053033
     45 H17         7.6060    3.0460   -1.5960 hc        1 1B3      0.053033
     46 H18         6.7350    1.9570   -2.7610 hc        1 1B3      0.053033
     47 H19         5.5320    4.0750   -0.1830 ho        1 1B3      0.410000
@<TRIPOS>BOND
     1    1    2 1   
     2    2    3 ar  
     3    2    4 ar  
     4    3    8 ar  
     5    4    5 ar  
     6    5    6 1   
     7    5    7 ar  
     8    6   30 1   
     9    6   31 1   
    10    7    8 ar  
    11    7   10 ar  
    12    8    9 ar  
    13    9   12 ar  
    14    9   32 1   
    15   10   11 ar  
    16   10   33 1   
    17   11   12 ar  
    18   11   34 1   
    19   12   13 1   
    20   13   14 ar  
    21   13   15 ar  
    22   14   18 ar  
    23   14   35 1   
    24   15   16 ar  
    25   15   36 1   
    26   16   17 ar  
    27   16   37 1   
    28   17   18 ar  
    29   17   38 1   
    30   18   19 1   
    31   19   20 2   
    32   19   21 2   
    33   19   22 1   
    34   22   23 1   
    35   22   39 1   
    36   23   24 2   
    37   23   25 1   
    38   25   26 1   
    39   25   27 1   
    40   25   40 1   
    41   26   41 1   
    42   26   42 1   
    43   27   28 1   
    44   27   29 1   
    45   27   43 1   
    46   28   44 1   
    47   28   45 1   
    48   28   46 1   
    49   29   47 1   
@<TRIPOS>SUBSTRUCTURE
     1 1B3         1 TEMP              0 ****  ****    0 ROOT
