@<TRIPOS>MOLECULE
1B3
   47    41     1     0     0
SMALL
bcc


@<TRIPOS>ATOM
      1 CL2        -4.4470    3.6430   -6.9680 cl        1 1B3      0.056000
      2 C25        -4.3820    2.2850   -5.8760 c2        1 1B3      0.084000
      3 N24        -3.7340    2.3290   -4.6730 n2        1 1B3     -0.184000
      4 N26        -4.8420    1.0910   -6.3650 n1        1 1B3     -0.251000
      5 C27        -4.6570   -0.0420   -5.6630 c1        1 1B3      0.196000
      6 N28        -5.3430   -1.0130   -6.4370 n3        1 1B3     -0.346000
      7 C21        -4.0010   -0.0010   -4.4430 c1        1 1B3     -0.169000
      8 C22        -3.5450    1.1840   -3.9580 c1        1 1B3      0.060000
      9 C23        -2.8570    1.2240   -2.7250 c1        1 1B3     -0.100000
     10 C20        -3.7870   -1.1910   -3.7130 c1        1 1B3     -0.085000
     11 C19        -3.1120   -1.1500   -2.5030 c1        1 1B3     -0.138000
     12 C18        -2.6480    0.0570   -2.0100 c1        1 1B3     -0.014000
     13 C16        -1.9350    0.0520   -0.6740 c2        1 1B3     -0.069000
     14 C17        -0.5490    0.0240   -0.6280 c2        1 1B3     -0.001000
     15 C15        -2.6660    0.1270    0.5020 c1        1 1B3     -0.051000
     16 C14        -2.0110    0.1740    1.7230 c1        1 1B3     -0.084500
     17 C13        -0.6260    0.1460    1.7690 c1        1 1B3     -0.084500
     18 C12         0.1050    0.0710    0.5940 c1        1 1B3     -0.837000
     19 S9          1.8780    0.1160    0.6480 s4        1 1B3      2.073800
     20 O10         2.4520   -0.5980   -0.4590 o         1 1B3     -0.521400
     21 O11         2.3730    1.4430    0.4110 o         1 1B3     -0.521400
     22 N5          2.4180   -0.4750    2.0830 n2        1 1B3     -0.842000
     23 C4          3.8120   -0.6000    2.3190 c1        1 1B3      0.336000
     24 O8          4.5950   -0.5120    1.3950 o         1 1B3     -0.346000
     25 C3          4.3200   -0.8910    3.7140 c2        1 1B3     -0.087000
     26 N7          5.5000   -1.6810    3.6340 n3        1 1B3     -0.332000
     27 C2          4.6310    0.4090    4.4180 c3        1 1B3      0.007000
     28 C1          4.4300    0.2380    5.9070 c3        1 1B3     -0.217000
     29 O6          5.9680    0.7720    4.1640 oh        1 1B3     -0.333000
     30 H1         -5.4610   -0.8820   -7.3350 hn        1 1B3      0.229500
     31 H2         -5.6720   -1.7670   -6.0380 hn        1 1B3      0.229500
     32 H3         -2.5300    2.0750   -2.3770 ha        1 1B3      0.168000
     33 H4         -4.1140   -2.0420   -4.0610 ha        1 1B3      0.130000
     34 H5         -2.9650   -1.9730   -1.9990 ha        1 1B3      0.139000
     35 H6         -0.0350   -0.0290   -1.4560 ha        1 1B3      0.163000
     36 H7         -3.6410    0.1470    0.4690 ha        1 1B3      0.143000
     37 H8         -2.5260    0.2270    2.5510 ha        1 1B3      0.154000
     38 H9         -0.1650    0.1790    2.6290 ha        1 1B3      0.154000
     39 H10         1.8220   -0.7480    2.7180 hn        1 1B3      0.260000
     40 H11         3.6360   -1.3770    4.2150 h4        1 1B3      0.120000
     41 H12         5.3850   -2.3390    3.0070 hn        1 1B3      0.161000
     42 H13         5.6670   -2.0630    4.4500 hn        1 1B3      0.161000
     43 H15         4.0350    1.1100    4.0870 h1        1 1B3      0.102000
     44 H16         3.7030   -0.4000    6.0670 hc        1 1B3      0.087333
     45 H17         4.2000    1.1020    6.3080 hc        1 1B3      0.087333
     46 H18         5.2560   -0.1010    6.3120 hc        1 1B3      0.087333
     47 H19         6.0620    1.6500    4.2700 ho        1 1B3      0.228000
@<TRIPOS>BOND
     1    1    2 1   
     2    2    3 1   
     3    2    4 1   
     4    3    8 1   
     5    5    6 1   
     6    5    7 1   
     7    6   30 1   
     8    6   31 1   
     9    7   10 1   
    10    8    9 1   
    11    9   32 1   
    12   10   33 1   
    13   11   12 1   
    14   11   34 1   
    15   12   13 1   
    16   13   14 1   
    17   13   15 1   
    18   14   18 1   
    19   14   35 1   
    20   15   36 1   
    21   16   17 1   
    22   16   37 1   
    23   17   38 1   
    24   18   19 1   
    25   19   20 1   
    26   19   21 1   
    27   22   23 1   
    28   22   39 1   
    29   23   24 1   
    30   25   26 1   
    31   25   27 1   
    32   25   40 1   
    33   26   41 1   
    34   26   42 1   
    35   27   28 1   
    36   27   29 1   
    37   27   43 1   
    38   28   44 1   
    39   28   45 1   
    40   28   46 1   
    41   29   47 1   
@<TRIPOS>SUBSTRUCTURE
     1 1B3         1 TEMP              0 ****  ****    0 ROOT
