@<TRIPOS>MOLECULE
1B3
   49    50     1     0     0
SMALL
bcc


@<TRIPOS>ATOM
      1 Cl2      -623.1230  444.6930   92.4880 cl        1 1B3     -0.078000
      2 C25      -624.3300  444.0180   93.5120 ca        1 1B3      0.796000
      3 N24      -625.5930  444.4590   93.3410 nb        1 1B3     -0.734000
      4 N26      -623.8800  443.0820   94.4160 nb        1 1B3     -0.770000
      5 C27      -624.8090  442.5290   95.2430 ca        1 1B3      0.743200
      6 N28      -624.3950  441.6000   96.1570 nv        1 1B3     -0.952500
      7 C21      -626.2200  442.9240   95.1610 ca        1 1B3     -0.303600
      8 C22      -626.5400  443.9040   94.1720 ca        1 1B3      0.465600
      9 C23      -627.9030  444.3260   94.0430 ca        1 1B3     -0.157300
     10 C20      -627.2440  442.4040   95.9810 ca        1 1B3     -0.056000
     11 C19      -628.5470  442.8260   95.8380 ca        1 1B3     -0.154000
     12 C18      -628.8800  443.7960   94.8600 cp        1 1B3     -0.060000
     13 C16      -630.2700  444.2320   94.7200 cp        1 1B3     -0.032000
     14 C17      -630.5700  445.5750   94.5210 ca        1 1B3      0.035000
     15 C15      -631.3210  443.2960   94.7780 ca        1 1B3      0.051000
     16 C14      -632.6490  443.7160   94.6340 ca        1 1B3     -0.149000
     17 C13      -632.9430  445.0500   94.4340 ca        1 1B3      0.035000
     18 C12      -631.9110  446.0320   94.3700 ca        1 1B3     -0.640500
     19 S9       -632.2300  447.5200   94.1490 s4        1 1B3      1.660300
     20 O10      -631.2110  448.4040   94.0980 o         1 1B3     -0.390900
     21 O11      -633.5220  447.8890   94.0160 o         1 1B3     -0.390900
     22 N5       1011.5340 -704.2980 -141.0090 nt        1 1B3     -0.608000
     23 C4       1012.7780 -703.8030 -141.1940 c         1 1B3      0.649100
     24 O8       1013.3320 -703.0070 -140.4070 o         1 1B3     -0.596100
     25 C3       1013.5910 -704.1810 -142.4660 c3        1 1B3      0.035500
     26 N7       1014.9890 -704.5010 -142.0250 nz        1 1B3     -0.831600
     27 C2       1013.0000 -705.3150 -143.3270 c3        1 1B3      0.121100
     28 C1       1013.8250 -705.5710 -144.5740 c3        1 1B3     -0.161100
     29 O6       1012.9540 -706.4560 -142.4830 oh        1 1B3     -0.627800
     30 H1       -623.4400  441.3300   96.2070 hn        1 1B3      0.455300
     31 H2       -625.0490  441.1660   96.7570 hn        1 1B3      0.455300
     32 H3       -628.1490  445.0700   93.2670 ha        1 1B3      0.153000
     33 H4       -627.0200  441.6520   96.7540 ha        1 1B3      0.142000
     34 H5       -629.3340  442.4200   96.4910 ha        1 1B3      0.139000
     35 H6       -629.7430  446.3130   94.4780 ha        1 1B3      0.185000
     36 H7       -631.0910  442.2250   94.9310 ha        1 1B3      0.185000
     37 H8       -633.4660  442.9720   94.6770 ha        1 1B3      0.188000
     38 H9       -633.9970  445.3720   94.3190 ha        1 1B3      0.179000
     39 H10      1011.1870 -705.0530 -141.5510 hn        1 1B3      0.346500
     40 H11      1013.6340 -703.2410 -143.1000 hx        1 1B3      0.139700
     41 H12      1015.6270 -704.4540 -142.8220 hn        1 1B3      0.475133
     42 H13      1015.0050 -705.4500 -141.6300 hn        1 1B3      0.475133
     43 H15      1011.9540 -705.0100 -143.6270 h1        1 1B3      0.093700
     44 H16      1014.7790 -706.0970 -144.3310 hc        1 1B3      0.071367
     45 H17      1013.2490 -706.2250 -145.2760 hc        1 1B3      0.071367
     46 H18      1014.0500 -704.6140 -145.1030 hc        1 1B3      0.071367
     47 H19      1012.6580 -707.2080 -143.0160 ho        1 1B3      0.454000
     48 H52      1011.0210 -704.0130 -140.2040 hn        1 1B3      0.346500
     49 H73      1015.2730 -703.8220 -141.2980 hn        1 1B3      0.475133
@<TRIPOS>BOND
     1    1    2 1   
     2    2    3 ar  
     3    2    4 ar  
     4    3    8 ar  
     5    4    5 ar  
     6    5    6 1   
     7    5    7 ar  
     8    6   30 1   
     9    6   31 1   
    10    7    8 ar  
    11    7   10 ar  
    12    8    9 ar  
    13    9   12 ar  
    14    9   32 1   
    15   10   11 ar  
    16   10   33 1   
    17   11   12 ar  
    18   11   34 1   
    19   12   13 1   
    20   13   14 ar  
    21   13   15 ar  
    22   14   18 ar  
    23   14   35 1   
    24   15   16 ar  
    25   15   36 1   
    26   16   17 ar  
    27   16   37 1   
    28   17   18 ar  
    29   17   38 1   
    30   18   19 1   
    31   19   20 1   
    32   19   21 1   
    33   22   23 1   
    34   22   39 1   
    35   22   48 1   
    36   23   24 2   
    37   23   25 1   
    38   25   26 1   
    39   25   27 1   
    40   25   40 1   
    41   26   41 1   
    42   26   42 1   
    43   26   49 1   
    44   27   28 1   
    45   27   29 1   
    46   27   43 1   
    47   28   44 1   
    48   28   45 1   
    49   28   46 1   
    50   29   47 1   
@<TRIPOS>SUBSTRUCTURE
     1 1B3         1 TEMP              0 ****  ****    0 ROOT
