@<TRIPOS>MOLECULE
1B3
   50    51     1     0     0
SMALL
bcc


@<TRIPOS>ATOM
      1 CL2     -1195.4570  533.2160 -174.1770 cl        1 1B3      0.022000
      2 C25     -1195.9340  531.8600 -173.2680 ca        1 1B3      0.753000
      3 N24     -1195.2010  531.4990 -172.1990 nb        1 1B3     -0.614000
      4 N26     -1197.0860  531.2040 -173.7130 nb        1 1B3     -0.644000
      5 C27     -1197.4730  530.1390 -173.0140 ca        1 1B3      0.536200
      6 N28     -1198.6950  529.4440 -173.4850 n4        1 1B3     -0.833300
      7 C21     -1196.7810  529.6420 -171.8510 ca        1 1B3     -0.250600
      8 C22     -1195.6140  530.3980 -171.4860 ca        1 1B3      0.450600
      9 C23     -1194.8620  529.9850 -170.3360 ca        1 1B3     -0.129300
     10 C20     -1197.1510  528.5150 -171.0800 ca        1 1B3     -0.117000
     11 C19     -1196.4090  528.1460 -169.9850 ca        1 1B3     -0.074000
     12 C18     -1195.2530  528.8850 -169.6030 cp        1 1B3     -0.026000
     13 C16     -1194.4920  528.4690 -168.4210 cp        1 1B3     -0.073000
     14 C17     -1193.1030  528.4210 -168.4520 ca        1 1B3      0.045000
     15 C15     -1195.1660  528.1230 -167.2320 ca        1 1B3      0.048000
     16 C14     -1194.4450  527.7360 -166.1000 ca        1 1B3     -0.142000
     17 C13     -1193.0600  527.6870 -166.1360 ca        1 1B3      0.057000
     18 C12     -1192.3420  528.0280 -167.3160 ca        1 1B3     -0.622500
     19 S9      -1190.7900  527.9730 -167.3580 s4        1 1B3      1.659300
     20 O10     -1190.1880  528.3210 -168.5120 o         1 1B3     -0.373400
     21 O11     -1190.1390  527.5840 -166.2460 o         1 1B3     -0.373400
     22 N5       1971.4030 -865.0370  282.5850 n         1 1B3     -0.608000
     23 C4       1971.8080 -865.2660  283.8540 c         1 1B3      0.649100
     24 O8       1972.3170 -864.3930  284.5890 o         1 1B3     -0.596100
     25 C3       1971.6960 -866.6920  284.4680 c3        1 1B3      0.035500
     26 N7       1971.1400 -866.5410  285.8530 n4        1 1B3     -0.831600
     27 C2       1970.8860 -867.7140  283.6440 c3        1 1B3      0.121100
     28 C1       1970.8830 -869.0870  284.2880 c3        1 1B3     -0.161100
     29 O6       1969.5740 -867.1770  283.5470 oh        1 1B3     -0.627800
     30 H1      -1199.3970  529.4610 -172.7340 hn        1 1B3      0.484467
     31 H2      -1198.4570  528.4720 -173.7170 hn        1 1B3      0.484467
     32 H3      -1193.9750  530.5800 -170.0510 ha        1 1B3      0.182000
     33 H4      -1198.0380  527.9190 -171.3480 ha        1 1B3      0.142000
     34 H5      -1196.7010  527.2610 -169.3920 ha        1 1B3      0.168000
     35 H6      -1192.5680  528.6920 -169.3840 ha        1 1B3      0.180000
     36 H7      -1196.2710  528.1650 -167.1920 ha        1 1B3      0.181000
     37 H8      -1194.9810  527.4710 -165.1690 ha        1 1B3      0.201000
     38 H9      -1192.5000  527.3780 -165.2290 ha        1 1B3      0.193000
     39 H10      1971.5180 -864.1230  282.2050 hn        1 1B3      0.346500
     40 H11      1972.7600 -867.0770  284.5600 hx        1 1B3      0.139700
     41 H12      1971.3300 -867.3840  286.4000 hn        1 1B3      0.475133
     42 H13      1970.1240 -866.3970  285.7910 hn        1 1B3      0.475133
     43 H15      1971.3560 -867.7810  282.6200 h1        1 1B3      0.093700
     44 H16      1971.9190 -869.3930  284.5730 hc        1 1B3      0.071367
     45 H17      1970.4910 -869.8410  283.5590 hc        1 1B3      0.071367
     46 H18      1970.2230 -869.1150  285.1880 hc        1 1B3      0.071367
     47 H19      1969.0180 -867.8300  283.1000 ho        1 1B3      0.454000
     48 H283    -1199.0850  529.9060 -174.3230 hn        1 1B3      0.484467
     49 H52      1970.8510 -865.6930  282.0870 hn        1 1B3      0.346500
     50 H73      1971.5780 -865.7180  286.2990 hn        1 1B3      0.475133
@<TRIPOS>BOND
     1    1    2 1   
     2    2    3 ar  
     3    2    4 ar  
     4    3    8 ar  
     5    4    5 ar  
     6    5    6 1   
     7    5    7 ar  
     8    6   30 1   
     9    6   31 1   
    10    6   48 1   
    11    7    8 ar  
    12    7   10 ar  
    13    8    9 ar  
    14    9   12 ar  
    15    9   32 1   
    16   10   11 ar  
    17   10   33 1   
    18   11   12 ar  
    19   11   34 1   
    20   12   13 1   
    21   13   14 ar  
    22   13   15 ar  
    23   14   18 ar  
    24   14   35 1   
    25   15   16 ar  
    26   15   36 1   
    27   16   17 ar  
    28   16   37 1   
    29   17   18 ar  
    30   17   38 1   
    31   18   19 1   
    32   19   20 1   
    33   19   21 1   
    34   22   23 1   
    35   22   39 1   
    36   22   49 1   
    37   23   24 2   
    38   23   25 1   
    39   25   26 1   
    40   25   27 1   
    41   25   40 1   
    42   26   41 1   
    43   26   42 1   
    44   26   50 1   
    45   27   28 1   
    46   27   29 1   
    47   27   43 1   
    48   28   44 1   
    49   28   45 1   
    50   28   46 1   
    51   29   47 1   
@<TRIPOS>SUBSTRUCTURE
     1 1B3         1 TEMP              0 ****  ****    0 ROOT
