@<TRIPOS>MOLECULE
1B4
   49    38     1     0     0
SMALL
bcc


@<TRIPOS>ATOM
      1 C1          1.5730   -0.5330    1.1580 c1        1 1B4     -0.001000
      2 N2          1.4270    1.6480   -1.7700 n1        1 1B4     -0.087500
      3 C3          1.7980    0.7360   -0.8090 c1        1 1B4     -0.097000
      4 C4          0.8280    0.1060   -0.0390 c1        1 1B4     -0.028000
      5 N5         -0.4870    0.3910   -0.2380 n1        1 1B4     -0.087500
      6 C6          0.1030    1.9330   -1.9670 c1        1 1B4     -0.030500
      7 C7         -0.8570    1.3060   -1.2010 c1        1 1B4     -0.030500
      8 C8         -2.1030    1.8040   -1.5810 c1        1 1B4     -0.188000
      9 C9         -1.9010    2.7420   -2.5880 c1        1 1B4      0.018000
     10 N10        -0.5420    2.8240   -2.8270 n1        1 1B4     -0.187000
     11 C11         1.7370   -1.9180    1.0910 c2        1 1B4     -0.127000
     12 C12         2.6470   -2.5660    1.9650 c1        1 1B4      0.070000
     13 C13         3.3840   -1.8130    2.8980 c1        1 1B4      0.011000
     14 C14         3.2170   -0.4100    2.9630 c1        1 1B4      0.067000
     15 C15         2.3230    0.2280    2.1050 c2        1 1B4     -0.195000
     16 O16         2.7760   -3.9940    1.9370 os        1 1B4     -0.220000
     17 C17         3.6260   -4.4730    0.8930 c3        1 1B4     -0.075000
     18 O18         4.4020   -2.4410    3.6740 o         1 1B4     -0.208500
     19 C19         3.9600   -2.8750    4.9640 c3        1 1B4     -0.075500
     20 O20         3.8850    0.3250    3.9400 o         1 1B4     -0.208500
     21 C21         4.9780    1.0940    3.4400 c3        1 1B4     -0.075500
     22 C22        -3.6020    1.5530   -1.4930 c1        1 1B4      0.382000
     23 N23        -4.3460    1.1510   -2.6840 n2        1 1B4     -0.365000
     24 O24        -4.1500    1.6220   -0.4490 o         1 1B4     -0.403000
     25 C25        -5.7000    1.6520   -2.8940 c3        1 1B4      0.021000
     26 C26        -6.7360    0.5600   -2.4750 c3        1 1B4     -0.228000
     27 C27        -5.9000    2.0010   -4.3450 c3        1 1B4     -0.228000
     28 H1          2.7230    0.5430   -0.6650 ha        1 1B4      0.176000
     29 H2         -2.6270    3.3290   -3.0210 DU        1 1B4      0.235000
     30 H3         -0.1270    3.3770   -3.4510 DU        1 1B4      0.235000
     31 H4          1.2020   -2.4670    0.4070 ha        1 1B4      0.164000
     32 H5          2.2090    1.2120    2.1530 ha        1 1B4      0.144000
     33 H6          4.3210   -3.8180    0.7180 h1        1 1B4      0.087000
     34 H7          4.0400   -5.3300    1.1700 h1        1 1B4      0.087000
     35 H8          3.1100   -4.6110    0.0970 h1        1 1B4      0.087000
     36 H9          4.1640   -3.8770    5.0800 h1        1 1B4      0.085833
     37 H10         2.9660   -2.7230    5.0490 h1        1 1B4      0.085833
     38 H11         4.4440   -2.3500    5.6770 h1        1 1B4      0.085833
     39 H12         4.6320    1.8010    2.8150 h1        1 1B4      0.085833
     40 H13         5.6150    0.4940    2.9460 h1        1 1B4      0.085833
     41 H14         5.4410    1.5170    4.1810 h1        1 1B4      0.085833
     42 H15        -3.9490    0.5880   -3.3160 hn        1 1B4      0.245000
     43 H16        -5.8370    2.4720   -2.3350 h1        1 1B4      0.127000
     44 H17        -6.6730    0.4040   -1.5160 hc        1 1B4      0.079833
     45 H18        -7.6380    0.8690   -2.6970 hc        1 1B4      0.079833
     46 H19        -6.5410   -0.3060   -2.9740 hc        1 1B4      0.079833
     47 H20        -6.7700    2.4090   -4.4590 hc        1 1B4      0.079833
     48 H21        -5.8480    1.1780   -4.8970 hc        1 1B4      0.079833
     49 H22        -5.1980    2.6370   -4.6300 hc        1 1B4      0.079833
@<TRIPOS>BOND
     1    1   11 1   
     2    1   15 1   
     3    2    6 1   
     4    3    4 1   
     5    3   28 1   
     6    5    7 1   
     7    8    9 1   
     8    9   10 1   
     9   11   12 1   
    10   11   31 1   
    11   12   16 1   
    12   13   14 1   
    13   14   15 1   
    14   15   32 1   
    15   16   17 1   
    16   17   33 1   
    17   17   34 1   
    18   17   35 1   
    19   18   19 1   
    20   19   36 1   
    21   19   37 1   
    22   19   38 1   
    23   20   21 1   
    24   21   39 1   
    25   21   40 1   
    26   21   41 1   
    27   22   24 1   
    28   23   25 1   
    29   23   42 1   
    30   25   26 1   
    31   25   27 1   
    32   25   43 1   
    33   26   44 1   
    34   26   45 1   
    35   26   46 1   
    36   27   47 1   
    37   27   48 1   
    38   27   49 1   
@<TRIPOS>SUBSTRUCTURE
     1 1B4         1 TEMP              0 ****  ****    0 ROOT
