@<TRIPOS>MOLECULE
1B4
   50    52     1     0     0
SMALL
bcc


@<TRIPOS>ATOM
      1 C1         -0.0720   -0.1600    0.1560 cp        1 1B4     -0.126500
      2 N2         -1.0890   -1.4500   -3.2230 nb        1 1B4     -0.592000
      3 C3         -0.4040   -1.1390   -2.1230 ca        1 1B4      0.322900
      4 C4         -0.9650   -0.4420   -0.9770 cp        1 1B4      0.402500
      5 N5         -2.2570   -0.0610   -0.9360 nb        1 1B4     -0.596000
      6 C6         -2.4010   -1.0580   -3.1860 ca        1 1B4      0.286500
      7 C7         -2.9820   -0.3740   -2.0370 ca        1 1B4      0.361800
      8 C8         -4.3720   -0.1310   -2.3840 cc        1 1B4     -0.400000
      9 C9         -4.5690   -0.6610   -3.6810 cd        1 1B4     -0.012100
     10 N10        -3.4080   -1.2110   -4.1600 na        1 1B4     -0.213100
     11 C11         1.2400    0.2570   -0.1030 ca        1 1B4     -0.194000
     12 C12         2.1050    0.5140    0.9660 ca        1 1B4      0.134100
     13 C13         1.6750    0.3300    2.3010 ca        1 1B4      0.080100
     14 C14         0.3420   -0.0710    2.5370 ca        1 1B4      0.134100
     15 C15        -0.5310   -0.3110    1.4670 ca        1 1B4     -0.194000
     16 O16         3.3990    0.9620    0.8280 os        1 1B4     -0.303400
     17 C17         3.9260    0.9780   -0.4960 c3        1 1B4      0.108700
     18 O18         2.6030    0.4320    3.3140 os        1 1B4     -0.305900
     19 C19         2.3860    1.5260    4.2090 c3        1 1B4      0.113700
     20 O20        -0.0170   -0.1800    3.8630 os        1 1B4     -0.303400
     21 C21        -1.2960   -0.7480    4.1300 c3        1 1B4      0.108700
     22 C22        -5.3060    0.4880   -1.4950 c         1 1B4      0.618300
     23 N23        -6.4080    1.3080   -2.1770 n4        1 1B4     -0.692800
     24 O24        -5.3490    0.5070   -0.2750 o         1 1B4     -0.411100
     25 C25        -7.7820    0.7330   -1.9340 c3        1 1B4      0.128500
     26 C26        -8.8630    1.7720   -2.2020 c3        1 1B4     -0.133100
     27 C27        -8.0240   -0.5090   -2.7790 c3        1 1B4     -0.133100
     28 H2         -5.4930   -0.6970   -4.2710 h4        1 1B4      0.182000
     29 H3         -3.2860   -1.6730   -5.0320 hn        1 1B4      0.342700
     30 H4          1.5810    0.4010   -1.1370 ha        1 1B4      0.148000
     31 H5         -1.5680   -0.6250    1.6560 ha        1 1B4      0.148000
     32 H6          3.3880    1.7300   -1.1220 h1        1 1B4      0.050033
     33 H7          4.9930    1.2860   -0.3400 h1        1 1B4      0.050033
     34 H8          3.8720   -0.0360   -0.9600 h1        1 1B4      0.050033
     35 H9          3.2270    1.4270    4.9410 h1        1 1B4      0.049033
     36 H10         1.3970    1.4230    4.7190 h1        1 1B4      0.049033
     37 H11         2.4490    2.4940    3.6580 h1        1 1B4      0.049033
     38 H12        -1.3840   -1.7630    3.6730 h1        1 1B4      0.050033
     39 H13        -2.1070   -0.0750    3.7600 h1        1 1B4      0.050033
     40 H14        -1.3160   -0.8140    5.2480 h1        1 1B4      0.050033
     41 H15        -6.2310    1.3660   -3.1810 hn        1 1B4      0.449800
     42 H16        -7.8050    0.4500   -0.8350 hx        1 1B4      0.122700
     43 H17        -8.7310    2.6780   -1.5610 hc        1 1B4      0.075367
     44 H18        -8.8780    2.0810   -3.2760 hc        1 1B4      0.075367
     45 H19        -9.8550    1.3170   -1.9560 hc        1 1B4      0.075367
     46 H20        -9.0150   -0.9420   -2.4900 hc        1 1B4      0.075367
     47 H21        -7.2400   -1.2860   -2.5990 hc        1 1B4      0.075367
     48 H22        -8.0550   -0.2630   -3.8680 hc        1 1B4      0.075367
     49 H232       -6.3860    2.2570   -1.7840 hn        1 1B4      0.449800
     50 H1          0.6580   -1.4540   -2.1050 h4        1 1B4      0.065100
@<TRIPOS>BOND
     1    1    4 1   
     2    1   11 ar  
     3    1   15 ar  
     4    2    3 ar  
     5    2    6 ar  
     6    3    4 ar  
     7    3   50 1   
     8    4    5 ar  
     9    5    7 ar  
    10    6    7 ar  
    11    6   10 1   
    12    7    8 1   
    13    8    9 2   
    14    8   22 1   
    15    9   10 1   
    16    9   28 1   
    17   10   29 1   
    18   11   12 ar  
    19   11   30 1   
    20   12   13 ar  
    21   12   16 1   
    22   13   14 ar  
    23   13   18 1   
    24   14   15 ar  
    25   14   20 1   
    26   15   31 1   
    27   16   17 1   
    28   17   32 1   
    29   17   33 1   
    30   17   34 1   
    31   18   19 1   
    32   19   35 1   
    33   19   36 1   
    34   19   37 1   
    35   20   21 1   
    36   21   38 1   
    37   21   39 1   
    38   21   40 1   
    39   22   23 1   
    40   22   24 2   
    41   23   25 1   
    42   23   41 1   
    43   23   49 1   
    44   25   26 1   
    45   25   27 1   
    46   25   42 1   
    47   26   43 1   
    48   26   44 1   
    49   26   45 1   
    50   27   46 1   
    51   27   47 1   
    52   27   48 1   
@<TRIPOS>SUBSTRUCTURE
     1 1B4         1 TEMP              0 ****  ****    0 ROOT
