@<TRIPOS>MOLECULE
1B4
   49    51     1     0     0
SMALL
bcc


@<TRIPOS>ATOM
      1 C1          1.1590    0.6090   -0.3980 cp        1 1B4     -0.086500
      2 N2         -0.7600    3.8320   -0.5660 nb        1 1B4     -0.624000
      3 C3          0.2070    2.9090   -0.5880 ca        1 1B4      0.304900
      4 C4         -0.0070    1.5060   -0.3360 cp        1 1B4      0.341500
      5 N5         -1.2280    1.0030   -0.0540 nb        1 1B4     -0.606000
      6 C6         -1.9970    3.3320   -0.2780 ca        1 1B4      0.301500
      7 C7         -2.2360    1.9010   -0.0180 ca        1 1B4      0.335800
      8 C8         -3.6570    1.7800    0.2420 cc        1 1B4     -0.319000
      9 C9         -4.2030    3.0670    0.1340 cd        1 1B4     -0.008100
     10 N10        -3.2250    4.0010   -0.1730 na        1 1B4     -0.273100
     11 C11         2.3560    1.0090    0.2070 ca        1 1B4     -0.204000
     12 C12         3.4770    0.1740    0.1420 ca        1 1B4      0.134100
     13 C13         3.4170   -1.0560   -0.5510 ca        1 1B4      0.052100
     14 C14         2.1940   -1.4470   -1.1370 ca        1 1B4      0.134100
     15 C15         1.0680   -0.6170   -1.0600 ca        1 1B4     -0.204000
     16 O16         4.6920    0.4580    0.7280 os        1 1B4     -0.310900
     17 C17         4.8200    1.7490    1.3160 c3        1 1B4      0.110700
     18 O18         4.5760   -1.7840   -0.7300 os        1 1B4     -0.309900
     19 C19         4.6140   -3.0020    0.0160 c3        1 1B4      0.115700
     20 O20         2.2020   -2.6830   -1.7500 os        1 1B4     -0.310900
     21 C21         1.0210   -3.0410   -2.4610 c3        1 1B4      0.110700
     22 C22        -4.4750    0.6020    0.5610 c         1 1B4      0.708300
     23 N23        -3.8460   -0.6090    0.7230 n         1 1B4     -0.557900
     24 O24        -5.7190    0.7180    0.6790 o         1 1B4     -0.641100
     25 C25        -4.5680   -1.8190    1.0560 c3        1 1B4      0.097700
     26 C26        -4.3930   -2.9080   -0.0060 c3        1 1B4     -0.109600
     27 C27        -4.1500   -2.3900    2.4140 c3        1 1B4     -0.109600
     28 H2         -5.2530    3.3540    0.2640 h4        1 1B4      0.200000
     29 H3         -3.3560    4.9710   -0.3040 hn        1 1B4      0.319700
     30 H4          2.4030    1.9670    0.7440 ha        1 1B4      0.149000
     31 H5          0.1160   -0.9220   -1.5180 ha        1 1B4      0.149000
     32 H6          5.8850    1.7690    1.6590 h1        1 1B4      0.047033
     33 H7          4.6340    2.5500    0.5610 h1        1 1B4      0.047033
     34 H8          4.1240    1.8560    2.1830 h1        1 1B4      0.047033
     35 H9          4.5720   -2.7880    1.1110 h1        1 1B4      0.043033
     36 H10         3.7720   -3.6700   -0.2870 h1        1 1B4      0.043033
     37 H11         5.6000   -3.4490   -0.2640 h1        1 1B4      0.043033
     38 H12         0.7890   -2.2860   -3.2510 h1        1 1B4      0.047033
     39 H13         1.2880   -4.0260   -2.9210 h1        1 1B4      0.047033
     40 H14         0.1600   -3.1540   -1.7580 h1        1 1B4      0.047033
     41 H15        -2.8610   -0.6800    0.6490 hn        1 1B4      0.329500
     42 H16        -5.6690   -1.5560    1.1100 h1        1 1B4      0.088700
     43 H17        -3.3250   -3.2240   -0.0850 hc        1 1B4      0.040033
     44 H18        -5.0060   -3.7950    0.2810 hc        1 1B4      0.040033
     45 H19        -4.7340   -2.5470   -1.0050 hc        1 1B4      0.040033
     46 H20        -4.7670   -3.2950    2.6310 hc        1 1B4      0.040033
     47 H21        -3.0740   -2.6850    2.4120 hc        1 1B4      0.040033
     48 H22        -4.3150   -1.6430    3.2270 hc        1 1B4      0.040033
     49 H1          1.2210    3.2760   -0.8270 h4        1 1B4      0.041100
@<TRIPOS>BOND
     1    1    4 1   
     2    1   11 ar  
     3    1   15 ar  
     4    2    3 ar  
     5    2    6 ar  
     6    3    4 ar  
     7    3   49 1   
     8    4    5 ar  
     9    5    7 ar  
    10    6    7 ar  
    11    6   10 1   
    12    7    8 1   
    13    8    9 2   
    14    8   22 1   
    15    9   10 1   
    16    9   28 1   
    17   10   29 1   
    18   11   12 ar  
    19   11   30 1   
    20   12   13 ar  
    21   12   16 1   
    22   13   14 ar  
    23   13   18 1   
    24   14   15 ar  
    25   14   20 1   
    26   15   31 1   
    27   16   17 1   
    28   17   32 1   
    29   17   33 1   
    30   17   34 1   
    31   18   19 1   
    32   19   35 1   
    33   19   36 1   
    34   19   37 1   
    35   20   21 1   
    36   21   38 1   
    37   21   39 1   
    38   21   40 1   
    39   22   23 1   
    40   22   24 2   
    41   23   25 1   
    42   23   41 1   
    43   25   26 1   
    44   25   27 1   
    45   25   42 1   
    46   26   43 1   
    47   26   44 1   
    48   26   45 1   
    49   27   46 1   
    50   27   47 1   
    51   27   48 1   
@<TRIPOS>SUBSTRUCTURE
     1 1B4         1 TEMP              0 ****  ****    0 ROOT
