@<TRIPOS>MOLECULE
1B4
   50    52     1     0     0
SMALL
bcc


@<TRIPOS>ATOM
      1 C1         -0.0720   -0.1530    0.1620 cp        1 1B4     -0.126500
      2 N2         -1.0850   -1.4770   -3.2050 nb        1 1B4     -0.592000
      3 C3         -0.4010   -1.1550   -2.1080 ca        1 1B4      0.322900
      4 C4         -0.9630   -0.4470   -0.9690 cp        1 1B4      0.402500
      5 N5         -2.2570   -0.0660   -0.9340 nb        1 1B4     -0.596000
      6 C6         -2.3970   -1.0860   -3.1730 ca        1 1B4      0.286500
      7 C7         -2.9800   -0.3910   -2.0320 ca        1 1B4      0.361800
      8 C8         -4.3700   -0.1520   -2.3830 cc        1 1B4     -0.400000
      9 C9         -4.5650   -0.6950   -3.6750 cd        1 1B4     -0.012100
     10 N10        -3.4030   -1.2500   -4.1470 na        1 1B4     -0.213100
     11 C11         1.2400    0.2620   -0.0990 ca        1 1B4     -0.194000
     12 C12         2.1040    0.5300    0.9680 ca        1 1B4      0.134100
     13 C13         1.6720    0.3580    2.3040 ca        1 1B4      0.080100
     14 C14         0.3390   -0.0400    2.5420 ca        1 1B4      0.134100
     15 C15        -0.5330   -0.2910    1.4740 ca        1 1B4     -0.194000
     16 O16         3.3980    0.9760    0.8260 os        1 1B4     -0.303400
     17 C17         3.9270    0.9790   -0.4960 c3        1 1B4      0.108700
     18 O18         2.5990    0.4710    3.3170 os        1 1B4     -0.305900
     19 C19         2.3800    1.5750    4.2010 c3        1 1B4      0.113700
     20 O20        -0.0220   -0.1350    3.8690 os        1 1B4     -0.303400
     21 C21        -1.3010   -0.7010    4.1400 c3        1 1B4      0.108700
     22 C22        -5.3040    0.4750   -1.5010 c         1 1B4      0.618300
     23 N23        -6.4080    1.2860   -2.1920 n4        1 1B4     -0.692800
     24 O24        -5.3480    0.5070   -0.2810 o         1 1B4     -0.411100
     25 C25        -7.7810    0.7110   -1.9450 c3        1 1B4      0.128500
     26 C26        -8.8630    1.7460   -2.2250 c3        1 1B4     -0.133100
     27 C27        -8.0200   -0.5400   -2.7770 c3        1 1B4     -0.133100
     28 H2         -5.4880   -0.7370   -4.2660 h4        1 1B4      0.182000
     29 H3         -3.2800   -1.7200   -5.0140 hn        1 1B4      0.342700
     30 H4          1.5820    0.3950   -1.1350 ha        1 1B4      0.148000
     31 H5         -1.5700   -0.6030    1.6650 ha        1 1B4      0.148000
     32 H6          3.3890    1.7240   -1.1320 h1        1 1B4      0.050033
     33 H7          3.8730   -0.0400   -0.9500 h1        1 1B4      0.050033
     34 H8          4.9930    1.2880   -0.3420 h1        1 1B4      0.050033
     35 H9          2.4440    2.5370    3.6400 h1        1 1B4      0.049033
     36 H10         1.3910    1.4770    4.7100 h1        1 1B4      0.049033
     37 H11         3.2200    1.4830    4.9340 h1        1 1B4      0.049033
     38 H12        -2.1120   -0.0320    3.7620 h1        1 1B4      0.050033
     39 H13        -1.3220   -0.7550    5.2590 h1        1 1B4      0.050033
     40 H14        -1.3880   -1.7200    3.6930 h1        1 1B4      0.050033
     41 H15        -6.2300    1.3350   -3.1970 hn        1 1B4      0.449800
     42 H16        -7.8040    0.4400   -0.8430 hx        1 1B4      0.122700
     43 H17        -8.7340    2.6580   -1.5920 hc        1 1B4      0.075367
     44 H18        -8.8780    2.0440   -3.3010 hc        1 1B4      0.075367
     45 H19        -9.8550    1.2910   -1.9740 hc        1 1B4      0.075367
     46 H20        -9.0100   -0.9720   -2.4850 hc        1 1B4      0.075367
     47 H21        -7.2350   -1.3130   -2.5880 hc        1 1B4      0.075367
     48 H22        -8.0510   -0.3040   -3.8690 hc        1 1B4      0.075367
     49 H232       -6.3870    2.2390   -1.8090 hn        1 1B4      0.449800
     50 H1          0.6610   -1.4690   -2.0850 h4        1 1B4      0.065100
@<TRIPOS>BOND
     1    1    4 1   
     2    1   11 ar  
     3    1   15 ar  
     4    2    3 ar  
     5    2    6 ar  
     6    3    4 ar  
     7    3   50 1   
     8    4    5 ar  
     9    5    7 ar  
    10    6    7 ar  
    11    6   10 1   
    12    7    8 1   
    13    8    9 2   
    14    8   22 1   
    15    9   10 1   
    16    9   28 1   
    17   10   29 1   
    18   11   12 ar  
    19   11   30 1   
    20   12   13 ar  
    21   12   16 1   
    22   13   14 ar  
    23   13   18 1   
    24   14   15 ar  
    25   14   20 1   
    26   15   31 1   
    27   16   17 1   
    28   17   32 1   
    29   17   33 1   
    30   17   34 1   
    31   18   19 1   
    32   19   35 1   
    33   19   36 1   
    34   19   37 1   
    35   20   21 1   
    36   21   38 1   
    37   21   39 1   
    38   21   40 1   
    39   22   23 1   
    40   22   24 2   
    41   23   25 1   
    42   23   41 1   
    43   23   49 1   
    44   25   26 1   
    45   25   27 1   
    46   25   42 1   
    47   26   43 1   
    48   26   44 1   
    49   26   45 1   
    50   27   46 1   
    51   27   47 1   
    52   27   48 1   
@<TRIPOS>SUBSTRUCTURE
     1 1B4         1 TEMP              0 ****  ****    0 ROOT
