@<TRIPOS>MOLECULE
1B5
   44    47     1     0     0
SMALL
bcc


@<TRIPOS>ATOM
      1 C1          0.2160    0.4200    0.0950 ca        1 1B5      0.334900
      2 C2          1.6590    0.2420    0.0160 ca        1 1B5      0.365700
      3 N3          2.4280    0.1480    1.1230 nb        1 1B5     -0.606000
      4 C4          1.7600    0.2390    2.2960 ca        1 1B5      0.367800
      5 C5          0.3140    0.4120    2.3580 ca        1 1B5      0.281500
      6 N6         -0.4650    0.5040    1.2360 nb        1 1B5     -0.594000
      7 C7          2.2120    0.1790    3.6760 cc        1 1B5     -0.400000
      8 C8          1.0610    0.3180    4.4890 cd        1 1B5     -0.014100
      9 N9         -0.0630    0.4560    3.7160 na        1 1B5     -0.209100
     10 C10         2.2880    0.1620   -1.2940 cc        1 1B5      0.228900
     11 C11         3.5860    0.0420    4.0400 c         1 1B5      0.618300
     12 O12         4.6030    0.2950    3.4110 o         1 1B5     -0.420100
     13 N13         3.8460   -0.5670    5.4230 n4        1 1B5     -0.692800
     14 C14         4.4470    0.4340    6.3810 c3        1 1B5      0.129500
     15 N15         1.5780    0.0060   -2.4530 nd        1 1B5     -0.473100
     16 N16         2.4310   -0.0470   -3.4730 na        1 1B5      0.128900
     17 C17         3.7670    0.0920   -3.0330 ca        1 1B5     -0.061200
     18 C18         3.7120    0.2250   -1.5960 ca        1 1B5     -0.165900
     19 C19         4.9840    0.1040   -3.7300 ca        1 1B5     -0.124000
     20 C20         6.1380    0.2540   -2.9710 ca        1 1B5      0.045400
     21 C21         6.1000    0.3900   -1.5650 ca        1 1B5     -0.143000
     22 C22         4.8980    0.3760   -0.8760 ca        1 1B5     -0.057000
     23 C23         2.0340   -0.1480   -4.8590 c3        1 1B5      0.036600
     24 CL2         7.6450    0.2780   -3.7530 cl        1 1B5     -0.068400
     25 C25         3.4020    1.4110    6.8970 c3        1 1B5     -0.133600
     26 C26         5.1320   -0.2700    7.5450 c3        1 1B5     -0.133600
     27 H1         -0.3900    0.4950   -0.8300 h4        1 1B5      0.075100
     28 H2          0.9950    0.3520    5.5830 h4        1 1B5      0.180000
     29 H3         -0.9930    0.5900    4.0400 hn        1 1B5      0.342700
     30 H4          4.5140   -1.3390    5.3100 hn        1 1B5      0.449300
     31 H5          5.2270    1.0000    5.7800 hx        1 1B5      0.122700
     32 H6          5.0200    0.0020   -4.8240 ha        1 1B5      0.161000
     33 H7          7.0460    0.5100   -1.0130 ha        1 1B5      0.154000
     34 H8          4.8840    0.4830    0.2190 ha        1 1B5      0.158000
     35 H9          1.0550   -0.6890   -4.9490 h1        1 1B5      0.071367
     36 H10         1.9310    0.8820   -5.2970 h1        1 1B5      0.071367
     37 H11         2.8300   -0.7140   -5.4110 h1        1 1B5      0.071367
     38 H12         2.6460    0.8980    7.5400 hc        1 1B5      0.075200
     39 H13         3.9210    2.1840    7.5180 hc        1 1B5      0.075200
     40 H14         2.8790    1.9330    6.0580 hc        1 1B5      0.075200
     41 H15         4.4010   -0.8430    8.1650 hc        1 1B5      0.075200
     42 H16         5.9370   -0.9610    7.1920 hc        1 1B5      0.075200
     43 H17         5.6070    0.5090    8.1940 hc        1 1B5      0.075200
     44 H132        2.9790   -0.9390    5.8140 hn        1 1B5      0.449300
@<TRIPOS>BOND
     1    1    2 ar  
     2    1    6 ar  
     3    1   27 1   
     4    2    3 ar  
     5    2   10 1   
     6    3    4 ar  
     7    4    5 ar  
     8    4    7 1   
     9    5    6 ar  
    10    5    9 1   
    11    7    8 2   
    12    7   11 1   
    13    8    9 1   
    14    8   28 1   
    15    9   29 1   
    16   10   15 2   
    17   10   18 1   
    18   11   12 2   
    19   11   13 1   
    20   13   14 1   
    21   13   30 1   
    22   13   44 1   
    23   14   25 1   
    24   14   26 1   
    25   14   31 1   
    26   15   16 1   
    27   16   17 1   
    28   16   23 1   
    29   17   18 ar  
    30   17   19 ar  
    31   18   22 ar  
    32   19   20 ar  
    33   19   32 1   
    34   20   21 ar  
    35   20   24 1   
    36   21   22 ar  
    37   21   33 1   
    38   22   34 1   
    39   23   35 1   
    40   23   36 1   
    41   23   37 1   
    42   25   38 1   
    43   25   39 1   
    44   25   40 1   
    45   26   41 1   
    46   26   42 1   
    47   26   43 1   
@<TRIPOS>SUBSTRUCTURE
     1 1B5         1 TEMP              0 ****  ****    0 ROOT
