@<TRIPOS>MOLECULE
1B5
   43    46     1     0     0
SMALL
bcc


@<TRIPOS>ATOM
      1 C1         -0.0670    3.3120   -0.1610 ca        1 1B5      0.325900
      2 C2          0.2400    1.9010   -0.1600 ca        1 1B5      0.291700
      3 N3         -0.7160    0.9530   -0.2730 nb        1 1B5     -0.572000
      4 C4         -1.9770    1.4170   -0.3980 ca        1 1B5      0.341800
      5 C5         -2.2770    2.8570   -0.3900 ca        1 1B5      0.304500
      6 N6         -1.3040    3.8080   -0.2700 nb        1 1B5     -0.633000
      7 C7         -3.2540    0.7480   -0.5450 cc        1 1B5     -0.306000
      8 C8         -4.2330    1.7420   -0.6140 cd        1 1B5     -0.052100
      9 N9         -3.6640    3.0080   -0.5160 na        1 1B5     -0.273100
     10 C10         1.6330    1.4780   -0.0390 cc        1 1B5      0.284900
     11 C11        -3.4520   -0.7060   -0.6500 c         1 1B5      0.701300
     12 O12        -2.7140   -1.4320   -1.3430 o         1 1B5     -0.581100
     13 N13        -4.5550   -1.2170    0.0230 n         1 1B5     -0.563900
     14 C14        -4.7800   -2.6440    0.1350 c3        1 1B5      0.089700
     15 N15         2.6270    2.2760    0.4350 nd        1 1B5     -0.499100
     16 N16         3.7860    1.6000    0.3760 na        1 1B5      0.098900
     17 C17         3.5850    0.2860   -0.0980 ca        1 1B5     -0.052200
     18 C18         2.1770    0.1700   -0.4000 ca        1 1B5     -0.179900
     19 C19         4.4720   -0.7780   -0.3170 ca        1 1B5     -0.145000
     20 C20         3.9280   -1.9470   -0.8370 ca        1 1B5      0.050400
     21 C21         2.5560   -2.0740   -1.1370 ca        1 1B5     -0.160000
     22 C22         1.6770   -1.0220   -0.9240 ca        1 1B5     -0.036000
     23 C23         5.0160    2.0720    0.9610 c3        1 1B5      0.046600
     24 CL2         4.9540   -3.2760   -1.1200 cl        1 1B5     -0.096400
     25 C25        -4.2540   -3.2380    1.4450 c3        1 1B5     -0.110600
     26 C26        -6.2630   -2.9930   -0.0010 c3        1 1B5     -0.110600
     27 H1          0.7400    4.0620   -0.0680 h4        1 1B5      0.051100
     28 H2         -5.3140    1.6280   -0.7390 h4        1 1B5      0.181000
     29 H3         -4.1390    3.8710   -0.5830 hn        1 1B5      0.317700
     30 H4         -4.9750   -0.6530    0.7230 hn        1 1B5      0.297500
     31 H5         -4.2210   -3.1360   -0.7200 h1        1 1B5      0.088700
     32 H6          5.5420   -0.6890   -0.0890 ha        1 1B5      0.150000
     33 H7          2.1790   -3.0240   -1.5480 ha        1 1B5      0.152000
     34 H8          0.6060   -1.1310   -1.1630 ha        1 1B5      0.179000
     35 H9          5.0590    1.8040    2.0510 h1        1 1B5      0.058367
     36 H10         5.8690    1.5820    0.4220 h1        1 1B5      0.058367
     37 H11         5.0930    3.1860    0.8540 h1        1 1B5      0.058367
     38 H12        -4.7840   -2.8010    2.3250 hc        1 1B5      0.040700
     39 H13        -4.4240   -4.3410    1.4390 hc        1 1B5      0.040700
     40 H14        -3.1600   -3.0480    1.5540 hc        1 1B5      0.040700
     41 H15        -6.6740   -2.6210   -0.9700 hc        1 1B5      0.040700
     42 H16        -6.3750   -4.1030    0.0310 hc        1 1B5      0.040700
     43 H17        -6.8590   -2.5520    0.8340 hc        1 1B5      0.040700
@<TRIPOS>BOND
     1    1    2 ar  
     2    1    6 ar  
     3    1   27 1   
     4    2    3 ar  
     5    2   10 1   
     6    3    4 ar  
     7    4    5 ar  
     8    4    7 1   
     9    5    6 ar  
    10    5    9 1   
    11    7    8 2   
    12    7   11 1   
    13    8    9 1   
    14    8   28 1   
    15    9   29 1   
    16   10   15 2   
    17   10   18 1   
    18   11   12 2   
    19   11   13 1   
    20   13   14 1   
    21   13   30 1   
    22   14   25 1   
    23   14   26 1   
    24   14   31 1   
    25   15   16 1   
    26   16   17 1   
    27   16   23 1   
    28   17   18 ar  
    29   17   19 ar  
    30   18   22 ar  
    31   19   20 ar  
    32   19   32 1   
    33   20   21 ar  
    34   20   24 1   
    35   21   22 ar  
    36   21   33 1   
    37   22   34 1   
    38   23   35 1   
    39   23   36 1   
    40   23   37 1   
    41   25   38 1   
    42   25   39 1   
    43   25   40 1   
    44   26   41 1   
    45   26   42 1   
    46   26   43 1   
@<TRIPOS>SUBSTRUCTURE
     1 1B5         1 TEMP              0 ****  ****    0 ROOT
