@<TRIPOS>MOLECULE
1B5
   44    47     1     0     0
SMALL
bcc


@<TRIPOS>ATOM
      1 C1          0.2080    0.3380    0.1030 ca        1 1B5      0.334900
      2 C2          1.6550    0.2070    0.0190 ca        1 1B5      0.365700
      3 N3          2.4300    0.1310    1.1230 nb        1 1B5     -0.606000
      4 C4          1.7620    0.1910    2.2980 ca        1 1B5      0.367800
      5 C5          0.3110    0.3160    2.3660 ca        1 1B5      0.281500
      6 N6         -0.4730    0.3910    1.2460 nb        1 1B5     -0.594000
      7 C7          2.2200    0.1360    3.6770 cc        1 1B5     -0.400000
      8 C8          1.0660    0.2310    4.4940 cd        1 1B5     -0.014100
      9 N9         -0.0640    0.3370    3.7250 na        1 1B5     -0.209100
     10 C10         2.2830    0.1580   -1.2930 cc        1 1B5      0.228900
     11 C11         3.5980    0.0420    4.0370 c         1 1B5      0.618300
     12 O12         4.6050    0.3350    3.4090 o         1 1B5     -0.420100
     13 N13         3.8810   -0.5700    5.4150 n4        1 1B5     -0.692800
     14 C14         4.4520    0.4410    6.3790 c3        1 1B5      0.129500
     15 N15         1.5760   -0.0230   -2.4510 nd        1 1B5     -0.473100
     16 N16         2.4250   -0.0090   -3.4750 na        1 1B5      0.128900
     17 C17         3.7570    0.1670   -3.0380 ca        1 1B5     -0.061200
     18 C18         3.7020    0.2860   -1.6000 ca        1 1B5     -0.165900
     19 C19         4.9690    0.2430   -3.7390 ca        1 1B5     -0.124000
     20 C20         6.1180    0.4400   -2.9820 ca        1 1B5      0.045400
     21 C21         6.0790    0.5620   -1.5750 ca        1 1B5     -0.143000
     22 C22         4.8820    0.4870   -0.8820 ca        1 1B5     -0.057000
     23 C23         2.0420   -0.2440   -4.8490 c3        1 1B5      0.036600
     24 CL2         7.6200    0.5400   -3.7690 cl        1 1B5     -0.068400
     25 C25         3.3760    1.3790    6.9060 c3        1 1B5     -0.133600
     26 C26         5.1620   -0.2500    7.5360 c3        1 1B5     -0.133600
     27 H1         -0.4030    0.4010   -0.8200 h4        1 1B5      0.075100
     28 H2          1.0020    0.2550    5.5880 h4        1 1B5      0.180000
     29 H3         -0.9960    0.4380    4.0520 hn        1 1B5      0.342700
     30 H4          3.0280   -0.9740    5.8030 hn        1 1B5      0.449300
     31 H5          5.2110    1.0370    5.7820 hx        1 1B5      0.122700
     32 H6          5.0060    0.1520   -4.8340 ha        1 1B5      0.161000
     33 H7          7.0210    0.7210   -1.0260 ha        1 1B5      0.154000
     34 H8          4.8670    0.5860    0.2140 ha        1 1B5      0.158000
     35 H9          2.7370    0.3370   -5.5110 h1        1 1B5      0.071033
     36 H10         2.1280   -1.3400   -5.0820 h1        1 1B5      0.071033
     37 H11         0.9860    0.0900   -5.0260 h1        1 1B5      0.071033
     38 H12         3.8720    2.1630    7.5330 hc        1 1B5      0.075200
     39 H13         2.8350    1.8910    6.0730 hc        1 1B5      0.075200
     40 H14         2.6390    0.8360    7.5460 hc        1 1B5      0.075200
     41 H15         5.9880   -0.9110    7.1760 hc        1 1B5      0.075200
     42 H16         4.4520   -0.8530    8.1530 hc        1 1B5      0.075200
     43 H17         5.6120    0.5380    8.1910 hc        1 1B5      0.075200
     44 H132        4.5740   -1.3190    5.2920 hn        1 1B5      0.449300
@<TRIPOS>BOND
     1    1    2 ar  
     2    1    6 ar  
     3    1   27 1   
     4    2    3 ar  
     5    2   10 1   
     6    3    4 ar  
     7    4    5 ar  
     8    4    7 1   
     9    5    6 ar  
    10    5    9 1   
    11    7    8 2   
    12    7   11 1   
    13    8    9 1   
    14    8   28 1   
    15    9   29 1   
    16   10   15 2   
    17   10   18 1   
    18   11   12 2   
    19   11   13 1   
    20   13   14 1   
    21   13   30 1   
    22   13   44 1   
    23   14   25 1   
    24   14   26 1   
    25   14   31 1   
    26   15   16 1   
    27   16   17 1   
    28   16   23 1   
    29   17   18 ar  
    30   17   19 ar  
    31   18   22 ar  
    32   19   20 ar  
    33   19   32 1   
    34   20   21 ar  
    35   20   24 1   
    36   21   22 ar  
    37   21   33 1   
    38   22   34 1   
    39   23   35 1   
    40   23   36 1   
    41   23   37 1   
    42   25   38 1   
    43   25   39 1   
    44   25   40 1   
    45   26   41 1   
    46   26   42 1   
    47   26   43 1   
@<TRIPOS>SUBSTRUCTURE
     1 1B5         1 TEMP              0 ****  ****    0 ROOT
