@<TRIPOS>MOLECULE
1B5
   43    31     1     0     0
SMALL
bcc


@<TRIPOS>ATOM
      1 C1         -2.8300    0.4160   -1.2990 c1        1 1B5     -0.093000
      2 C2         -1.4480    0.2560   -1.2540 c1        1 1B5      0.004000
      3 N3         -0.8220    0.1350   -0.0680 n1        1 1B5     -0.062000
      4 C4         -1.5450    0.1690    1.0960 c1        1 1B5     -0.030500
      5 C5         -2.9060    0.3260    1.0520 c1        1 1B5     -0.030500
      6 N6         -3.5420    0.4490   -0.1520 n1        1 1B5     -0.099000
      7 C7         -1.1610    0.1450    2.4250 c1        1 1B5     -0.186000
      8 C8         -2.2980    0.2890    3.2010 c1        1 1B5      0.017000
      9 N9         -3.3720    0.4000    2.3610 n1        1 1B5     -0.187000
     10 C10        -0.6710    0.3340   -2.5960 c1        1 1B5     -0.069000
     11 C11         0.2590   -0.0450    2.9220 c1        1 1B5      0.382000
     12 O12         1.1920    0.3120    2.2390 o         1 1B5     -0.404000
     13 N13         0.4930   -0.5820    4.2240 n2        1 1B5     -0.365000
     14 C14         1.7370   -1.2170    4.5210 c3        1 1B5      0.021000
     15 N15        -0.1490   -0.8800   -2.8990 n2        1 1B5      0.011000
     16 N16         0.5480   -0.7630   -4.0850 n2        1 1B5     -0.148000
     17 C17         0.4490    0.5390   -4.5090 c1        1 1B5     -0.001000
     18 C18        -0.3000    1.2230   -3.5980 c1        1 1B5     -0.114000
     19 C19         1.0320    1.2230   -5.6010 c1        1 1B5     -0.133000
     20 C20         0.8420    2.5900   -5.7460 c1        1 1B5     -0.032000
     21 C21         0.0790    3.2860   -4.8180 c1        1 1B5     -0.150000
     22 C22        -0.4940    2.6150   -3.7450 c1        1 1B5     -0.060000
     23 C23         1.0760   -2.0090   -4.5930 c2        1 1B5     -0.053000
     24 CL2         1.6780    3.2170   -7.1410 cl        1 1B5     -0.010000
     25 C25         2.3740   -0.5430    5.7260 c3        1 1B5     -0.227500
     26 C26         1.4970   -2.6790    4.8270 c3        1 1B5     -0.227500
     27 H1         -3.2860    0.5040   -2.1630 ha        1 1B5      0.178000
     28 H2         -2.3230    0.3650    4.1810 DU        1 1B5      0.235000
     29 H3         -4.2440    0.5050    2.6150 DU        1 1B5      0.235000
     30 H4         -0.1350   -0.4790    4.8800 hn        1 1B5      0.247000
     31 H5          2.3340   -1.1400    3.7510 h1        1 1B5      0.126000
     32 H6          1.5670    0.7340   -6.2530 ha        1 1B5      0.154000
     33 H7         -0.0550    4.2490   -4.9200 ha        1 1B5      0.152000
     34 H8         -1.0290    3.1040   -3.0950 ha        1 1B5      0.146000
     35 H9          0.6340   -2.2290   -5.4430 ha        1 1B5      0.100000
     36 H10         0.9090   -2.7250   -3.9420 ha        1 1B5      0.100000
     37 H11         2.0450   -1.9190   -4.7400 ha        1 1B5      0.100000
     38 H12         3.2820   -0.8880    5.8510 hc        1 1B5      0.079333
     39 H13         1.8390   -0.7330    6.5270 hc        1 1B5      0.079333
     40 H14         2.4090    0.4270    5.5790 hc        1 1B5      0.079333
     41 H15         2.3590   -3.1380    4.9260 hc        1 1B5      0.079333
     42 H16         0.9920   -3.0860    4.0970 hc        1 1B5      0.079333
     43 H17         0.9880   -2.7590    5.6590 hc        1 1B5      0.079333
@<TRIPOS>BOND
     1    1    6 1   
     2    1   27 1   
     3    2    3 1   
     4    4    5 1   
     5    7    8 1   
     6    8    9 1   
     7   10   15 1   
     8   10   18 1   
     9   11   12 1   
    10   13   14 1   
    11   13   30 1   
    12   14   25 1   
    13   14   26 1   
    14   14   31 1   
    15   15   16 1   
    16   16   17 1   
    17   17   19 1   
    18   18   22 1   
    19   19   32 1   
    20   20   21 1   
    21   21   33 1   
    22   22   34 1   
    23   23   35 1   
    24   23   36 1   
    25   23   37 1   
    26   25   38 1   
    27   25   39 1   
    28   25   40 1   
    29   26   41 1   
    30   26   42 1   
    31   26   43 1   
@<TRIPOS>SUBSTRUCTURE
     1 1B5         1 TEMP              0 ****  ****    0 ROOT
