@<TRIPOS>MOLECULE
1B5
   44    47     1     0     0
SMALL
bcc


@<TRIPOS>ATOM
      1 C1          0.2130    0.3710    0.0970 ca        1 1B5      0.334900
      2 C2          1.6580    0.2160    0.0170 ca        1 1B5      0.365700
      3 N3          2.4290    0.1360    1.1230 nb        1 1B5     -0.606000
      4 C4          1.7600    0.2150    2.2970 ca        1 1B5      0.367800
      5 C5          0.3120    0.3640    2.3600 ca        1 1B5      0.281500
      6 N6         -0.4700    0.4430    1.2390 nb        1 1B5     -0.594000
      7 C7          2.2150    0.1630    3.6770 cc        1 1B5     -0.400000
      8 C8          1.0620    0.2820    4.4900 cd        1 1B5     -0.014100
      9 N9         -0.0650    0.4020    3.7190 na        1 1B5     -0.209100
     10 C10         2.2870    0.1470   -1.2930 cc        1 1B5      0.228900
     11 C11         3.5910    0.0490    4.0390 c         1 1B5      0.618300
     12 O12         4.6030    0.3210    3.4110 o         1 1B5     -0.420100
     13 N13         3.8620   -0.5560    5.4220 ny        1 1B5     -0.692800
     14 C14         4.4480    0.4530    6.3800 c3        1 1B5      0.129500
     15 N15         1.5790   -0.0230   -2.4520 nd        1 1B5     -0.473100
     16 N16         2.4320   -0.0610   -3.4720 na        1 1B5      0.128900
     17 C17         3.7660    0.1030   -3.0340 ca        1 1B5     -0.061200
     18 C18         3.7100    0.2360   -1.5970 ca        1 1B5     -0.165900
     19 C19         4.9820    0.1370   -3.7320 ca        1 1B5     -0.124000
     20 C20         6.1340    0.3090   -2.9740 ca        1 1B5      0.045400
     21 C21         6.0940    0.4450   -1.5680 ca        1 1B5     -0.143000
     22 C22         4.8930    0.4100   -0.8770 ca        1 1B5     -0.057000
     23 C23         2.0360   -0.1700   -4.8580 c3        1 1B5      0.036600
     24 Cl2         7.6390    0.3600   -3.7560 cl        1 1B5     -0.068400
     25 C25         3.3860    1.4120    6.8980 c3        1 1B5     -0.133600
     26 C26         5.1450   -0.2410    7.5430 c3        1 1B5     -0.133600
     27 H1         -0.3960    0.4360   -0.8270 h4        1 1B5      0.075100
     28 H2          0.9960    0.3160    5.5840 h4        1 1B5      0.180000
     29 H3         -0.9970    0.5200    4.0430 hn        1 1B5      0.342700
     30 H4          4.5430   -1.3170    5.3070 hn        1 1B5      0.449300
     31 H5          5.2170    1.0320    5.7800 hx        1 1B5      0.122700
     32 H6          5.0190    0.0350   -4.8260 ha        1 1B5      0.161000
     33 H7          7.0380    0.5830   -1.0170 ha        1 1B5      0.154000
     34 H8          4.8780    0.5170    0.2180 ha        1 1B5      0.158000
     35 H9          1.0670   -0.7300   -4.9470 h1        1 1B5      0.071367
     36 H10         1.9130    0.8570   -5.2970 h1        1 1B5      0.071367
     37 H11         2.8420   -0.7220   -5.4100 h1        1 1B5      0.071367
     38 H12         2.6390    0.8850    7.5410 hc        1 1B5      0.075200
     39 H13         3.8930    2.1930    7.5200 hc        1 1B5      0.075200
     40 H14         2.8550    1.9260    6.0600 hc        1 1B5      0.075200
     41 H15         4.4240   -0.8270    8.1630 hc        1 1B5      0.075200
     42 H16         5.9610   -0.9180    7.1890 hc        1 1B5      0.075200
     43 H17         5.6070    0.5450    8.1930 hc        1 1B5      0.075200
     44 H132        3.0020   -0.9440    5.8130 hn        1 1B5      0.449300
@<TRIPOS>BOND
     1    1    2 ar  
     2    1    6 ar  
     3    1   27 1   
     4    2    3 ar  
     5    2   10 1   
     6    3    4 ar  
     7    4    5 ar  
     8    4    7 1   
     9    5    6 ar  
    10    5    9 1   
    11    7    8 2   
    12    7   11 1   
    13    8    9 1   
    14    8   28 1   
    15    9   29 1   
    16   10   15 2   
    17   10   18 1   
    18   11   12 2   
    19   11   13 1   
    20   13   14 1   
    21   13   30 1   
    22   13   44 1   
    23   14   25 1   
    24   14   26 1   
    25   14   31 1   
    26   15   16 1   
    27   16   17 1   
    28   16   23 1   
    29   17   18 ar  
    30   17   19 ar  
    31   18   22 ar  
    32   19   20 ar  
    33   19   32 1   
    34   20   21 ar  
    35   20   24 1   
    36   21   22 ar  
    37   21   33 1   
    38   22   34 1   
    39   23   35 1   
    40   23   36 1   
    41   23   37 1   
    42   25   38 1   
    43   25   39 1   
    44   25   40 1   
    45   26   41 1   
    46   26   42 1   
    47   26   43 1   
@<TRIPOS>SUBSTRUCTURE
     1 1B5         1 TEMP              0 ****  ****    0 ROOT
