@<TRIPOS>MOLECULE
1B6
   47    50     1     0     0
SMALL
bcc


@<TRIPOS>ATOM
      1 N1         -0.5160   -3.7410    0.1290 nb        1 1B6     -0.635000
      2 C2         -1.5890   -2.9620   -0.0170 ca        1 1B6      0.323900
      3 C3         -1.5500   -1.5140    0.0110 ca        1 1B6      0.290000
      4 N4         -0.3990   -0.8300    0.1890 nb        1 1B6     -0.600000
      5 C5          0.7090   -1.5890    0.3470 ca        1 1B6      0.345800
      6 C6          0.6520   -3.0540    0.3150 ca        1 1B6      0.290500
      7 C7          2.1030   -1.2510    0.5570 cc        1 1B6     -0.312000
      8 C8          2.8090   -2.4550    0.6410 cd        1 1B6     -0.059100
      9 N9          1.9550   -3.5420    0.4920 na        1 1B6     -0.272100
     10 C10        -2.7940   -0.7750   -0.1480 cc        1 1B6      0.217300
     11 C11         2.6540    0.1070    0.6930 c         1 1B6      0.704300
     12 N12         3.8740    0.3180    0.0600 n         1 1B6     -0.564900
     13 O13         2.0920    0.9890    1.3700 o         1 1B6     -0.585100
     14 C14         4.5020    1.6340   -0.0450 c3        1 1B6      0.118400
     15 C15         4.8690    2.1910    1.3400 c3        1 1B6     -0.107433
     16 C16         5.8000    1.5280   -0.8670 c3        1 1B6     -0.107433
     17 N17        -4.0420   -1.4000   -0.3320 nc        1 1B6     -0.661000
     18 C18        -4.9480   -0.4100   -0.4080 cd        1 1B6      0.395400
     19 N19        -4.3420    0.8490   -0.2860 na        1 1B6     -0.208900
     20 C20        -2.9680    0.6330   -0.1210 cd        1 1B6     -0.120900
     21 C21         3.5920    2.6610   -0.7420 c3        1 1B6     -0.107433
     22 C22        -4.9550    2.1460   -0.2850 c3        1 1B6      0.041300
     23 C23        -4.0390    3.2170    0.3140 c3        1 1B6     -0.092400
     24 C24        -2.6280    3.1020   -0.2220 c3        1 1B6     -0.083400
     25 C25        -2.0080    1.7420    0.0600 c3        1 1B6     -0.015100
     26 H1         -2.5470   -3.4920   -0.1670 h4        1 1B6      0.057100
     27 H2          3.8780   -2.6070    0.8110 h4        1 1B6      0.177000
     28 H3          2.2010   -4.4950    0.5630 hn        1 1B6      0.314700
     29 H4          4.1400   -0.3350   -0.6400 hn        1 1B6      0.299500
     30 H5          5.5740    1.5060    1.8670 hc        1 1B6      0.044589
     31 H6          5.3610    3.1840    1.2130 hc        1 1B6      0.044589
     32 H7          3.9510    2.3170    1.9640 hc        1 1B6      0.044589
     33 H8          5.5890    1.1790   -1.9060 hc        1 1B6      0.044589
     34 H9          6.2740    2.5370   -0.9220 hc        1 1B6      0.044589
     35 H10         6.5190    0.8230   -0.3860 hc        1 1B6      0.044589
     36 H11        -6.0260   -0.5350   -0.5490 h5        1 1B6      0.062100
     37 H12         2.6430    2.7880   -0.1660 hc        1 1B6      0.044589
     38 H13         4.1180    3.6440   -0.7920 hc        1 1B6      0.044589
     39 H14         3.3470    2.3340   -1.7800 hc        1 1B6      0.044589
     40 H15        -5.2080    2.4240   -1.3490 h1        1 1B6      0.054200
     41 H16        -5.9150    2.0960    0.3010 h1        1 1B6      0.054200
     42 H17        -4.4670    4.2210    0.0600 hc        1 1B6      0.056200
     43 H18        -4.0270    3.1210    1.4310 hc        1 1B6      0.056200
     44 H19        -2.6390    3.2830   -1.3300 hc        1 1B6      0.050200
     45 H20        -1.9860    3.8960    0.2410 hc        1 1B6      0.050200
     46 H21        -1.6170    1.7030    1.1140 hc        1 1B6      0.085700
     47 H22        -1.1280    1.5880   -0.6220 hc        1 1B6      0.085700
@<TRIPOS>BOND
     1    1    2 ar  
     2    1    6 ar  
     3    2    3 ar  
     4    2   26 1   
     5    3    4 ar  
     6    3   10 1   
     7    4    5 ar  
     8    5    6 ar  
     9    5    7 1   
    10    6    9 1   
    11    7    8 2   
    12    7   11 1   
    13    8    9 1   
    14    8   27 1   
    15    9   28 1   
    16   10   17 1   
    17   10   20 2   
    18   11   12 1   
    19   11   13 2   
    20   12   14 1   
    21   12   29 1   
    22   14   15 1   
    23   14   16 1   
    24   14   21 1   
    25   15   30 1   
    26   15   31 1   
    27   15   32 1   
    28   16   33 1   
    29   16   34 1   
    30   16   35 1   
    31   17   18 2   
    32   18   19 1   
    33   18   36 1   
    34   19   20 1   
    35   19   22 1   
    36   20   25 1   
    37   21   37 1   
    38   21   38 1   
    39   21   39 1   
    40   22   23 1   
    41   22   40 1   
    42   22   41 1   
    43   23   24 1   
    44   23   42 1   
    45   23   43 1   
    46   24   25 1   
    47   24   44 1   
    48   24   45 1   
    49   25   46 1   
    50   25   47 1   
@<TRIPOS>SUBSTRUCTURE
     1 1B6         1 TEMP              0 ****  ****    0 ROOT
