@<TRIPOS>MOLECULE
1B6
   48    51     1     0     0
SMALL
bcc


@<TRIPOS>ATOM
      1 N1          0.1320   -1.1200    0.3590 nb        1 1B6     -0.598000
      2 C2          1.4200   -0.8000    0.3120 ca        1 1B6      0.338900
      3 C3          2.1520   -0.1830    1.4150 ca        1 1B6      0.355000
      4 N4          1.5530    0.1120    2.5910 nb        1 1B6     -0.633000
      5 C5          0.2400   -0.2120    2.6640 ca        1 1B6      0.374800
      6 C6         -0.4740   -0.8230    1.5530 ca        1 1B6      0.267500
      7 C7         -0.7410   -0.0550    3.7270 cc        1 1B6     -0.401000
      8 C8         -1.9660   -0.5660    3.2280 cd        1 1B6     -0.024100
      9 N9         -1.8130   -1.0210    1.9460 na        1 1B6     -0.203100
     10 C10         3.5550    0.1170    1.2260 cc        1 1B6      0.176300
     11 C11        -0.4270    0.5010    5.0040 c         1 1B6      0.619300
     12 N12        -1.6220    1.0040    5.8190 n4        1 1B6     -0.691800
     13 O13         0.6600    0.6910    5.5350 o         1 1B6     -0.434100
     14 C14        -1.9260    0.1640    7.0580 c3        1 1B6      0.155200
     15 C15        -0.9100    0.4750    8.1600 c3        1 1B6     -0.127100
     16 C16        -3.3310    0.5170    7.5570 c3        1 1B6     -0.127100
     17 N17         4.2000   -0.0210   -0.0210 nc        1 1B6     -0.651000
     18 C18         5.4740    0.3520    0.1760 cd        1 1B6      0.419400
     19 N19         5.6970    0.7310    1.5110 na        1 1B6     -0.199900
     20 C20         4.4890    0.5850    2.1930 cd        1 1B6     -0.093900
     21 C21        -1.8700   -1.3250    6.7180 c3        1 1B6     -0.127100
     22 C22         6.9170    1.1810    2.1240 c3        1 1B6      0.033300
     23 C23         6.6710    1.8600    3.4730 c3        1 1B6     -0.094400
     24 C24         5.6880    1.0780    4.3190 c3        1 1B6     -0.086400
     25 C25         4.3440    0.9060    3.6290 c3        1 1B6     -0.017100
     26 H1          1.9400   -1.0280   -0.6400 h4        1 1B6      0.081100
     27 H2         -2.9350   -0.6480    3.7340 h4        1 1B6      0.175000
     28 H3         -2.5130   -1.4390    1.3770 hn        1 1B6      0.339700
     29 H4         -2.4540    1.0290    5.2290 hn        1 1B6      0.446300
     30 H5          0.1350    0.2680    7.8190 hc        1 1B6      0.074811
     31 H6         -1.1320   -0.1790    9.0390 hc        1 1B6      0.074811
     32 H7         -0.9840    1.5410    8.4870 hc        1 1B6      0.074811
     33 H8         -3.5330   -0.0740    8.4860 hc        1 1B6      0.074811
     34 H9         -3.4130    1.6020    7.8140 hc        1 1B6      0.074811
     35 H10        -4.1110    0.2550    6.8020 hc        1 1B6      0.074811
     36 H11         6.2640    0.3720   -0.5840 h5        1 1B6      0.078100
     37 H12        -2.5960   -1.5860    5.9110 hc        1 1B6      0.074811
     38 H13        -2.1400   -1.9080    7.6350 hc        1 1B6      0.074811
     39 H14        -0.8410   -1.6280    6.4020 hc        1 1B6      0.074811
     40 H15         7.5930    0.2880    2.2690 h1        1 1B6      0.067700
     41 H16         7.4310    1.9000    1.4230 h1        1 1B6      0.067700
     42 H17         7.6550    1.9400    4.0040 hc        1 1B6      0.064700
     43 H18         6.2860    2.9000    3.3080 hc        1 1B6      0.064700
     44 H19         6.1200    0.0680    4.5500 hc        1 1B6      0.056200
     45 H20         5.5320    1.6080    5.2950 hc        1 1B6      0.056200
     46 H21         3.7390    1.8490    3.7190 hc        1 1B6      0.077200
     47 H22         3.7640    0.0880    4.1360 hc        1 1B6      0.077200
     48 H122       -1.4120    1.9560    6.1370 hn        1 1B6      0.446300
@<TRIPOS>BOND
     1    1    2 ar  
     2    1    6 ar  
     3    2    3 ar  
     4    2   26 1   
     5    3    4 ar  
     6    3   10 1   
     7    4    5 ar  
     8    5    6 ar  
     9    5    7 1   
    10    6    9 1   
    11    7    8 2   
    12    7   11 1   
    13    8    9 1   
    14    8   27 1   
    15    9   28 1   
    16   10   17 1   
    17   10   20 2   
    18   11   12 1   
    19   11   13 2   
    20   12   14 1   
    21   12   29 1   
    22   12   48 1   
    23   14   15 1   
    24   14   16 1   
    25   14   21 1   
    26   15   30 1   
    27   15   31 1   
    28   15   32 1   
    29   16   33 1   
    30   16   34 1   
    31   16   35 1   
    32   17   18 2   
    33   18   19 1   
    34   18   36 1   
    35   19   20 1   
    36   19   22 1   
    37   20   25 1   
    38   21   37 1   
    39   21   38 1   
    40   21   39 1   
    41   22   23 1   
    42   22   40 1   
    43   22   41 1   
    44   23   24 1   
    45   23   42 1   
    46   23   43 1   
    47   24   25 1   
    48   24   44 1   
    49   24   45 1   
    50   25   46 1   
    51   25   47 1   
@<TRIPOS>SUBSTRUCTURE
     1 1B6         1 TEMP              0 ****  ****    0 ROOT
