@<TRIPOS>MOLECULE
1B6
   47    38     1     0     0
SMALL
bcc


@<TRIPOS>ATOM
      1 N1         -1.7190   -0.1810   -3.3310 n1        1 1B6     -0.082000
      2 C2         -0.3780   -0.2450   -3.3140 c1        1 1B6     -0.106000
      3 C3          0.2990   -0.3130   -2.1040 c1        1 1B6      0.024000
      4 N4         -0.3870   -0.3140   -0.9510 n1        1 1B6     -0.082000
      5 C5         -1.7470   -0.2490   -0.9670 c1        1 1B6     -0.034000
      6 C6         -2.4150   -0.1830   -2.1610 c1        1 1B6     -0.034000
      7 C7         -2.6810   -0.1960    0.0460 c1        1 1B6     -0.189000
      8 C8         -3.9310   -0.0970   -0.5320 c1        1 1B6      0.014000
      9 N9         -3.7700   -0.0880   -1.8890 n1        1 1B6     -0.190000
     10 C10         1.7940   -0.1040   -1.9900 c2        1 1B6     -0.090000
     11 C11        -2.3730   -0.3100    1.5230 c1        1 1B6      0.384000
     12 N12        -3.4250   -0.2460    2.4750 n2        1 1B6     -0.363000
     13 O13        -1.2250   -0.4420    1.8960 o         1 1B6     -0.410000
     14 C14        -3.1790   -0.5930    3.8280 c3        1 1B6      0.092000
     15 C15        -2.1840    0.3790    4.4240 c3        1 1B6     -0.226333
     16 C16        -4.4740   -0.5300    4.6070 c3        1 1B6     -0.226333
     17 N17         2.0670   -1.2030   -1.1800 n2        1 1B6     -0.101000
     18 C18         3.4650   -1.3010   -1.0280 c1        1 1B6     -0.095000
     19 N19         4.0330   -0.2930   -1.7230 n2        1 1B6     -0.156000
     20 C20         2.9800    0.4690   -2.3360 c1        1 1B6     -0.078000
     21 C21        -2.6170   -1.9950    3.8950 c3        1 1B6     -0.226333
     22 C22         5.4760    0.1330   -1.9990 c2        1 1B6     -0.058000
     23 C23         5.6630    1.1580   -2.9620 c3        1 1B6     -0.165000
     24 C24         4.6970    2.1890   -2.9960 c3        1 1B6     -0.165000
     25 C25         3.3790    1.7930   -3.0980 c2        1 1B6     -0.058000
     26 H1          0.1200   -0.2440   -4.1530 ha        1 1B6      0.170000
     27 H2         -4.7780   -0.0160   -0.0550 DU        1 1B6      0.221667
     28 H3         -4.4380   -0.0300   -2.5080 DU        1 1B6      0.221667
     29 H4         -4.2590    0.0190    2.2160 hn        1 1B6      0.253000
     30 H5         -2.1500    0.2560    5.3960 hc        1 1B6      0.083778
     31 H6         -2.4620    1.2970    4.2210 hc        1 1B6      0.083778
     32 H7         -1.2970    0.2130    4.0430 hc        1 1B6      0.083778
     33 H8         -4.3190   -0.8390    5.5250 hc        1 1B6      0.083778
     34 H9         -5.1420   -1.1050    4.1780 hc        1 1B6      0.083778
     35 H10        -4.8010    0.3930    4.6250 hc        1 1B6      0.083778
     36 H11         3.9400   -1.9780   -0.5100 DU        1 1B6      0.221667
     37 H12        -2.7270   -2.3490    4.8030 hc        1 1B6      0.083778
     38 H13        -3.0950   -2.5700    3.2600 hc        1 1B6      0.083778
     39 H14        -1.6640   -1.9770    3.6660 hc        1 1B6      0.083778
     40 H15         5.9720   -0.6570   -2.2970 ha        1 1B6      0.099500
     41 H16         5.8670    0.4380   -1.1530 ha        1 1B6      0.099500
     42 H17         5.6860    0.7370   -3.8480 hc        1 1B6      0.095000
     43 H18         6.5380    1.5690   -2.7970 hc        1 1B6      0.095000
     44 H19         4.7800    2.6850   -2.1530 hc        1 1B6      0.095000
     45 H20         4.8920    2.7350   -3.7870 hc        1 1B6      0.095000
     46 H21         2.8170    2.5190   -2.7560 ha        1 1B6      0.099500
     47 H22         3.1730    1.6690   -4.0470 ha        1 1B6      0.099500
@<TRIPOS>BOND
     1    1    6 1   
     2    2    3 1   
     3    2   26 1   
     4    3   10 1   
     5    4    5 1   
     6    7    8 1   
     7    8    9 1   
     8   10   17 1   
     9   10   20 1   
    10   11   13 1   
    11   12   14 1   
    12   12   29 1   
    13   14   15 1   
    14   14   16 1   
    15   14   21 1   
    16   15   30 1   
    17   15   31 1   
    18   15   32 1   
    19   16   33 1   
    20   16   34 1   
    21   16   35 1   
    22   17   18 1   
    23   18   19 1   
    24   19   20 1   
    25   21   37 1   
    26   21   38 1   
    27   21   39 1   
    28   22   23 1   
    29   22   40 1   
    30   22   41 1   
    31   23   24 1   
    32   23   42 1   
    33   23   43 1   
    34   24   25 1   
    35   24   44 1   
    36   24   45 1   
    37   25   46 1   
    38   25   47 1   
@<TRIPOS>SUBSTRUCTURE
     1 1B6         1 TEMP              0 ****  ****    0 ROOT
