@<TRIPOS>MOLECULE
1B6
   48    51     1     0     0
SMALL
bcc


@<TRIPOS>ATOM
      1 N1          0.1210   -1.0930    0.3520 nb        1 1B6     -0.598000
      2 C2          1.4140   -0.7850    0.3080 ca        1 1B6      0.338900
      3 C3          2.1500   -0.1800    1.4140 ca        1 1B6      0.355000
      4 N4          1.5530    0.1170    2.5910 nb        1 1B6     -0.633000
      5 C5          0.2360   -0.1940    2.6610 ca        1 1B6      0.374800
      6 C6         -0.4820   -0.7940    1.5460 ca        1 1B6      0.267500
      7 C7         -0.7440   -0.0310    3.7230 cc        1 1B6     -0.401000
      8 C8         -1.9740   -0.5280    3.2210 cd        1 1B6     -0.024100
      9 N9         -1.8240   -0.9800    1.9370 na        1 1B6     -0.203100
     10 C10         3.5570    0.1060    1.2280 cc        1 1B6      0.176300
     11 C11        -0.4260    0.5180    5.0020 c         1 1B6      0.619300
     12 N12        -1.6170    1.0270    5.8180 n4        1 1B6     -0.691800
     13 O13         0.6620    0.6960    5.5340 o         1 1B6     -0.434100
     14 C14        -1.9300    0.1850    7.0530 c3        1 1B6      0.155200
     15 C15        -0.9120    0.4810    8.1580 c3        1 1B6     -0.127100
     16 C16        -3.3320    0.5490    7.5530 c3        1 1B6     -0.127100
     17 N17         4.2020   -0.0340   -0.0180 nc        1 1B6     -0.651000
     18 C18         5.4790    0.3260    0.1810 cd        1 1B6      0.419400
     19 N19         5.7040    0.6970    1.5180 na        1 1B6     -0.199900
     20 C20         4.4930    0.5610    2.1980 cd        1 1B6     -0.093900
     21 C21        -1.8870   -1.3040    6.7070 c3        1 1B6     -0.127100
     22 C22         6.9280    1.1330    2.1340 c3        1 1B6      0.033300
     23 C23         6.6870    1.8090    3.4860 c3        1 1B6     -0.094400
     24 C24         5.6950    1.0340    4.3270 c3        1 1B6     -0.086400
     25 C25         4.3510    0.8780    3.6350 c3        1 1B6     -0.017100
     26 H1          1.9330   -1.0150   -0.6450 h4        1 1B6      0.081100
     27 H2         -2.9440   -0.6020    3.7250 h4        1 1B6      0.175000
     28 H3         -2.5270   -1.3880    1.3660 hn        1 1B6      0.339700
     29 H4         -1.3990    1.9760    6.1410 hn        1 1B6      0.446300
     30 H5          0.1310    0.2660    7.8170 hc        1 1B6      0.074811
     31 H6         -0.9770    1.5460    8.4900 hc        1 1B6      0.074811
     32 H7         -1.1410   -0.1750    9.0340 hc        1 1B6      0.074811
     33 H8         -3.5400   -0.0450    8.4790 hc        1 1B6      0.074811
     34 H9         -4.1140    0.2970    6.7970 hc        1 1B6      0.074811
     35 H10        -3.4040    1.6320    7.8150 hc        1 1B6      0.074811
     36 H11         6.2700    0.3410   -0.5780 h5        1 1B6      0.078100
     37 H12        -2.6150   -1.5540    5.8980 hc        1 1B6      0.074811
     38 H13        -0.8610   -1.6140    6.3910 hc        1 1B6      0.074811
     39 H14        -2.1630   -1.8880    7.6200 hc        1 1B6      0.074811
     40 H15         7.4490    1.8490    1.4370 h1        1 1B6      0.067700
     41 H16         7.5950    0.2330    2.2770 h1        1 1B6      0.067700
     42 H17         7.6710    1.8780    4.0180 hc        1 1B6      0.064700
     43 H18         6.3120    2.8530    3.3240 hc        1 1B6      0.064700
     44 H19         5.5430    1.5620    5.3040 hc        1 1B6      0.056200
     45 H20         6.1160    0.0190    4.5550 hc        1 1B6      0.056200
     46 H21         3.7540    1.8270    3.7270 hc        1 1B6      0.077200
     47 H22         3.7620    0.0650    4.1380 hc        1 1B6      0.077200
     48 H122       -2.4490    1.0630    5.2280 hn        1 1B6      0.446300
@<TRIPOS>BOND
     1    1    2 ar  
     2    1    6 ar  
     3    2    3 ar  
     4    2   26 1   
     5    3    4 ar  
     6    3   10 1   
     7    4    5 ar  
     8    5    6 ar  
     9    5    7 1   
    10    6    9 1   
    11    7    8 2   
    12    7   11 1   
    13    8    9 1   
    14    8   27 1   
    15    9   28 1   
    16   10   17 1   
    17   10   20 2   
    18   11   12 1   
    19   11   13 2   
    20   12   14 1   
    21   12   29 1   
    22   12   48 1   
    23   14   15 1   
    24   14   16 1   
    25   14   21 1   
    26   15   30 1   
    27   15   31 1   
    28   15   32 1   
    29   16   33 1   
    30   16   34 1   
    31   16   35 1   
    32   17   18 2   
    33   18   19 1   
    34   18   36 1   
    35   19   20 1   
    36   19   22 1   
    37   20   25 1   
    38   21   37 1   
    39   21   38 1   
    40   21   39 1   
    41   22   23 1   
    42   22   40 1   
    43   22   41 1   
    44   23   24 1   
    45   23   42 1   
    46   23   43 1   
    47   24   25 1   
    48   24   44 1   
    49   24   45 1   
    50   25   46 1   
    51   25   47 1   
@<TRIPOS>SUBSTRUCTURE
     1 1B6         1 TEMP              0 ****  ****    0 ROOT
