@<TRIPOS>MOLECULE
1B6
   48    51     1     0     0
SMALL
bcc


@<TRIPOS>ATOM
      1 N1          0.1190   -1.1190    0.3620 nb        1 1B6     -0.598000
      2 C2          1.4090   -0.8030    0.3130 ca        1 1B6      0.338900
      3 C3          2.1450   -0.1890    1.4140 ca        1 1B6      0.355000
      4 N4          1.5500    0.1100    2.5910 nb        1 1B6     -0.633000
      5 C5          0.2360   -0.2090    2.6670 ca        1 1B6      0.374800
      6 C6         -0.4830   -0.8190    1.5570 ca        1 1B6      0.267500
      7 C7         -0.7430   -0.0480    3.7310 cc        1 1B6     -0.401000
      8 C8         -1.9710   -0.5540    3.2350 cd        1 1B6     -0.024100
      9 N9         -1.8220   -1.0110    1.9520 na        1 1B6     -0.203100
     10 C10         3.5500    0.1050    1.2220 cc        1 1B6      0.176300
     11 C11        -0.4240    0.5090    5.0060 c         1 1B6      0.619300
     12 N12        -1.6150    1.0180    5.8220 ny        1 1B6     -0.691800
     13 O13         0.6640    0.6940    5.5360 o         1 1B6     -0.434100
     14 C14        -1.9220    0.1820    7.0630 c3        1 1B6      0.155200
     15 C15        -0.9030    0.4900    8.1640 c3        1 1B6     -0.127100
     16 C16        -3.3240    0.5420    7.5640 c3        1 1B6     -0.127100
     17 N17         4.1920   -0.0350   -0.0260 nc        1 1B6     -0.651000
     18 C18         5.4670    0.3330    0.1680 cd        1 1B6      0.419400
     19 N19         5.6940    0.7110    1.5030 na        1 1B6     -0.199900
     20 C20         4.4870    0.5700    2.1870 cd        1 1B6     -0.093900
     21 C21        -1.8730   -1.3080    6.7270 c3        1 1B6     -0.127100
     22 C22         6.9180    1.1560    2.1130 c3        1 1B6      0.033300
     23 C23         6.6770    1.8360    3.4630 c3        1 1B6     -0.094400
     24 C24         5.6920    1.0580    4.3110 c3        1 1B6     -0.086400
     25 C25         4.3470    0.8910    3.6230 c3        1 1B6     -0.017100
     26 H1          1.9270   -1.0340   -0.6410 h4        1 1B6      0.081100
     27 H2         -2.9390   -0.6320    3.7420 h4        1 1B6      0.175000
     28 H3         -2.5240   -1.4260    1.3850 hn        1 1B6      0.339700
     29 H4         -2.4490    1.0460    5.2340 hn        1 1B6      0.446300
     30 H5         -1.1270   -0.1610    9.0450 hc        1 1B6      0.074811
     31 H6          0.1400    0.2770    7.8220 hc        1 1B6      0.074811
     32 H7         -0.9720    1.5570    8.4890 hc        1 1B6      0.074811
     33 H8         -3.5280   -0.0460    8.4940 hc        1 1B6      0.074811
     34 H9         -4.1060    0.2830    6.8110 hc        1 1B6      0.074811
     35 H10        -3.4010    1.6270    7.8190 hc        1 1B6      0.074811
     36 H11         6.2560    0.3500   -0.5940 h5        1 1B6      0.078100
     37 H12        -2.6020   -1.5670    5.9210 hc        1 1B6      0.074811
     38 H13        -0.8460   -1.6160    6.4090 hc        1 1B6      0.074811
     39 H14        -2.1440   -1.8880    7.6440 hc        1 1B6      0.074811
     40 H15         7.5900    0.2610    2.2570 h1        1 1B6      0.067700
     41 H16         7.4320    1.8730    1.4120 h1        1 1B6      0.067700
     42 H17         6.2950    2.8770    3.2990 hc        1 1B6      0.064700
     43 H18         7.6630    1.9120    3.9920 hc        1 1B6      0.064700
     44 H19         5.5400    1.5870    5.2870 hc        1 1B6      0.056200
     45 H20         6.1200    0.0460    4.5410 hc        1 1B6      0.056200
     46 H21         3.7450    1.8370    3.7150 hc        1 1B6      0.077200
     47 H22         3.7640    0.0760    4.1320 hc        1 1B6      0.077200
     48 H122       -1.4010    1.9700    6.1390 hn        1 1B6      0.446300
@<TRIPOS>BOND
     1    1    2 ar  
     2    1    6 ar  
     3    2    3 ar  
     4    2   26 1   
     5    3    4 ar  
     6    3   10 1   
     7    4    5 ar  
     8    5    6 ar  
     9    5    7 1   
    10    6    9 1   
    11    7    8 2   
    12    7   11 1   
    13    8    9 1   
    14    8   27 1   
    15    9   28 1   
    16   10   17 1   
    17   10   20 2   
    18   11   12 1   
    19   11   13 2   
    20   12   14 1   
    21   12   29 1   
    22   12   48 1   
    23   14   15 1   
    24   14   16 1   
    25   14   21 1   
    26   15   30 1   
    27   15   31 1   
    28   15   32 1   
    29   16   33 1   
    30   16   34 1   
    31   16   35 1   
    32   17   18 2   
    33   18   19 1   
    34   18   36 1   
    35   19   20 1   
    36   19   22 1   
    37   20   25 1   
    38   21   37 1   
    39   21   38 1   
    40   21   39 1   
    41   22   23 1   
    42   22   40 1   
    43   22   41 1   
    44   23   24 1   
    45   23   42 1   
    46   23   43 1   
    47   24   25 1   
    48   24   44 1   
    49   24   45 1   
    50   25   46 1   
    51   25   47 1   
@<TRIPOS>SUBSTRUCTURE
     1 1B6         1 TEMP              0 ****  ****    0 ROOT
