@<TRIPOS>MOLECULE
1B7
   52    54     1     0     0
SMALL
bcc


@<TRIPOS>ATOM
      1 C1          0.2000    0.9010    0.7220 cu        1 1B7     -0.233400
      2 C3         -0.5990    1.2100    2.8610 ce        1 1B7     -0.243800
      3 C4          0.7230    0.8460    2.9880 cf        1 1B7     -0.016000
      4 C5          1.1940    0.6770    1.6390 cf        1 1B7     -0.210200
      5 C6          1.5130    0.4580    0.2150 cx        1 1B7      0.246100
      6 C7         -2.2810    0.4680    1.1980 c3        1 1B7     -0.079400
      7 C8         -3.3790    0.8690    2.2210 c3        1 1B7      0.156200
      8 C10        -1.6690    1.3330    3.8650 ce        1 1B7      0.668500
      9 C11        -4.0970    2.1190    1.6690 c3        1 1B7     -0.083100
     10 C12        -4.4090   -0.2790    2.2220 c3        1 1B7     -0.083100
     11 C15         0.5750   -0.4710    7.2010 c         1 1B7      0.648300
     12 C18         2.2900   -2.1020    7.7880 ce        1 1B7      0.037800
     13 C19         2.9200   -3.1090    8.5960 cc        1 1B7     -0.125800
     14 C20         2.4650   -3.5920    9.8160 cd        1 1B7     -0.156100
     15 C23         4.1520   -3.7590    8.2130 cc        1 1B7     -0.066300
     16 Cl1         1.7340   -1.1420   -0.4260 cl        1 1B7     -0.185400
     17 C2         -1.0500    1.3220    1.3840 c3        1 1B7      0.066700
     18 N9         -2.9320    1.1110    3.5860 n2        1 1B7     -0.678900
     19 N13        -1.2640    1.7450    5.1480 nv        1 1B7     -0.875800
     20 C14         1.1300   -1.4880    8.0900 cf        1 1B7     -0.284200
     21 S21         3.4710   -4.7500   10.4400 ss        1 1B7      0.083200
     22 C22         4.5410   -4.6810    9.1630 cd        1 1B7     -0.191100
     23 C24         4.8810   -3.4630    6.9710 c3        1 1B7     -0.042800
     24 C26        -2.8340    0.2320    8.3000 c3        1 1B7     -0.108100
     25 C27        -1.4950   -0.4530    8.4490 c3        1 1B7      0.137400
     26 H1         -1.2720    2.3980    1.1380 hc        1 1B7      0.104700
     27 H2          1.2990    0.6870    3.9020 ha        1 1B7      0.184000
     28 H3          2.1850    1.1410   -0.3420 h1        1 1B7      0.097700
     29 H4         -2.6790    0.5880    0.1580 hc        1 1B7      0.058200
     30 H5         -2.0170   -0.6120    1.3390 hc        1 1B7      0.058200
     31 H6         -3.3870    2.9730    1.5710 hc        1 1B7      0.038033
     32 H7         -4.5220    1.8860    0.6640 hc        1 1B7      0.038033
     33 H8         -4.9300    2.4210    2.3480 hc        1 1B7      0.038033
     34 H9         -4.7530   -0.4580    1.1750 hc        1 1B7      0.038033
     35 H10        -5.2900   -0.0130    2.8520 hc        1 1B7      0.038033
     36 H11        -3.9560   -1.2190    2.6170 hc        1 1B7      0.038033
     37 H12        -1.5930   -1.5650    8.3350 h1        1 1B7      0.039700
     38 H13         2.8220   -1.8360    6.8520 ha        1 1B7      0.154000
     39 H14         1.5570   -3.2590   10.3190 h4        1 1B7      0.173000
     40 H15        -1.9210    1.5700    5.8810 hn        1 1B7      0.407300
     41 H16         0.5720   -1.7180    9.0090 ha        1 1B7      0.142000
     42 H18         5.4350   -5.3010    9.1050 h4        1 1B7      0.178000
     43 H19         4.2350   -3.6680    6.0810 hc        1 1B7      0.052033
     44 H20         5.8030   -4.0900    6.8910 hc        1 1B7      0.052033
     45 H21        -2.7170    1.3400    8.3800 hc        1 1B7      0.055700
     46 H22         5.1830   -2.3850    6.9440 hc        1 1B7      0.052033
     47 H23        -3.2840   -0.0000    7.3050 hc        1 1B7      0.055700
     48 H24        -3.5190   -0.1240    9.1060 hc        1 1B7      0.055700
     49 H25        -1.0220   -0.2110    9.4370 h1        1 1B7      0.039700
     50 O16        -0.6720    0.0670    7.3980 os        1 1B7     -0.437900
     51 H132       -0.3420    1.4360    5.3890 hn        1 1B7      0.407300
     52 O17         1.1170    0.0290    6.2050 o         1 1B7     -0.537000
@<TRIPOS>BOND
     1    1    4 2   
     2    1    5 1   
     3    1   17 1   
     4    2    3 2   
     5    2    8 1   
     6    2   17 1   
     7    3    4 1   
     8    3   27 1   
     9    4    5 1   
    10    5   16 1   
    11    5   28 1   
    12    6    7 1   
    13    6   17 1   
    14    6   29 1   
    15    6   30 1   
    16    7    9 1   
    17    7   10 1   
    18    7   18 1   
    19    8   18 2   
    20    8   19 1   
    21    9   31 1   
    22    9   32 1   
    23    9   33 1   
    24   10   34 1   
    25   10   35 1   
    26   10   36 1   
    27   11   20 1   
    28   11   50 1   
    29   11   52 2   
    30   12   13 1   
    31   12   20 2   
    32   12   38 1   
    33   13   14 2   
    34   13   15 1   
    35   14   21 1   
    36   14   39 1   
    37   15   22 2   
    38   15   23 1   
    39   17   26 1   
    40   19   40 1   
    41   19   51 1   
    42   20   41 1   
    43   21   22 1   
    44   22   42 1   
    45   23   43 1   
    46   23   44 1   
    47   23   46 1   
    48   24   25 1   
    49   24   45 1   
    50   24   47 1   
    51   24   48 1   
    52   25   37 1   
    53   25   49 1   
    54   25   50 1   
@<TRIPOS>SUBSTRUCTURE
     1 1B7         1 TEMP              0 ****  ****    0 ROOT
