@<TRIPOS>MOLECULE
1B7
   51    53     1     0     0
SMALL
bcc


@<TRIPOS>ATOM
      1 C1          4.4230   -0.2600    0.4500 ca        1 1B7     -0.140000
      2 C3          2.0180    0.0780    0.5980 ca        1 1B7     -0.157900
      3 C4          1.9440   -0.9480    1.5440 ca        1 1B7     -0.083000
      4 C5          3.0950   -1.6190    1.9570 ca        1 1B7     -0.142000
      5 C6          4.3300   -1.2670    1.4120 ca        1 1B7      0.023400
      6 C7          3.3440    1.4650   -1.0020 c3        1 1B7     -0.065100
      7 C8          2.0350    1.5430   -1.8270 c3        1 1B7      0.163200
      8 C10         0.8160    0.8490    0.1170 ce        1 1B7      0.676800
      9 C11         2.0890    2.8610   -2.6240 c3        1 1B7     -0.083100
     10 C12         2.0490    0.3920   -2.8500 c3        1 1B7     -0.083100
     11 C15        -1.6350    2.5090    2.1080 c         1 1B7      0.902600
     12 C18        -2.7840    0.8970    0.6020 c3        1 1B7     -0.013100
     13 C19        -2.9430    0.1990   -0.6880 cc        1 1B7     -0.064300
     14 C20        -2.3850    0.5790   -1.8880 cd        1 1B7     -0.135100
     15 C23        -3.7710   -0.9780   -0.8550 cc        1 1B7     -0.102300
     16 CL1         5.7430   -2.0800    1.9170 cl        1 1B7     -0.125400
     17 C2          3.2670    0.4060    0.0360 ca        1 1B7     -0.045300
     18 N9          0.8320    1.5280   -1.0100 n2        1 1B7     -0.686900
     19 N13        -0.3310    0.7180    0.9100 nh        1 1B7     -0.765200
     20 C14        -1.4540    1.6390    0.8020 c3        1 1B7      0.050500
     21 S21        -2.8340   -0.4390   -3.1460 ss        1 1B7     -0.081800
     22 C22        -3.7820   -1.4090   -2.1630 cd        1 1B7     -0.180100
     23 C24        -4.4970   -1.6470    0.2450 c3        1 1B7     -0.010100
     24 C26        -5.7050   -0.8500    0.7020 c3        1 1B7     -0.082400
     25 C27        -6.4250   -1.5450    1.8290 c3        1 1B7     -0.090100
     26 H1          5.3960    0.0090    0.0140 ha        1 1B7      0.138000
     27 H2          0.9780   -1.2520    1.9800 ha        1 1B7      0.158000
     28 H3          3.0240   -2.4180    2.7090 ha        1 1B7      0.141000
     29 H4          4.2060    1.2780   -1.6940 hc        1 1B7      0.054200
     30 H5          3.5220    2.4540   -0.4970 hc        1 1B7      0.054200
     31 H6          3.0280    2.8840   -3.2260 hc        1 1B7      0.032867
     32 H7          1.2140    2.9320   -3.3130 hc        1 1B7      0.032867
     33 H8          2.0750    3.7410   -1.9380 hc        1 1B7      0.032867
     34 H9          2.1000   -0.5920   -2.3280 hc        1 1B7      0.032867
     35 H10         1.1270    0.4180   -3.4780 hc        1 1B7      0.032867
     36 H11         2.9380    0.4930   -3.5160 hc        1 1B7      0.032867
     37 H12        -3.5900    1.6820    0.6890 hc        1 1B7      0.063200
     38 H13        -2.9330    0.1700    1.4450 hc        1 1B7      0.063200
     39 H14        -1.7070    1.4210   -2.0290 h4        1 1B7      0.194000
     40 H15        -0.0990    0.5920    1.8860 hn        1 1B7      0.424800
     41 H16        -1.3170    2.3610   -0.0490 h1        1 1B7      0.075700
     42 H18        -4.3260   -2.2700   -2.5400 h4        1 1B7      0.151000
     43 H19        -4.8310   -2.6660   -0.0880 hc        1 1B7      0.041700
     44 H20        -3.7990   -1.7920    1.1150 hc        1 1B7      0.041700
     45 H21        -5.3680    0.1680    1.0360 hc        1 1B7      0.050200
     46 H22        -6.4050   -0.7030   -0.1610 hc        1 1B7      0.050200
     47 H23        -7.3110   -0.9470    2.1500 hc        1 1B7      0.026367
     48 H24        -6.7780   -2.5560    1.5100 hc        1 1B7      0.026367
     49 H25        -5.7480   -1.6710    2.7090 hc        1 1B7      0.026367
     50 O17        -0.9800    2.1860    3.1380 o         1 1B7     -0.828800
     51 O16        -2.4410    3.4720    2.0270 o         1 1B7     -0.828800
@<TRIPOS>BOND
     1    1    5 ar  
     2    1   17 ar  
     3    1   26 1   
     4    2    3 ar  
     5    2    8 1   
     6    2   17 ar  
     7    3    4 ar  
     8    3   27 1   
     9    4    5 ar  
    10    4   28 1   
    11    5   16 1   
    12    6    7 1   
    13    6   17 1   
    14    6   29 1   
    15    6   30 1   
    16    7    9 1   
    17    7   10 1   
    18    7   18 1   
    19    8   18 2   
    20    8   19 1   
    21    9   31 1   
    22    9   32 1   
    23    9   33 1   
    24   10   34 1   
    25   10   35 1   
    26   10   36 1   
    27   11   20 1   
    28   11   50 1   
    29   11   51 1   
    30   12   13 1   
    31   12   20 1   
    32   12   37 1   
    33   12   38 1   
    34   13   14 2   
    35   13   15 1   
    36   14   21 1   
    37   14   39 1   
    38   15   22 2   
    39   15   23 1   
    40   19   20 1   
    41   19   40 1   
    42   20   41 1   
    43   21   22 1   
    44   22   42 1   
    45   23   24 1   
    46   23   43 1   
    47   23   44 1   
    48   24   25 1   
    49   24   45 1   
    50   24   46 1   
    51   25   47 1   
    52   25   48 1   
    53   25   49 1   
@<TRIPOS>SUBSTRUCTURE
     1 1B7         1 TEMP              0 ****  ****    0 ROOT
