@<TRIPOS>MOLECULE
1B7
   51    45     1     0     0
SMALL
bcc


@<TRIPOS>ATOM
      1 C1          0.1260    1.2580   -5.5540 c1        1 1B7     -0.140000
      2 C3          0.2310    0.7470   -3.2030 c1        1 1B7     -0.078000
      3 C4          1.4890    1.3840   -3.1340 c1        1 1B7     -0.114000
      4 C5          2.0470    1.9480   -4.2760 c1        1 1B7     -0.114000
      5 C6          1.3660    1.8850   -5.4860 c1        1 1B7     -0.055000
      6 C7         -1.7700   -0.0650   -4.4840 c3        1 1B7     -0.152000
      7 C8         -2.2150   -0.9300   -3.2970 c3        1 1B7      0.039000
      8 C10        -0.3700    0.0960   -1.9570 c2        1 1B7      0.151000
      9 C11        -3.7480   -0.9590   -3.2560 c3        1 1B7     -0.201000
     10 C12        -1.8480   -2.4060   -3.5250 c3        1 1B7     -0.201000
     11 C15        -1.0270    1.7270    0.4450 c1        1 1B7      0.325000
     12 C18         0.6320    0.3610    1.6780 c3        1 1B7     -0.088000
     13 C19        -0.0940   -0.1000    2.9570 c2        1 1B7     -0.083000
     14 C20        -1.5370   -0.1880    3.1340 c1        1 1B7     -0.398000
     15 C23         0.6070   -0.5630    4.3150 c1        1 1B7     -0.093000
     16 CL1         2.0700    2.5880   -6.9220 cl        1 1B7     -0.045000
     17 C2         -0.4410    0.6860   -4.3960 c1        1 1B7     -0.037000
     18 N9         -1.6710   -0.5090   -2.0200 n2        1 1B7     -0.268000
     19 N13         0.3500    0.1330   -0.7040 n3        1 1B7     -0.273000
     20 C14        -0.3500    0.3780    0.5140 c3        1 1B7     -0.078000
     21 O17        -0.3400    2.7670    0.2520 o         1 1B7     -0.571000
     22 O16        -2.2740    1.8190    0.6260 os        1 1B7     -0.558000
     23 S21        -1.8120   -0.7000    4.5790 ss        1 1B7      0.467000
     24 C22        -0.4340   -0.9170    5.2700 c1        1 1B7     -0.462000
     25 C24         1.9330   -0.9840    4.9730 c2        1 1B7     -0.095000
     26 C26         2.4010    0.1220    5.9390 c3        1 1B7     -0.160000
     27 C27         3.3960   -0.4680    6.9510 c3        1 1B7     -0.208000
     28 H1         -0.3560    1.2140   -6.4100 ha        1 1B7      0.139000
     29 H2          1.9950    1.3780   -2.2950 ha        1 1B7      0.150500
     30 H3          2.9210    2.3900   -4.2280 ha        1 1B7      0.150500
     31 H4         -2.4770    0.6030   -4.6440 hc        1 1B7      0.093000
     32 H5         -1.7270   -0.6490   -5.2740 hc        1 1B7      0.093000
     33 H6         -4.0460   -1.5070   -2.4950 hc        1 1B7      0.072333
     34 H7         -4.0900   -0.0430   -3.1550 hc        1 1B7      0.072333
     35 H8         -4.0900   -1.3460   -4.0920 hc        1 1B7      0.072333
     36 H9         -0.9120   -2.4690   -3.8180 hc        1 1B7      0.072333
     37 H10        -1.9630   -2.9070   -2.6840 hc        1 1B7      0.072333
     38 H11        -2.4340   -2.7860   -4.2160 hc        1 1B7      0.072333
     39 H12         1.3660   -0.2590    1.4770 hc        1 1B7      0.086500
     40 H13         0.9940    1.2640    1.8140 hc        1 1B7      0.086500
     41 H14        -2.2160    0.0350    2.4620 DU        1 1B7      0.193000
     42 H15         1.2520   -0.0390   -0.6870 hn        1 1B7      0.230000
     43 H16        -1.0280   -0.3220    0.6480 h1        1 1B7      0.116000
     44 H18        -0.2920   -1.2360    6.1860 DU        1 1B7      0.193000
     45 H19         1.8000   -1.8210    5.4730 ha        1 1B7      0.080500
     46 H20         2.6150   -1.1220    4.2780 ha        1 1B7      0.080500
     47 H21         1.6250    0.4900    6.4180 hc        1 1B7      0.087000
     48 H22         2.8410    0.8400    5.4270 hc        1 1B7      0.087000
     49 H23         3.6890   -0.9370    6.1410 hc        1 1B7      0.064000
     50 H24         3.4410    0.4850    7.2100 hc        1 1B7      0.064000
     51 H25         4.3720   -0.3680    7.0450 hc        1 1B7      0.064000
@<TRIPOS>BOND
     1    1    5 1   
     2    1   28 1   
     3    2    8 1   
     4    2   17 1   
     5    3    4 1   
     6    3   29 1   
     7    4   30 1   
     8    6    7 1   
     9    6   17 1   
    10    6   31 1   
    11    6   32 1   
    12    7    9 1   
    13    7   10 1   
    14    7   18 1   
    15    8   18 1   
    16    8   19 1   
    17    9   33 1   
    18    9   34 1   
    19    9   35 1   
    20   10   36 1   
    21   10   37 1   
    22   10   38 1   
    23   11   20 1   
    24   11   21 1   
    25   12   13 1   
    26   12   20 1   
    27   12   39 1   
    28   12   40 1   
    29   13   14 1   
    30   13   15 1   
    31   14   23 1   
    32   15   24 1   
    33   19   20 1   
    34   19   42 1   
    35   20   43 1   
    36   23   24 1   
    37   25   26 1   
    38   25   45 1   
    39   25   46 1   
    40   26   27 1   
    41   26   47 1   
    42   26   48 1   
    43   27   49 1   
    44   27   50 1   
    45   27   51 1   
@<TRIPOS>SUBSTRUCTURE
     1 1B7         1 TEMP              0 ****  ****    0 ROOT
