@<TRIPOS>MOLECULE
1B7
   52    51     1     0     0
SMALL
bcc


@<TRIPOS>ATOM
      1 C1         -0.7630    0.8250   -0.2480 c1        1 1B7     -0.132000
      2 C3          0.3920    0.1320    1.7420 c2        1 1B7     -0.217000
      3 C4          1.4710   -0.0970    0.9630 c2        1 1B7     -0.145000
      4 C5          1.5400    0.0920   -0.4230 c1        1 1B7     -0.046000
      5 C6         -0.6570    0.8150   -1.4460 c1        1 1B7     -0.169000
      6 C7         -2.1380    0.2080    1.7030 c3        1 1B7     -0.163000
      7 C8         -1.9620   -0.9660    2.6980 c3        1 1B7      0.030000
      8 C10         0.2710   -0.3100    3.1550 c2        1 1B7      0.150000
      9 C11        -3.2810   -1.0830    3.4860 c3        1 1B7     -0.204000
     10 C12        -1.8080   -2.2630    1.8810 c3        1 1B7     -0.204000
     11 C15        -1.5550    2.1520    6.8120 cu        1 1B7      0.279000
     12 C18         1.6590   -0.4980    6.9080 c1        1 1B7     -0.149000
     13 C19         1.4710   -1.8200    7.2930 c2        1 1B7     -0.219000
     14 C20         0.7910   -2.7480    6.4800 c2        1 1B7     -0.333000
     15 C23         1.8980   -2.4630    8.5270 c2        1 1B7     -0.003000
     16 CL1        -0.5820    0.8170   -3.0380 cl        1 1B7      0.182000
     17 C2         -0.8280    0.8140    1.1930 c3        1 1B7      0.060000
     18 N9         -0.8590   -0.7830    3.6350 n2        1 1B7     -0.295000
     19 N13         1.4330   -0.2430    3.9320 n3        1 1B7     -0.362000
     20 C14        -1.3410    0.7670    6.4500 cx        1 1B7     -0.077000
     21 S21         0.7060   -4.2300    7.1600 ss        1 1B7      0.668000
     22 C22         1.5270   -3.7880    8.5530 c2        1 1B7     -0.512000
     23 C24         2.6070   -1.7510    9.5960 c3        1 1B7     -0.208000
     24 C26        -0.8070    0.5010   11.0000 c3        1 1B7     -0.311000
     25 C27         0.6210    0.6350   10.9530 c1        1 1B7     -0.084000
     26 H1         -0.7910    1.8950    1.5420 hc        1 1B7      0.112000
     27 H2          2.3670   -0.6180    1.3700 ha        1 1B7      0.185000
     28 H3          1.9660    0.9700   -0.9090 ha        1 1B7      0.109000
     29 H4         -2.7210    1.0220    2.2100 hc        1 1B7      0.092000
     30 H5         -2.7560   -0.1530    0.8410 hc        1 1B7      0.092000
     31 H6         -4.1250   -1.1930    2.7660 hc        1 1B7      0.076500
     32 H7         -3.4580   -0.1760    4.1110 hc        1 1B7      0.076500
     33 H8         -3.2570   -1.9770    4.1540 hc        1 1B7      0.076500
     34 H9         -1.6960   -3.1420    2.5580 hc        1 1B7      0.076500
     35 H10        -2.7150   -2.4170    1.2480 hc        1 1B7      0.076500
     36 H11        -0.9130   -2.1990    1.2180 hc        1 1B7      0.076500
     37 H12         2.2270    0.1590    7.5800 ha        1 1B7      0.064000
     38 H13        -0.3130    0.3470    6.3540 h1        1 1B7      0.171500
     39 H14         0.3740   -2.4770    5.5020 h4        1 1B7      0.212000
     40 H15         1.3320   -0.3560    4.9350 hn        1 1B7      0.218000
     41 H16        -2.1320    0.1820    5.9440 h1        1 1B7      0.171500
     42 H18         1.7250   -4.4880    9.3630 h4        1 1B7      0.177000
     43 H19         3.4850   -1.1960    9.1790 hc        1 1B7      0.109333
     44 H20         2.9710   -2.4580   10.3800 hc        1 1B7      0.109333
     45 H21         1.9190   -0.9990   10.0820 hc        1 1B7      0.109333
     46 H22        -1.3660    1.2300   11.6400 hc        1 1B7      0.121333
     47 H23        -1.0950   -0.5400   11.2990 hc        1 1B7      0.121333
     48 H24        -1.1540    0.6400    9.9290 hc        1 1B7      0.121333
     49 H25         1.0440    1.5970   11.2840 ha        1 1B7      0.040000
     50 O16        -1.6960    1.2190    7.8190 os        1 1B7     -0.315000
     51 H132        2.0400    0.5000    3.6680 hn        1 1B7      0.218000
     52 O17        -1.6660    3.3540    6.8140 o         1 1B7     -0.236000
@<TRIPOS>BOND
     1    1    5 1   
     2    1   17 1   
     3    2    3 1   
     4    2    8 1   
     5    2   17 1   
     6    3    4 1   
     7    3   27 1   
     8    4   28 1   
     9    5   16 1   
    10    6    7 1   
    11    6   17 1   
    12    6   29 1   
    13    6   30 1   
    14    7    9 1   
    15    7   10 1   
    16    7   18 1   
    17    8   18 1   
    18    8   19 1   
    19    9   31 1   
    20    9   32 1   
    21    9   33 1   
    22   10   34 1   
    23   10   35 1   
    24   10   36 1   
    25   11   20 1   
    26   11   50 1   
    27   11   52 1   
    28   12   13 1   
    29   12   37 1   
    30   13   14 1   
    31   13   15 1   
    32   14   21 1   
    33   14   39 1   
    34   15   22 1   
    35   15   23 1   
    36   17   26 1   
    37   19   40 1   
    38   19   51 1   
    39   20   38 1   
    40   20   41 1   
    41   20   50 1   
    42   21   22 1   
    43   22   42 1   
    44   23   43 1   
    45   23   44 1   
    46   23   45 1   
    47   24   25 1   
    48   24   46 1   
    49   24   47 1   
    50   24   48 1   
    51   25   49 1   
@<TRIPOS>SUBSTRUCTURE
     1 1B7         1 TEMP              0 ****  ****    0 ROOT
