@<TRIPOS>MOLECULE
1B7
   52    51     1     0     0
SMALL
bcc


@<TRIPOS>ATOM
      1 C1          1.5810   -0.6230    0.5650 c1        1 1B7     -0.266000
      2 C3          0.3490    0.3560    2.3650 c2        1 1B7     -0.133000
      3 C4          1.5380    0.1050    3.1620 c2        1 1B7     -0.400000
      4 C5          2.6820   -0.3800    2.6970 c1        1 1B7      0.119000
      5 C6          2.7130   -1.1760    0.2370 c2        1 1B7     -0.022000
      6 C7         -4.4550   -0.3330    0.5220 c3        1 1B7     -0.209000
      7 C8         -3.1310    0.7240    2.3450 c2        1 1B7      0.026000
      8 C10        -0.8040    0.9410    2.8700 c2        1 1B7      0.125000
      9 C11        -4.2520    0.9150    1.3440 c3        1 1B7     -0.135000
     10 C12        -3.5980    0.1180    3.6340 c3        1 1B7     -0.245000
     11 C15        -0.6630   -0.4250    6.9890 c2        1 1B7      0.318000
     12 C18        -0.0670   -2.7320    7.7210 c3        1 1B7     -0.095000
     13 C19         1.3340   -2.7220    7.2590 c2        1 1B7     -0.090000
     14 C20         2.0460   -3.8890    7.0250 c2        1 1B7     -0.466000
     15 C23         2.1320   -1.5690    6.9550 c2        1 1B7     -0.150000
     16 CL1         2.9550   -2.8620    0.2220 cl        1 1B7     -0.047000
     17 C2          0.4720   -0.0510    0.9730 c2        1 1B7      0.027000
     18 N9         -1.9330    1.0710    2.0070 n2        1 1B7     -0.169000
     19 N13        -0.8400    1.5590    4.1270 n3        1 1B7     -0.329000
     20 C14        -0.6160   -1.3830    8.1350 c3        1 1B7     -0.195000
     21 S21         3.5770   -3.5830    6.4630 ss        1 1B7      0.652000
     22 C22         3.3900   -1.9370    6.5050 c2        1 1B7     -0.438000
     23 C24         1.7260   -0.1580    7.1220 c3        1 1B7      0.044000
     24 C26         1.6100    0.6370   10.6610 c2        1 1B7     -0.224000
     25 C27         0.5710    0.0260   11.2150 c2        1 1B7     -0.224000
     26 H1         -0.3500    0.1600    0.2700 ha        1 1B7      0.161000
     27 H2          1.5050    0.2910    4.2550 ha        1 1B7      0.175000
     28 H3          3.6070   -0.6210   -0.0850 h4        1 1B7      0.164000
     29 H4         -3.5370   -0.5690   -0.0680 hc        1 1B7      0.079667
     30 H5         -4.6890   -1.2080    1.1760 hc        1 1B7      0.079667
     31 H6         -5.3050   -0.1860   -0.1880 hc        1 1B7      0.079667
     32 H7         -4.0380    1.7820    0.6630 hc        1 1B7      0.099000
     33 H8         -5.1880    1.1590    1.9130 hc        1 1B7      0.099000
     34 H9         -3.9860    0.9250    4.3050 hc        1 1B7      0.102333
     35 H10        -4.4280   -0.6050    3.4360 hc        1 1B7      0.102333
     36 H11        -2.7840   -0.4290    4.1730 hc        1 1B7      0.102333
     37 H12        -0.0030   -0.9440    8.9700 hc        1 1B7      0.124000
     38 H13        -0.1570   -3.4290    8.6000 hc        1 1B7      0.105000
     39 H14         1.6550   -4.8940    7.1780 h4        1 1B7      0.175000
     40 H15        -1.7120    1.5060    4.6140 hn        1 1B7      0.204000
     41 H16        -1.6650   -1.5180    8.5160 hc        1 1B7      0.124000
     42 H18         4.1700   -1.2400    6.1950 h4        1 1B7      0.180000
     43 H19         1.6850    0.1190    8.2130 h1        1 1B7      0.109500
     44 H20         2.4420    0.5310    6.5880 h1        1 1B7      0.109500
     45 H21         0.6270   -0.9990   11.6080 ha        1 1B7      0.113000
     46 H22        -0.7130   -3.1540    6.9000 hc        1 1B7      0.105000
     47 H23         1.5580    1.6660   10.2770 ha        1 1B7      0.113000
     48 H24         2.5940    0.1600   10.5590 ha        1 1B7      0.113000
     49 H25        -0.4100    0.5060   11.3270 ha        1 1B7      0.113000
     50 O16        -1.6690   -0.0520    6.3760 o         1 1B7     -0.342000
     51 H132       -0.0670    1.3510    4.7220 hn        1 1B7      0.204000
     52 O17         0.4760    0.1640    6.5040 os        1 1B7     -0.270000
@<TRIPOS>BOND
     1    1    5 1   
     2    1   17 1   
     3    2    3 1   
     4    2    8 1   
     5    2   17 1   
     6    3    4 1   
     7    3   27 1   
     8    5   16 1   
     9    5   28 1   
    10    6    9 1   
    11    6   29 1   
    12    6   30 1   
    13    6   31 1   
    14    7    9 1   
    15    7   10 1   
    16    7   18 1   
    17    8   18 1   
    18    8   19 1   
    19    9   32 1   
    20    9   33 1   
    21   10   34 1   
    22   10   35 1   
    23   10   36 1   
    24   11   20 1   
    25   11   50 1   
    26   11   52 1   
    27   12   13 1   
    28   12   20 1   
    29   12   38 1   
    30   12   46 1   
    31   13   14 1   
    32   13   15 1   
    33   14   21 1   
    34   14   39 1   
    35   15   22 1   
    36   15   23 1   
    37   17   26 1   
    38   19   40 1   
    39   19   51 1   
    40   20   37 1   
    41   20   41 1   
    42   21   22 1   
    43   22   42 1   
    44   23   43 1   
    45   23   44 1   
    46   23   52 1   
    47   24   25 1   
    48   24   47 1   
    49   24   48 1   
    50   25   45 1   
    51   25   49 1   
@<TRIPOS>SUBSTRUCTURE
     1 1B7         1 TEMP              0 ****  ****    0 ROOT
