@<TRIPOS>MOLECULE
1B8
   50    53     1     0     0
SMALL
bcc


@<TRIPOS>ATOM
      1 Cl1         3.8070   -3.3260   -3.0540 cl        1 1B8     -0.072400
      2 C2          4.2890   -2.1410   -1.9400 ca        1 1B8      0.047400
      3 C3          4.3880   -2.4570   -0.5830 ca        1 1B8     -0.123000
      4 C4          4.7860   -1.4810    0.3310 ca        1 1B8     -0.081000
      5 C7          4.5810   -0.8490   -2.3910 ca        1 1B8     -0.138000
      6 C6          4.9770    0.1290   -1.4800 ca        1 1B8     -0.038300
      7 C5          5.0890   -0.1900   -0.1090 ca        1 1B8     -0.205900
      8 C11         5.3060    1.4970   -1.9600 c3        1 1B8     -0.068100
      9 C10         5.0750    2.5870   -0.8880 c3        1 1B8      0.147200
     10 C29         3.5830    2.9700   -0.8910 c3        1 1B8     -0.087600
     11 C28         5.8750    3.8320   -1.3140 c3        1 1B8     -0.087600
     12 N9          5.4940    2.1800    0.4520 n2        1 1B8     -0.572900
     13 C8          5.4920    0.9250    0.7790 ce        1 1B8      0.580800
     14 N12         5.9130    0.5860    2.1590 ny        1 1B8     -0.727000
     15 C13         7.1550   -0.2570    2.2330 c3        1 1B8     -0.044500
     16 C25         6.8280   -1.6190    3.0160 c         1 1B8      0.927600
     17 O26         7.7880   -2.3900    3.1650 o         1 1B8     -0.762800
     18 O27         5.6260   -1.7560    3.3800 o         1 1B8     -0.762800
     19 C14         8.3030    0.4220    2.9700 c3        1 1B8     -0.040100
     20 C15         8.7520    1.6970    2.3790 cc        1 1B8     -0.066300
     21 C16         8.3040    2.9570    2.7640 cd        1 1B8     -0.131000
     22 Br1         7.0510    3.3370    4.0510 br        1 1B8     -0.027100
     23 S17         9.0630    4.1720    1.9050 ss        1 1B8      0.125200
     24 C18         9.9820    3.1320    1.0140 cd        1 1B8     -0.186100
     25 C19         9.7500    1.8030    1.3460 cc        1 1B8     -0.008000
     26 C20        10.4340    0.7060    0.7330 cc        1 1B8     -0.207300
     27 C21        10.6330    0.4910   -0.6460 cd        1 1B8     -0.136300
     28 N22        11.4010   -0.6660   -0.7530 na        1 1B8     -0.018600
     29 N23        11.6990   -1.1930    0.4360 nd        1 1B8     -0.502800
     30 C24        11.1350   -0.3930    1.3750 cc        1 1B8      0.325200
     31 H1          4.1610   -3.4740   -0.2250 ha        1 1B8      0.169000
     32 H2          4.8600   -1.7720    1.3990 ha        1 1B8      0.202000
     33 H3          4.4980   -0.6020   -3.4610 ha        1 1B8      0.153000
     34 H4          4.6930    1.7510   -2.8650 hc        1 1B8      0.070700
     35 H5          6.3870    1.5100   -2.2740 hc        1 1B8      0.070700
     36 H6          3.3750    3.7550   -0.1260 hc        1 1B8      0.050200
     37 H7          3.3160    3.3740   -1.8970 hc        1 1B8      0.050200
     38 H8          2.9470    2.0770   -0.6810 hc        1 1B8      0.050200
     39 H9          5.6710    4.6830   -0.6220 hc        1 1B8      0.050200
     40 H10         5.5610    4.1190   -2.3450 hc        1 1B8      0.050200
     41 H11         6.9710    3.6230   -1.3160 hc        1 1B8      0.050200
     42 H12         5.1510    0.0140    2.5980 hn        1 1B8      0.470800
     43 H13         7.4650   -0.5310    1.1890 hx        1 1B8      0.102700
     44 H15         9.1440   -0.3320    2.9540 hc        1 1B8      0.099700
     45 H16         8.0250    0.5710    4.0490 hc        1 1B8      0.099700
     46 H17        10.7040    3.4580    0.2650 h4        1 1B8      0.179000
     47 H18        10.2950    1.0550   -1.5130 h4        1 1B8      0.174000
     48 H19        11.6930   -1.1160   -1.5890 hn        1 1B8      0.323700
     49 H20        11.2310   -0.5960    2.4420 h4        1 1B8      0.056100
     50 H122        6.0490    1.4420    2.7180 hn        1 1B8      0.470800
@<TRIPOS>BOND
     1    1    2 1   
     2    2    3 ar  
     3    2    5 ar  
     4    3    4 ar  
     5    3   31 1   
     6    4    7 ar  
     7    4   32 1   
     8    5    6 ar  
     9    5   33 1   
    10    6    7 ar  
    11    6    8 1   
    12    7   13 1   
    13    8    9 1   
    14    8   34 1   
    15    8   35 1   
    16    9   10 1   
    17    9   11 1   
    18    9   12 1   
    19   10   36 1   
    20   10   37 1   
    21   10   38 1   
    22   11   39 1   
    23   11   40 1   
    24   11   41 1   
    25   12   13 2   
    26   13   14 1   
    27   14   15 1   
    28   14   42 1   
    29   14   50 1   
    30   15   16 1   
    31   15   19 1   
    32   15   43 1   
    33   16   17 1   
    34   16   18 1   
    35   19   20 1   
    36   19   44 1   
    37   19   45 1   
    38   20   21 2   
    39   20   25 1   
    40   21   22 1   
    41   21   23 1   
    42   23   24 1   
    43   24   25 2   
    44   24   46 1   
    45   25   26 1   
    46   26   27 2   
    47   26   30 1   
    48   27   28 1   
    49   27   47 1   
    50   28   29 1   
    51   28   48 1   
    52   29   30 2   
    53   30   49 1   
@<TRIPOS>SUBSTRUCTURE
     1 1B8         1 TEMP              0 ****  ****    0 ROOT
