@<TRIPOS>MOLECULE
1B8
   49    52     1     0     0
SMALL
bcc


@<TRIPOS>ATOM
      1 CL1        -7.0130   -0.1000   -0.5180 cl        1 1B8     -0.124400
      2 C2         -5.3310    0.1750   -0.4390 ca        1 1B8      0.023400
      3 C3         -4.4510   -0.7290   -1.0360 ca        1 1B8     -0.142000
      4 C4         -3.0770   -0.4970   -0.9730 ca        1 1B8     -0.083000
      5 C7         -4.8480    1.3010    0.2310 ca        1 1B8     -0.140000
      6 C6         -3.4710    1.5270    0.2960 ca        1 1B8     -0.045300
      7 C5         -2.5760    0.6360   -0.3270 ca        1 1B8     -0.156900
      8 C11        -2.9420    2.7090    1.0220 c3        1 1B8     -0.066100
      9 C10        -1.5310    2.4360    1.6010 c3        1 1B8      0.162200
     10 C29        -0.9450    3.7990    2.0140 c3        1 1B8     -0.083600
     11 C28        -1.6970    1.6040    2.8870 c3        1 1B8     -0.083600
     12 N9         -0.6300    1.7940    0.6570 n2        1 1B8     -0.670900
     13 C8         -1.1060    0.9520   -0.2310 ce        1 1B8      0.672800
     14 N12        -0.2860    0.2280   -1.1070 nh        1 1B8     -0.770200
     15 C13         1.1010    0.5920   -1.3450 c3        1 1B8      0.059500
     16 C25         1.3460    1.0510   -2.8310 c         1 1B8      0.904600
     17 O26         2.4340    1.6560   -3.0560 o         1 1B8     -0.829800
     18 O27         0.4680    0.8010   -3.6980 o         1 1B8     -0.829800
     19 C14         2.0530   -0.5940   -1.0830 c3        1 1B8     -0.027100
     20 C15         2.3180   -0.8300    0.3500 cc        1 1B8     -0.008300
     21 C16         1.6470   -1.7440    1.1450 cd        1 1B8     -0.076000
     22 BR1         0.2960   -2.8910    0.6690 br        1 1B8     -0.050100
     23 S17         2.2200   -1.7430    2.7290 ss        1 1B8     -0.017800
     24 C18         3.3720   -0.5870    2.4250 cd        1 1B8     -0.183100
     25 C19         3.3550   -0.1540    1.1090 cc        1 1B8      0.011000
     26 C20         4.2850    0.8060    0.6060 cc        1 1B8     -0.227300
     27 C21         4.2380    1.6110   -0.5530 cd        1 1B8     -0.090300
     28 N22         5.4030    2.3720   -0.5420 na        1 1B8     -0.026600
     29 N23         6.1830    2.1200    0.5150 nd        1 1B8     -0.559800
     30 C24         5.5400    1.1750    1.2450 cc        1 1B8      0.299200
     31 H1         -4.8330   -1.6200   -1.5560 ha        1 1B8      0.141000
     32 H2         -2.4010   -1.2320   -1.4390 ha        1 1B8      0.159000
     33 H3         -5.5430    2.0060    0.7110 ha        1 1B8      0.138000
     34 H4         -2.8860    3.5760    0.3080 hc        1 1B8      0.053700
     35 H5         -3.6320    3.0010    1.8550 hc        1 1B8      0.053700
     36 H6         -1.6500    4.3000    2.7200 hc        1 1B8      0.034200
     37 H7          0.0390    3.6590    2.5210 hc        1 1B8      0.034200
     38 H8         -0.7980    4.4550    1.1240 hc        1 1B8      0.034200
     39 H9         -2.2020    0.6350    2.6610 hc        1 1B8      0.034200
     40 H10        -0.7020    1.3930    3.3440 hc        1 1B8      0.034200
     41 H11        -2.3170    2.1700    3.6220 hc        1 1B8      0.034200
     42 H12        -0.7440    0.0290   -1.9840 hn        1 1B8      0.425800
     43 H13         1.4200    1.4470   -0.6840 h1        1 1B8      0.081700
     44 H15         1.6400   -1.5240   -1.5560 hc        1 1B8      0.067200
     45 H16         3.0220   -0.3580   -1.6060 hc        1 1B8      0.067200
     46 H17         4.0520   -0.2140    3.1880 h4        1 1B8      0.161000
     47 H18         3.4910    1.7010   -1.3660 h4        1 1B8      0.262000
     48 H19         5.6840    3.0270   -1.2320 hn        1 1B8      0.317700
     49 H20         5.9480    0.7740    2.1710 h4        1 1B8      0.025100
@<TRIPOS>BOND
     1    1    2 1   
     2    2    3 ar  
     3    2    5 ar  
     4    3    4 ar  
     5    3   31 1   
     6    4    7 ar  
     7    4   32 1   
     8    5    6 ar  
     9    5   33 1   
    10    6    7 ar  
    11    6    8 1   
    12    7   13 1   
    13    8    9 1   
    14    8   34 1   
    15    8   35 1   
    16    9   10 1   
    17    9   11 1   
    18    9   12 1   
    19   10   36 1   
    20   10   37 1   
    21   10   38 1   
    22   11   39 1   
    23   11   40 1   
    24   11   41 1   
    25   12   13 2   
    26   13   14 1   
    27   14   15 1   
    28   14   42 1   
    29   15   16 1   
    30   15   19 1   
    31   15   43 1   
    32   16   17 1   
    33   16   18 1   
    34   19   20 1   
    35   19   44 1   
    36   19   45 1   
    37   20   21 2   
    38   20   25 1   
    39   21   22 1   
    40   21   23 1   
    41   23   24 1   
    42   24   25 2   
    43   24   46 1   
    44   25   26 1   
    45   26   27 2   
    46   26   30 1   
    47   27   28 1   
    48   27   47 1   
    49   28   29 1   
    50   28   48 1   
    51   29   30 2   
    52   30   49 1   
@<TRIPOS>SUBSTRUCTURE
     1 1B8         1 TEMP              0 ****  ****    0 ROOT
