@<TRIPOS>MOLECULE
1B8
   50    53     1     0     0
SMALL
bcc


@<TRIPOS>ATOM
      1 CL1         3.8050   -3.3360   -3.0470 cl        1 1B8     -0.072400
      2 C2          4.2880   -2.1530   -1.9320 ca        1 1B8      0.047400
      3 C3          4.4030   -2.4750   -0.5770 ca        1 1B8     -0.123000
      4 C4          4.8020   -1.5000    0.3380 ca        1 1B8     -0.081000
      5 C7          4.5660   -0.8570   -2.3800 ca        1 1B8     -0.138000
      6 C6          4.9630    0.1200   -1.4670 ca        1 1B8     -0.038300
      7 C5          5.0900   -0.2050   -0.0990 ca        1 1B8     -0.205900
      8 C11         5.2770    1.4930   -1.9430 c3        1 1B8     -0.068100
      9 C10         5.0470    2.5760   -0.8640 c3        1 1B8      0.147200
     10 C29         3.5510    2.9460   -0.8500 c3        1 1B8     -0.087600
     11 C28         5.8320    3.8290   -1.2910 c3        1 1B8     -0.087600
     12 N9          5.4810    2.1660    0.4700 n2        1 1B8     -0.573900
     13 C8          5.4940    0.9090    0.7910 ce        1 1B8      0.580800
     14 N12         5.9310    0.5670    2.1650 n4        1 1B8     -0.727000
     15 C13         7.1810   -0.2650    2.2230 c3        1 1B8     -0.044500
     16 C25         6.8740   -1.6350    2.9990 c         1 1B8      0.927600
     17 O26         7.8430   -2.3990    3.1330 o         1 1B8     -0.762800
     18 O27         5.6770   -1.7850    3.3750 o         1 1B8     -0.762800
     19 C14         8.3290    0.4190    2.9530 c3        1 1B8     -0.040100
     20 C15         8.7610    1.7020    2.3670 cc        1 1B8     -0.066300
     21 C16         8.3020    2.9550    2.7620 cd        1 1B8     -0.131000
     22 BR1         7.0530    3.3150    4.0590 br        1 1B8     -0.027100
     23 S17         9.0430    4.1840    1.9060 ss        1 1B8      0.125200
     24 C18         9.9670    3.1580    1.0030 cd        1 1B8     -0.186100
     25 C19         9.7520    1.8250    1.3290 cc        1 1B8     -0.008000
     26 C20        10.4440    0.7390    0.7060 cc        1 1B8     -0.207300
     27 C21        10.6370    0.5340   -0.6750 cd        1 1B8     -0.135300
     28 N22        11.4170   -0.6140   -0.7940 na        1 1B8     -0.018600
     29 N23        11.7270   -1.1450    0.3910 nd        1 1B8     -0.502800
     30 C24        11.1600   -0.3560    1.3370 cc        1 1B8      0.325200
     31 H1          4.1880   -3.4960   -0.2220 ha        1 1B8      0.169000
     32 H2          4.8890   -1.7970    1.4030 ha        1 1B8      0.202000
     33 H3          4.4700   -0.6050   -3.4470 ha        1 1B8      0.153000
     34 H4          6.3540    1.5160   -2.2680 hc        1 1B8      0.070700
     35 H5          4.6530    1.7460   -2.8410 hc        1 1B8      0.070700
     36 H6          2.9250    2.0470   -0.6390 hc        1 1B8      0.050033
     37 H7          3.3440    3.7260   -0.0790 hc        1 1B8      0.050033
     38 H8          3.2710    3.3530   -1.8510 hc        1 1B8      0.050033
     39 H9          5.6280    4.6750   -0.5930 hc        1 1B8      0.050033
     40 H10         5.5060    4.1190   -2.3180 hc        1 1B8      0.050033
     41 H11         6.9300    3.6300   -1.3040 hc        1 1B8      0.050033
     42 H12         5.1780   -0.0150    2.6080 hn        1 1B8      0.470800
     43 H13         7.4850   -0.5290    1.1730 hx        1 1B8      0.102700
     44 H15         9.1770   -0.3270    2.9250 hc        1 1B8      0.099700
     45 H16         8.0590    0.5590    4.0360 hc        1 1B8      0.099700
     46 H17        10.6810    3.4960    0.2520 h4        1 1B8      0.179000
     47 H18        10.2880    1.1000   -1.5380 h4        1 1B8      0.174000
     48 H19        11.7080   -1.0560   -1.6330 hn        1 1B8      0.323700
     49 H20        11.2640   -0.5640    2.4030 h4        1 1B8      0.056100
     50 H122        6.0640    1.4200    2.7270 hn        1 1B8      0.470800
@<TRIPOS>BOND
     1    1    2 1   
     2    2    3 ar  
     3    2    5 ar  
     4    3    4 ar  
     5    3   31 1   
     6    4    7 ar  
     7    4   32 1   
     8    5    6 ar  
     9    5   33 1   
    10    6    7 ar  
    11    6    8 1   
    12    7   13 1   
    13    8    9 1   
    14    8   34 1   
    15    8   35 1   
    16    9   10 1   
    17    9   11 1   
    18    9   12 1   
    19   10   36 1   
    20   10   37 1   
    21   10   38 1   
    22   11   39 1   
    23   11   40 1   
    24   11   41 1   
    25   12   13 2   
    26   13   14 1   
    27   14   15 1   
    28   14   42 1   
    29   14   50 1   
    30   15   16 1   
    31   15   19 1   
    32   15   43 1   
    33   16   17 1   
    34   16   18 1   
    35   19   20 1   
    36   19   44 1   
    37   19   45 1   
    38   20   21 2   
    39   20   25 1   
    40   21   22 1   
    41   21   23 1   
    42   23   24 1   
    43   24   25 2   
    44   24   46 1   
    45   25   26 1   
    46   26   27 2   
    47   26   30 1   
    48   27   28 1   
    49   27   47 1   
    50   28   29 1   
    51   28   48 1   
    52   29   30 2   
    53   30   49 1   
@<TRIPOS>SUBSTRUCTURE
     1 1B8         1 TEMP              0 ****  ****    0 ROOT
