@<TRIPOS>MOLECULE
1B8
   50    53     1     0     0
SMALL
bcc


@<TRIPOS>ATOM
      1 CL1         3.8590   -3.3390   -3.0840 cl        1 1B8     -0.072400
      2 C2          4.3260   -2.1570   -1.9610 ca        1 1B8      0.047400
      3 C3          4.4330   -2.4840   -0.6070 ca        1 1B8     -0.123000
      4 C4          4.8180   -1.5100    0.3150 ca        1 1B8     -0.081000
      5 C7          4.5980   -0.8570   -2.4010 ca        1 1B8     -0.138000
      6 C6          4.9810    0.1190   -1.4810 ca        1 1B8     -0.038300
      7 C5          5.1010   -0.2110   -0.1140 ca        1 1B8     -0.205900
      8 C11         5.2900    1.4960   -1.9490 c3        1 1B8     -0.068100
      9 C10         5.0450    2.5730   -0.8670 c3        1 1B8      0.147200
     10 C29         3.5480    2.9340   -0.8630 c3        1 1B8     -0.087600
     11 C28         5.8260    3.8320   -1.2830 c3        1 1B8     -0.087600
     12 N9          5.4730    2.1590    0.4680 n2        1 1B8     -0.572900
     13 C8          5.4910    0.9010    0.7840 ce        1 1B8      0.580800
     14 N12         5.9200    0.5550    2.1590 n4        1 1B8     -0.727000
     15 C13         7.1740   -0.2700    2.2230 c3        1 1B8     -0.044500
     16 C25         6.8680   -1.6440    2.9940 c         1 1B8      0.927600
     17 O26         7.8400   -2.4030    3.1340 o         1 1B8     -0.762800
     18 O27         5.6700   -1.8020    3.3590 o         1 1B8     -0.762800
     19 C14         8.3140    0.4180    2.9630 c3        1 1B8     -0.040100
     20 C15         8.7440    1.7040    2.3830 cc        1 1B8     -0.066300
     21 C16         8.2780    2.9550    2.7800 cd        1 1B8     -0.130000
     22 BR1         7.0230    3.3050    4.0730 br        1 1B8     -0.027100
     23 S17         9.0180    4.1880    1.9310 ss        1 1B8      0.125200
     24 C18         9.9500    3.1690    1.0280 cd        1 1B8     -0.186100
     25 C19         9.7370    1.8340    1.3490 cc        1 1B8     -0.008000
     26 C20        10.4360    0.7530    0.7250 cc        1 1B8     -0.207300
     27 C21        10.6340    0.5520   -0.6560 cd        1 1B8     -0.135300
     28 N22        11.4190   -0.5930   -0.7760 na        1 1B8     -0.018600
     29 N23        11.7270   -1.1260    0.4080 nd        1 1B8     -0.502800
     30 C24        11.1540   -0.3420    1.3550 cc        1 1B8      0.325200
     31 H1          4.2210   -3.5080   -0.2580 ha        1 1B8      0.169000
     32 H2          4.8990   -1.8110    1.3800 ha        1 1B8      0.202000
     33 H3          4.5090   -0.6010   -3.4680 ha        1 1B8      0.153000
     34 H4          4.6710    1.7490   -2.8500 hc        1 1B8      0.070700
     35 H5          6.3690    1.5280   -2.2660 hc        1 1B8      0.070700
     36 H6          3.2720    3.3430   -1.8640 hc        1 1B8      0.050200
     37 H7          2.9260    2.0300   -0.6600 hc        1 1B8      0.050200
     38 H8          3.3300    3.7080   -0.0890 hc        1 1B8      0.050200
     39 H9          5.5060    4.1250   -2.3110 hc        1 1B8      0.050200
     40 H10         5.6120    4.6740   -0.5820 hc        1 1B8      0.050200
     41 H11         6.9250    3.6400   -1.2890 hc        1 1B8      0.050200
     42 H12         5.1680   -0.0320    2.5950 hn        1 1B8      0.470800
     43 H13         7.4860   -0.5300    1.1750 hx        1 1B8      0.102700
     44 H15         9.1660   -0.3240    2.9380 hc        1 1B8      0.099700
     45 H16         8.0370    0.5530    4.0450 hc        1 1B8      0.099700
     46 H17        10.6650    3.5110    0.2800 h4        1 1B8      0.179000
     47 H18        10.2870    1.1190   -1.5180 h4        1 1B8      0.174000
     48 H19        11.7150   -1.0320   -1.6150 hn        1 1B8      0.323700
     49 H20        11.2550   -0.5530    2.4210 h4        1 1B8      0.056100
     50 H122        6.0450    1.4080    2.7260 hn        1 1B8      0.470800
@<TRIPOS>BOND
     1    1    2 1   
     2    2    3 ar  
     3    2    5 ar  
     4    3    4 ar  
     5    3   31 1   
     6    4    7 ar  
     7    4   32 1   
     8    5    6 ar  
     9    5   33 1   
    10    6    7 ar  
    11    6    8 1   
    12    7   13 1   
    13    8    9 1   
    14    8   34 1   
    15    8   35 1   
    16    9   10 1   
    17    9   11 1   
    18    9   12 1   
    19   10   36 1   
    20   10   37 1   
    21   10   38 1   
    22   11   39 1   
    23   11   40 1   
    24   11   41 1   
    25   12   13 2   
    26   13   14 1   
    27   14   15 1   
    28   14   42 1   
    29   14   50 1   
    30   15   16 1   
    31   15   19 1   
    32   15   43 1   
    33   16   17 1   
    34   16   18 1   
    35   19   20 1   
    36   19   44 1   
    37   19   45 1   
    38   20   21 2   
    39   20   25 1   
    40   21   22 1   
    41   21   23 1   
    42   23   24 1   
    43   24   25 2   
    44   24   46 1   
    45   25   26 1   
    46   26   27 2   
    47   26   30 1   
    48   27   28 1   
    49   27   47 1   
    50   28   29 1   
    51   28   48 1   
    52   29   30 2   
    53   30   49 1   
@<TRIPOS>SUBSTRUCTURE
     1 1B8         1 TEMP              0 ****  ****    0 ROOT
