@<TRIPOS>MOLECULE
1B8
   49    43     1     0     0
SMALL
bcc


@<TRIPOS>ATOM
      1 CL1        -5.9750   -3.4420   -2.1760 cl        1 1B8     -0.045000
      2 C2         -4.5870   -2.4030   -1.8380 c2        1 1B8     -0.055000
      3 C3         -3.9290   -2.5010   -0.6190 c2        1 1B8     -0.141000
      4 C4         -2.7980   -1.7350   -0.3760 c1        1 1B8     -0.087000
      5 C7         -4.1130   -1.5370   -2.8150 c1        1 1B8     -0.139000
      6 C6         -2.9590   -0.7540   -2.5690 c1        1 1B8     -0.037000
      7 C5         -2.3130   -0.8510   -1.3720 c1        1 1B8     -0.077000
      8 C11        -2.4980    0.2710   -3.6010 c3        1 1B8     -0.153000
      9 C10        -1.5110    1.3580   -3.1710 c3        1 1B8      0.036000
     10 C29        -0.7140    1.8310   -4.3980 c3        1 1B8     -0.201000
     11 C28        -2.2390    2.6580   -2.7910 c3        1 1B8     -0.201000
     12 N9         -0.6310    0.9680   -2.0880 n2        1 1B8     -0.250000
     13 C8         -1.0840    0.0270   -1.0940 c2        1 1B8      0.146000
     14 N12        -0.3660   -0.1160    0.1330 n3        1 1B8     -0.263000
     15 C13         1.0640   -0.0780    0.1310 c3        1 1B8     -0.075000
     16 C25         1.5920   -1.0580   -0.8830 c1        1 1B8      0.308000
     17 O26         2.5840   -0.7550   -1.5880 os        1 1B8     -0.525000
     18 O27         1.0900   -2.2020   -0.9690 o         1 1B8     -0.607000
     19 C14         1.5780   -0.4480    1.5070 c3        1 1B8     -0.108000
     20 C15         2.7170    0.5200    1.9130 c2        1 1B8      0.006000
     21 C16         3.3890    1.4580    1.0330 c1        1 1B8     -0.494000
     22 BR1         2.9940    1.7440   -0.8210 br        1 1B8      0.103000
     23 S17         4.4570    2.2250    1.8730 ss        1 1B8      0.526000
     24 C18         4.3850    1.6860    3.3330 c1        1 1B8     -0.445000
     25 C19         3.3510    0.6640    3.3820 c1        1 1B8      0.009000
     26 C20         3.0230   -0.2260    4.5950 c1        1 1B8     -0.161000
     27 C21         3.8710   -1.1240    5.1820 c1        1 1B8     -0.110000
     28 N22         3.2830   -1.5790    6.3040 n2        1 1B8     -0.153500
     29 N23         2.0620   -0.9660    6.4230 n2        1 1B8     -0.153500
     30 C24         1.9060   -0.1360    5.3720 c1        1 1B8     -0.110000
     31 H1         -4.2640   -3.1240    0.0750 ha        1 1B8      0.141000
     32 H2         -2.3360   -1.8050    0.4810 ha        1 1B8      0.156000
     33 H3         -4.6060   -1.4300   -3.6540 ha        1 1B8      0.139000
     34 H4         -2.0860   -0.2220   -4.3430 hc        1 1B8      0.094500
     35 H5         -3.2990    0.7210   -3.9480 hc        1 1B8      0.094500
     36 H6         -0.1490    2.6110   -4.1460 hc        1 1B8      0.073167
     37 H7         -0.1460    1.1080   -4.7120 hc        1 1B8      0.073167
     38 H8         -1.3310    2.0920   -5.1060 hc        1 1B8      0.073167
     39 H9         -1.5750    3.3450   -2.5380 hc        1 1B8      0.073167
     40 H10        -2.8370    2.4880   -2.0340 hc        1 1B8      0.073167
     41 H11        -2.7600    2.9730   -3.5520 hc        1 1B8      0.073167
     42 H12        -0.8160   -0.1550    0.9190 hn        1 1B8      0.216000
     43 H13         1.3680    0.8300   -0.1000 h1        1 1B8      0.134000
     44 H15         1.9180   -1.3600    1.4910 hc        1 1B8      0.096000
     45 H16         0.8460   -0.3830    2.1580 hc        1 1B8      0.096000
     46 H17         4.9370    1.9800    4.0810 DU        1 1B8      0.212000
     47 H18         4.7520   -1.3890    4.8450 DU        1 1B8      0.212000
     48 H19         3.6280   -2.2120    6.8750 DU        1 1B8      0.212000
     49 H20         1.1280    0.4310    5.1970 DU        1 1B8      0.212000
@<TRIPOS>BOND
     1    1    2 1   
     2    2    3 1   
     3    2    5 1   
     4    3    4 1   
     5    3   31 1   
     6    4   32 1   
     7    5   33 1   
     8    6    7 1   
     9    6    8 1   
    10    7   13 1   
    11    8    9 1   
    12    8   34 1   
    13    8   35 1   
    14    9   10 1   
    15    9   11 1   
    16    9   12 1   
    17   10   36 1   
    18   10   37 1   
    19   10   38 1   
    20   11   39 1   
    21   11   40 1   
    22   11   41 1   
    23   12   13 1   
    24   13   14 1   
    25   14   15 1   
    26   14   42 1   
    27   15   16 1   
    28   15   19 1   
    29   15   43 1   
    30   16   18 1   
    31   19   20 1   
    32   19   44 1   
    33   19   45 1   
    34   20   21 1   
    35   20   25 1   
    36   21   23 1   
    37   23   24 1   
    38   24   25 1   
    39   26   27 1   
    40   26   30 1   
    41   27   28 1   
    42   28   29 1   
    43   29   30 1   
@<TRIPOS>SUBSTRUCTURE
     1 1B8         1 TEMP              0 ****  ****    0 ROOT
