@<TRIPOS>MOLECULE
1B9
   43    45     1     0     0
SMALL
bcc


@<TRIPOS>ATOM
      1 CL1         2.1070   -3.1510   -2.3190 cl        1 1B9     -0.071400
      2 C6          3.0850   -2.0600   -1.4660 ca        1 1B9      0.048400
      3 C5          3.2960   -2.2350   -0.0950 ca        1 1B9     -0.124000
      4 C4          4.1010   -1.3370    0.6050 ca        1 1B9     -0.081000
      5 C1          3.6740   -0.9870   -2.1430 ca        1 1B9     -0.137000
      6 C2          4.4780   -0.0850   -1.4450 ca        1 1B9     -0.035300
      7 C3          4.7000   -0.2660   -0.0640 ca        1 1B9     -0.206900
      8 C7          5.1230    1.0440   -2.1660 c3        1 1B9     -0.070100
      9 C8          5.3890    2.2680   -1.2590 c3        1 1B9      0.148200
     10 C11         6.4490    3.1390   -1.9580 c3        1 1B9     -0.088100
     11 C12         4.0950    3.0980   -1.1600 c3        1 1B9     -0.088100
     12 N9          5.8660    1.9070    0.0750 n2        1 1B9     -0.576900
     13 C10         5.5470    0.7590    0.5880 ce        1 1B9      0.581800
     14 N13         6.0640    0.4610    1.9450 n4        1 1B9     -0.722000
     15 C14         6.9930   -0.7200    2.0020 c3        1 1B9     -0.049500
     16 C15         6.4050   -1.8120    3.0170 c         1 1B9      0.928600
     17 O17         7.0910   -2.8370    3.1510 o         1 1B9     -0.762800
     18 O16         5.3040   -1.5070    3.5550 o         1 1B9     -0.762800
     19 C18         8.3890   -0.3510    2.4890 c3        1 1B9     -0.032100
     20 C19         9.0180    0.7670    1.7620 cc        1 1B9     -0.099300
     21 C23         9.6440    0.6750    0.4700 cc        1 1B9     -0.059900
     22 BR2         9.7310   -0.8640   -0.5460 br        1 1B9     -0.040100
     23 C20         9.1230    2.0530    2.2650 cd        1 1B9     -0.203100
     24 S21         9.9410    3.0650    1.2310 ss        1 1B9      0.096200
     25 C22        10.1850    1.8890    0.0860 cd        1 1B9     -0.159100
     26 H1          2.8360   -3.0820    0.4400 ha        1 1B9      0.168000
     27 H2          4.2520   -1.5140    1.6890 ha        1 1B9      0.199000
     28 H3          3.5060   -0.8500   -3.2230 ha        1 1B9      0.154000
     29 H4          6.0990    0.6790   -2.5910 hc        1 1B9      0.074200
     30 H5          4.4850    1.3720   -3.0290 hc        1 1B9      0.074200
     31 H6          6.6110    4.0870   -1.3920 hc        1 1B9      0.050367
     32 H7          7.4210    2.5980   -2.0420 hc        1 1B9      0.050367
     33 H8          6.0840    3.3860   -2.9830 hc        1 1B9      0.050367
     34 H9          3.2620    2.4810   -0.7460 hc        1 1B9      0.050367
     35 H10         4.2460    3.9920   -0.5100 hc        1 1B9      0.050367
     36 H11         3.8110    3.4460   -2.1820 hc        1 1B9      0.050367
     37 H12         6.5420    1.2810    2.3350 hn        1 1B9      0.466800
     38 H13         7.0390   -1.1900    0.9820 hx        1 1B9      0.106700
     39 H15         8.3470   -0.1090    3.5870 hc        1 1B9      0.097200
     40 H16         9.0050   -1.2920    2.3890 hc        1 1B9      0.097200
     41 H17         8.7530    2.3730    3.2390 h4        1 1B9      0.175000
     42 H18        10.7180    2.0720   -0.8480 h4        1 1B9      0.184000
     43 H132        5.2490    0.2150    2.5590 hn        1 1B9      0.466800
@<TRIPOS>BOND
     1    1    2 1   
     2    2    3 ar  
     3    2    5 ar  
     4    3    4 ar  
     5    3   26 1   
     6    4    7 ar  
     7    4   27 1   
     8    5    6 ar  
     9    5   28 1   
    10    6    7 ar  
    11    6    8 1   
    12    7   13 1   
    13    8    9 1   
    14    8   29 1   
    15    8   30 1   
    16    9   10 1   
    17    9   11 1   
    18    9   12 1   
    19   10   31 1   
    20   10   32 1   
    21   10   33 1   
    22   11   34 1   
    23   11   35 1   
    24   11   36 1   
    25   12   13 2   
    26   13   14 1   
    27   14   15 1   
    28   14   37 1   
    29   14   43 1   
    30   15   16 1   
    31   15   19 1   
    32   15   38 1   
    33   16   17 1   
    34   16   18 1   
    35   19   20 1   
    36   19   39 1   
    37   19   40 1   
    38   20   21 1   
    39   20   23 2   
    40   21   22 1   
    41   21   25 2   
    42   23   24 1   
    43   23   41 1   
    44   24   25 1   
    45   25   42 1   
@<TRIPOS>SUBSTRUCTURE
     1 1B9         1 TEMP              0 ****  ****    0 ROOT
