@<TRIPOS>MOLECULE
1B9
   43    45     1     0     0
SMALL
bcc


@<TRIPOS>ATOM
      1 Cl1         2.0280   -3.1100   -2.2490 cl        1 1B9     -0.071400
      2 C6          3.0290   -2.0220   -1.4180 ca        1 1B9      0.048400
      3 C5          3.2270   -2.1660   -0.0420 ca        1 1B9     -0.124000
      4 C4          4.0510   -1.2710    0.6400 ca        1 1B9     -0.081000
      5 C1          3.6500   -0.9820   -2.1190 ca        1 1B9     -0.137000
      6 C2          4.4720   -0.0840   -1.4400 ca        1 1B9     -0.035300
      7 C3          4.6810   -0.2330   -0.0520 ca        1 1B9     -0.206900
      8 C7          5.1510    1.0090   -2.1850 c3        1 1B9     -0.070100
      9 C8          5.4420    2.2500   -1.3080 c3        1 1B9      0.148200
     10 C11         6.5290    3.0750   -2.0220 c3        1 1B9     -0.088100
     11 C12         4.1690    3.1150   -1.2400 c3        1 1B9     -0.088100
     12 N9          5.9020    1.9120    0.0380 n2        1 1B9     -0.576900
     13 C10         5.5500    0.7860    0.5790 ce        1 1B9      0.581800
     14 N13         6.0510    0.5100    1.9460 ny        1 1B9     -0.722000
     15 C14         6.9490   -0.6920    2.0400 c3        1 1B9     -0.049500
     16 C15         6.3270   -1.7420    3.0790 c         1 1B9      0.928600
     17 O17         6.9850   -2.7800    3.2440 o         1 1B9     -0.762800
     18 O16         5.2300   -1.3940    3.6020 o         1 1B9     -0.762800
     19 C18         8.3510   -0.3470    2.5260 c3        1 1B9     -0.032100
     20 C19         9.0130    0.7350    1.7740 cc        1 1B9     -0.099300
     21 C23         9.6450    0.5920    0.4900 cc        1 1B9     -0.059900
     22 Br2         9.6970   -0.9750   -0.4850 br        1 1B9     -0.040100
     23 C20         9.1490    2.0310    2.2440 cd        1 1B9     -0.203100
     24 S21         9.9990    2.9930    1.1890 ss        1 1B9      0.096200
     25 C22        10.2190    1.7810    0.0770 cd        1 1B9     -0.159100
     26 H1          2.7410   -2.9870    0.5110 ha        1 1B9      0.168000
     27 H2          4.1900   -1.4230    1.7300 ha        1 1B9      0.199000
     28 H3          3.4910   -0.8700   -3.2030 ha        1 1B9      0.154000
     29 H4          6.1200    0.6090   -2.5930 hc        1 1B9      0.074200
     30 H5          4.5270    1.3310   -3.0600 hc        1 1B9      0.074200
     31 H6          6.7110    4.0330   -1.4800 hc        1 1B9      0.050367
     32 H7          6.1760    3.3040   -3.0560 hc        1 1B9      0.050367
     33 H8          7.4870    2.5070   -2.0860 hc        1 1B9      0.050367
     34 H9          3.9010    3.4430   -2.2720 hc        1 1B9      0.050367
     35 H10         4.3400    4.0210   -0.6120 hc        1 1B9      0.050367
     36 H11         3.3190    2.5300   -0.8150 hc        1 1B9      0.050367
     37 H12         6.5480    1.3280    2.3170 hn        1 1B9      0.466800
     38 H13         6.9890   -1.1900    1.0330 hx        1 1B9      0.106700
     39 H15         8.9430   -1.3060    2.4550 hc        1 1B9      0.097200
     40 H16         8.3090   -0.0750    3.6170 hc        1 1B9      0.097200
     41 H17         8.7810    2.3860    3.2060 h4        1 1B9      0.175000
     42 H18        10.7620    1.9250   -0.8580 h4        1 1B9      0.184000
     43 H132        5.2260    0.3020    2.5610 hn        1 1B9      0.466800
@<TRIPOS>BOND
     1    1    2 1   
     2    2    3 ar  
     3    2    5 ar  
     4    3    4 ar  
     5    3   26 1   
     6    4    7 ar  
     7    4   27 1   
     8    5    6 ar  
     9    5   28 1   
    10    6    7 ar  
    11    6    8 1   
    12    7   13 1   
    13    8    9 1   
    14    8   29 1   
    15    8   30 1   
    16    9   10 1   
    17    9   11 1   
    18    9   12 1   
    19   10   31 1   
    20   10   32 1   
    21   10   33 1   
    22   11   34 1   
    23   11   35 1   
    24   11   36 1   
    25   12   13 2   
    26   13   14 1   
    27   14   15 1   
    28   14   37 1   
    29   14   43 1   
    30   15   16 1   
    31   15   19 1   
    32   15   38 1   
    33   16   17 1   
    34   16   18 1   
    35   19   20 1   
    36   19   39 1   
    37   19   40 1   
    38   20   21 1   
    39   20   23 2   
    40   21   22 1   
    41   21   25 2   
    42   23   24 1   
    43   23   41 1   
    44   24   25 1   
    45   25   42 1   
@<TRIPOS>SUBSTRUCTURE
     1 1B9         1 TEMP              0 ****  ****    0 ROOT
