@<TRIPOS>MOLECULE
1B9
   43    45     1     0     0
SMALL
bcc


@<TRIPOS>ATOM
      1 CL1         2.1320   -3.1960   -2.2950 cl        1 1B9     -0.071400
      2 C6          3.0980   -2.0850   -1.4540 ca        1 1B9      0.048400
      3 C5          3.2690   -2.2140   -0.0730 ca        1 1B9     -0.124000
      4 C4          4.0650   -1.2990    0.6170 ca        1 1B9     -0.081000
      5 C1          3.7160   -1.0420   -2.1520 ca        1 1B9     -0.137000
      6 C2          4.5100   -0.1240   -1.4640 ca        1 1B9     -0.035300
      7 C3          4.6930   -0.2580   -0.0710 ca        1 1B9     -0.205900
      8 C7          5.1860    0.9730   -2.2050 c3        1 1B9     -0.070100
      9 C8          5.4400    2.2260   -1.3350 c3        1 1B9      0.148200
     10 C11         6.5280    3.0610   -2.0340 c3        1 1B9     -0.088100
     11 C12         4.1530    3.0710   -1.3010 c3        1 1B9     -0.088100
     12 N9          5.8770    1.9070    0.0240 n2        1 1B9     -0.576900
     13 C10         5.5330    0.7810    0.5670 ce        1 1B9      0.581800
     14 N13         6.0090    0.5250    1.9470 n4        1 1B9     -0.722000
     15 C14         6.9250   -0.6600    2.0710 c3        1 1B9     -0.049500
     16 C15         6.2990   -1.7120    3.1060 c         1 1B9      0.928600
     17 O17         6.9710   -2.7380    3.2930 o         1 1B9     -0.762800
     18 O16         5.1870   -1.3780    3.6030 o         1 1B9     -0.762800
     19 C18         8.3100   -0.2870    2.5840 c3        1 1B9     -0.032100
     20 C19         8.9700    0.8000    1.8370 cc        1 1B9     -0.099300
     21 C23         9.6320    0.6580    0.5680 cc        1 1B9     -0.059900
     22 BR2         9.7320   -0.9150   -0.3930 br        1 1B9     -0.040100
     23 C20         9.0740    2.1020    2.2990 cd        1 1B9     -0.203100
     24 S21         9.9290    3.0700    1.2550 ss        1 1B9      0.096200
     25 C22        10.1940    1.8540    0.1570 cd        1 1B9     -0.159100
     26 H1          2.7870   -3.0370    0.4780 ha        1 1B9      0.168000
     27 H2          4.1850   -1.4390    1.7110 ha        1 1B9      0.199000
     28 H3          3.5780   -0.9420   -3.2400 ha        1 1B9      0.154000
     29 H4          6.1700    0.5840   -2.5910 hc        1 1B9      0.074200
     30 H5          4.5750    1.2760   -3.0960 hc        1 1B9      0.074200
     31 H6          6.6840    4.0270   -1.4980 hc        1 1B9      0.050367
     32 H7          7.4960    2.5080   -2.0730 hc        1 1B9      0.050367
     33 H8          6.1940    3.2760   -3.0780 hc        1 1B9      0.050367
     34 H9          3.9000    3.3850   -2.3420 hc        1 1B9      0.050367
     35 H10         4.2960    3.9860   -0.6780 hc        1 1B9      0.050367
     36 H11         3.3030    2.4770   -0.8880 hc        1 1B9      0.050367
     37 H12         5.1760    0.3090    2.5470 hn        1 1B9      0.466800
     38 H13         6.9950   -1.1650    1.0690 hx        1 1B9      0.106700
     39 H15         8.2410   -0.0070    3.6710 hc        1 1B9      0.096700
     40 H16         8.9200   -1.2360    2.5330 hc        1 1B9      0.096700
     41 H17         8.6790    2.4580    3.2500 h4        1 1B9      0.175000
     42 H18        10.7540    2.0000   -0.7670 h4        1 1B9      0.184000
     43 H132        6.4850    1.3550    2.3210 hn        1 1B9      0.466800
@<TRIPOS>BOND
     1    1    2 1   
     2    2    3 ar  
     3    2    5 ar  
     4    3    4 ar  
     5    3   26 1   
     6    4    7 ar  
     7    4   27 1   
     8    5    6 ar  
     9    5   28 1   
    10    6    7 ar  
    11    6    8 1   
    12    7   13 1   
    13    8    9 1   
    14    8   29 1   
    15    8   30 1   
    16    9   10 1   
    17    9   11 1   
    18    9   12 1   
    19   10   31 1   
    20   10   32 1   
    21   10   33 1   
    22   11   34 1   
    23   11   35 1   
    24   11   36 1   
    25   12   13 2   
    26   13   14 1   
    27   14   15 1   
    28   14   37 1   
    29   14   43 1   
    30   15   16 1   
    31   15   19 1   
    32   15   38 1   
    33   16   17 1   
    34   16   18 1   
    35   19   20 1   
    36   19   39 1   
    37   19   40 1   
    38   20   21 1   
    39   20   23 2   
    40   21   22 1   
    41   21   25 2   
    42   23   24 1   
    43   23   41 1   
    44   24   25 1   
    45   25   42 1   
@<TRIPOS>SUBSTRUCTURE
     1 1B9         1 TEMP              0 ****  ****    0 ROOT
