@<TRIPOS>MOLECULE
1B9
   42    38     1     0     0
SMALL
bcc


@<TRIPOS>ATOM
      1 CL1        -6.6220    0.2540   -0.0760 cl        1 1B9     -0.045000
      2 C6         -4.8790    0.2840   -0.0700 c2        1 1B9     -0.055000
      3 C5         -4.1900    0.2420    1.1300 c2        1 1B9     -0.141000
      4 C4         -2.8060    0.2780    1.1350 c1        1 1B9     -0.087000
      5 C1         -4.1840    0.3630   -1.2660 c1        1 1B9     -0.140000
      6 C2         -2.7780    0.4000   -1.2600 c1        1 1B9     -0.037000
      7 C3         -2.0990    0.3580   -0.0790 c1        1 1B9     -0.077000
      8 C7         -2.0170    0.5760   -2.5640 c3        1 1B9     -0.152000
      9 C8         -0.5380    0.9410   -2.5100 c3        1 1B9      0.039000
     10 C11         0.1490    0.4160   -3.7510 c3        1 1B9     -0.201000
     11 C12        -0.3300    2.4290   -2.6870 c3        1 1B9     -0.201000
     12 N9          0.1360    0.5060   -1.3120 n2        1 1B9     -0.267000
     13 C10        -0.5790    0.4300   -0.0740 c2        1 1B9      0.152000
     14 N13         0.1310    0.3230    1.1480 n3        1 1B9     -0.272000
     15 C14         1.2690   -0.5220    1.2370 c3        1 1B9     -0.078000
     16 C15         0.8480   -1.9590    1.0210 c1        1 1B9      0.324000
     17 O17         0.0350   -2.5020    1.8140 o         1 1B9     -0.567000
     18 O16         1.3150   -2.6140    0.0520 os        1 1B9     -0.562000
     19 C18         1.8970   -0.3810    2.6040 c3        1 1B9     -0.096000
     20 C19         3.2360   -1.0840    2.6200 c2        1 1B9     -0.055000
     21 C23         4.6520   -0.3900    2.8400 c1        1 1B9     -0.192000
     22 BR2         4.9520    1.4790    3.1090 br        1 1B9      0.045000
     23 C20         3.4490   -2.5080    2.4430 c1        1 1B9     -0.411000
     24 S21         4.9750   -2.7780    2.5410 ss        1 1B9      0.517000
     25 C22         5.6760   -1.4160    2.7890 c1        1 1B9     -0.447000
     26 H1         -4.6810    0.2190    1.9730 ha        1 1B9      0.142000
     27 H2         -2.3200    0.2480    1.9810 ha        1 1B9      0.159000
     28 H3         -4.6690    0.3840   -2.1120 ha        1 1B9      0.139000
     29 H4         -2.0940   -0.2610   -3.0640 hc        1 1B9      0.092500
     30 H5         -2.4720    1.2730   -3.0780 hc        1 1B9      0.092500
     31 H6          0.2400   -0.5580   -3.6870 hc        1 1B9      0.072667
     32 H7         -0.3840    0.6430   -4.5410 hc        1 1B9      0.072667
     33 H8          1.0380    0.8220   -3.8290 hc        1 1B9      0.072667
     34 H9         -0.6270    2.6960   -3.5830 hc        1 1B9      0.072667
     35 H10        -0.8500    2.9140   -2.0130 hc        1 1B9      0.072667
     36 H11         0.6210    2.6400   -2.5810 hc        1 1B9      0.072667
     37 H12        -0.1470    0.7900    1.8800 hn        1 1B9      0.229000
     38 H13         1.9190   -0.2670    0.5520 h1        1 1B9      0.116000
     39 H15         1.3100   -0.7820    3.2760 hc        1 1B9      0.096500
     40 H16         2.0250    0.5680    2.8080 hc        1 1B9      0.096500
     41 H17         2.7560   -3.1780    2.2900 DU        1 1B9      0.203000
     42 H18         6.6360   -1.2750    2.8930 DU        1 1B9      0.203000
@<TRIPOS>BOND
     1    1    2 1   
     2    2    3 1   
     3    2    5 1   
     4    3    4 1   
     5    3   26 1   
     6    4   27 1   
     7    5   28 1   
     8    6    7 1   
     9    6    8 1   
    10    7   13 1   
    11    8    9 1   
    12    8   29 1   
    13    8   30 1   
    14    9   10 1   
    15    9   11 1   
    16    9   12 1   
    17   10   31 1   
    18   10   32 1   
    19   10   33 1   
    20   11   34 1   
    21   11   35 1   
    22   11   36 1   
    23   12   13 1   
    24   13   14 1   
    25   14   15 1   
    26   14   37 1   
    27   15   16 1   
    28   15   19 1   
    29   15   38 1   
    30   16   17 1   
    31   19   20 1   
    32   19   39 1   
    33   19   40 1   
    34   20   21 1   
    35   20   23 1   
    36   21   25 1   
    37   23   24 1   
    38   24   25 1   
@<TRIPOS>SUBSTRUCTURE
     1 1B9         1 TEMP              0 ****  ****    0 ROOT
