@<TRIPOS>MOLECULE
1B9
   42    44     1     0     0
SMALL
bcc


@<TRIPOS>ATOM
      1 CL1        -6.8360   -0.8970   -0.6240 cl        1 1B9     -0.124400
      2 C6         -5.1830   -0.4810   -0.5670 ca        1 1B9      0.023400
      3 C5         -4.2740   -1.1330   -1.4010 ca        1 1B9     -0.142000
      4 C4         -2.9230   -0.7870   -1.3530 ca        1 1B9     -0.086000
      5 C1         -4.7510    0.5050    0.3230 ca        1 1B9     -0.140000
      6 C2         -3.3970    0.8450    0.3710 ca        1 1B9     -0.045300
      7 C3         -2.4740    0.2100   -0.4820 ca        1 1B9     -0.157900
      8 C7         -2.9210    1.8820    1.3210 c3        1 1B9     -0.066100
      9 C8         -1.4580    1.6220    1.7590 c3        1 1B9      0.162200
     10 C11        -0.9610    2.9110    2.4410 c3        1 1B9     -0.082600
     11 C12        -1.4720    0.5160    2.8310 c3        1 1B9     -0.082600
     12 N9         -0.5690    1.2940    0.6550 n2        1 1B9     -0.668900
     13 C10        -1.0320    0.6350   -0.3840 ce        1 1B9      0.666800
     14 N13        -0.2090    0.2070   -1.4370 nh        1 1B9     -0.772200
     15 C14         1.0970    0.8020   -1.6800 c3        1 1B9      0.053500
     16 C15         1.1800    1.4730   -3.1090 c         1 1B9      0.904600
     17 O17         0.2260    1.2810   -3.9150 o         1 1B9     -0.826800
     18 O16         2.2080    2.1570   -3.3450 o         1 1B9     -0.826800
     19 C18         2.2260   -0.2420   -1.6370 c3        1 1B9     -0.020100
     20 C19         2.3800   -0.9180   -0.3340 cc        1 1B9     -0.026300
     21 C23         3.3650   -0.5890    0.6700 cc        1 1B9     -0.045900
     22 BR2         4.6120    0.7690    0.5240 br        1 1B9     -0.065100
     23 C20         1.6090   -1.9860    0.0810 cd        1 1B9     -0.157100
     24 S21         2.0490   -2.5390    1.5990 ss        1 1B9     -0.042800
     25 C22         3.2720   -1.4160    1.7710 cd        1 1B9     -0.158100
     26 H1         -4.6160   -1.9120   -2.0980 ha        1 1B9      0.141000
     27 H2         -2.2250   -1.3220   -2.0170 ha        1 1B9      0.157000
     28 H3         -5.4670    1.0120    0.9860 ha        1 1B9      0.138000
     29 H4         -2.9830    2.8860    0.8190 hc        1 1B9      0.053700
     30 H5         -3.5770    1.9160    2.2290 hc        1 1B9      0.053700
     31 H6         -1.6580    3.1760    3.2710 hc        1 1B9      0.033533
     32 H7          0.0620    2.7560    2.8600 hc        1 1B9      0.033533
     33 H8         -0.9240    3.7570    1.7150 hc        1 1B9      0.033533
     34 H9         -1.9110   -0.4220    2.4170 hc        1 1B9      0.033533
     35 H10        -0.4340    0.3050    3.1830 hc        1 1B9      0.033533
     36 H11        -2.0850    0.8470    3.7020 hc        1 1B9      0.033533
     37 H12        -0.7170    0.1470   -2.3090 hn        1 1B9      0.425800
     38 H13         1.3350    1.6070   -0.9310 h1        1 1B9      0.081700
     39 H15         2.0390   -1.0180   -2.4270 hc        1 1B9      0.067700
     40 H16         3.1660    0.3080   -1.9170 hc        1 1B9      0.067700
     41 H17         0.7860   -2.4110   -0.4900 h4        1 1B9      0.177000
     42 H18         3.8990   -1.3640    2.6590 h4        1 1B9      0.163000
@<TRIPOS>BOND
     1    1    2 1   
     2    2    3 ar  
     3    2    5 ar  
     4    3    4 ar  
     5    3   26 1   
     6    4    7 ar  
     7    4   27 1   
     8    5    6 ar  
     9    5   28 1   
    10    6    7 ar  
    11    6    8 1   
    12    7   13 1   
    13    8    9 1   
    14    8   29 1   
    15    8   30 1   
    16    9   10 1   
    17    9   11 1   
    18    9   12 1   
    19   10   31 1   
    20   10   32 1   
    21   10   33 1   
    22   11   34 1   
    23   11   35 1   
    24   11   36 1   
    25   12   13 2   
    26   13   14 1   
    27   14   15 1   
    28   14   37 1   
    29   15   16 1   
    30   15   19 1   
    31   15   38 1   
    32   16   17 1   
    33   16   18 1   
    34   19   20 1   
    35   19   39 1   
    36   19   40 1   
    37   20   21 1   
    38   20   23 2   
    39   21   22 1   
    40   21   25 2   
    41   23   24 1   
    42   23   41 1   
    43   24   25 1   
    44   25   42 1   
@<TRIPOS>SUBSTRUCTURE
     1 1B9         1 TEMP              0 ****  ****    0 ROOT
