@<TRIPOS>MOLECULE
1BA
   41    41     1     0     0
SMALL
bcc


@<TRIPOS>ATOM
      1 N1         -0.7110   -0.2720   -0.4220 n4        1 1BA      0.112000
      2 C4          2.8840    0.1700   -3.9780 c2        1 1BA     -0.433000
      3 C5          1.7350   -0.7780   -3.8350 c3        1 1BA     -0.130000
      4 C6          0.6880   -0.4200   -2.9140 c1        1 1BA     -0.053000
      5 C7          0.6750    0.8000   -2.1820 c2        1 1BA     -0.217000
      6 C8          0.4710    0.6250   -0.7020 c3        1 1BA     -0.105000
      7 C10        -1.6080   -0.0550    3.1690 c2        1 1BA     -0.088000
      8 C13        -2.2000   -0.6570    5.8470 c2        1 1BA     -0.027000
      9 C15        -1.0000   -1.1000    3.7850 c2        1 1BA     -0.120000
     10 C17         2.8940    1.4020   -3.4920 c1        1 1BA      0.148000
     11 C1          4.8280   -1.3830   -3.8930 c3        1 1BA     -0.211000
     12 C3          3.7050   -0.9030   -6.0700 c3        1 1BA     -0.211000
     13 N2         -0.9460   -0.6230    0.8930 n2        1 1BA     -0.456000
     14 C9         -1.3060    0.3720    1.7730 c2        1 1BA      0.249000
     15 O1         -1.4080    1.5980    1.4680 o         1 1BA     -0.483000
     16 C11        -2.6030    0.7810    3.8850 c3        1 1BA     -0.186000
     17 C12        -2.8960    0.4450    5.2630 c1        1 1BA     -0.134000
     18 O2         -2.4470   -0.9860    7.1630 oh        1 1BA     -0.262000
     19 C14        -1.2970   -1.4240    5.1510 c2        1 1BA     -0.084000
     20 C16         0.7310    2.0310   -2.7360 c2        1 1BA     -0.113000
     21 HN1        -1.5280    0.1950   -0.8430 hn        1 1BA      0.222000
     22 H5          1.2560   -0.9670   -4.8440 hc        1 1BA      0.161500
     23 H6          2.1310   -1.7860   -3.4950 hc        1 1BA      0.161500
     24 H81         1.3890    0.1620   -0.2410 hx        1 1BA      0.150500
     25 H82         0.2790    1.6160   -0.1940 hx        1 1BA      0.150500
     26 H15        -0.2600   -1.7290    3.2660 ha        1 1BA      0.150000
     27 H17         0.7790    2.2010   -3.8240 ha        1 1BA      0.145500
     28 H11A        4.7950    0.5230   -4.8870 hc        1 1BA      0.097000
     29 H12A        4.2050   -2.2990   -3.7520 hc        1 1BA      0.079333
     30 H13         5.0910   -0.9730   -2.8890 hc        1 1BA      0.079333
     31 H2          5.7700   -1.6780   -4.4170 hc        1 1BA      0.079333
     32 H31         3.1180   -0.1520   -6.6510 hc        1 1BA      0.079333
     33 H32         3.0890   -1.8270   -5.9570 hc        1 1BA      0.079333
     34 H33         4.6250   -1.1620   -6.6470 hc        1 1BA      0.079333
     35 HN2        -0.5580   -1.1640   -0.9190 hn        1 1BA      0.222000
     36 H11        -3.5840    0.7800    3.3190 hc        1 1BA      0.184000
     37 H12        -2.2610    1.8640    3.8520 hc        1 1BA      0.184000
     38 HO2        -3.1050   -0.3500    7.4890 ho        1 1BA      0.236000
     39 H14        -0.7910   -2.2820    5.6170 ha        1 1BA      0.146000
     40 H16         0.6250    2.9430   -2.1300 ha        1 1BA      0.145500
     41 C2          4.0910   -0.3440   -4.7150 c3        1 1BA     -0.029000
@<TRIPOS>BOND
     1    1    6 1   
     2    1   13 1   
     3    1   21 1   
     4    1   35 1   
     5    2    3 1   
     6    2   10 1   
     7    2   41 1   
     8    3    4 1   
     9    3   22 1   
    10    3   23 1   
    11    4    5 1   
    12    5    6 1   
    13    5   20 1   
    14    6   24 1   
    15    6   25 1   
    16    7    9 1   
    17    7   14 1   
    18    7   16 1   
    19    8   17 1   
    20    8   18 1   
    21    8   19 1   
    22    9   19 1   
    23    9   26 1   
    24   11   29 1   
    25   11   30 1   
    26   11   31 1   
    27   11   41 1   
    28   12   32 1   
    29   12   33 1   
    30   12   34 1   
    31   12   41 1   
    32   13   14 1   
    33   14   15 1   
    34   16   17 1   
    35   16   36 1   
    36   16   37 1   
    37   18   38 1   
    38   19   39 1   
    39   20   27 1   
    40   20   40 1   
    41   28   41 1   
@<TRIPOS>SUBSTRUCTURE
     1 1BA         1 TEMP              0 ****  ****    0 ROOT
