@<TRIPOS>MOLECULE
1BA
   41    36     1     0     0
SMALL
bcc


@<TRIPOS>ATOM
      1 N1         -0.5490   -0.1330    0.6360 n3        1 1BA     -0.165000
      2 C4          2.5780   -0.5060   -3.2730 c1        1 1BA     -0.067000
      3 C5          2.2940   -1.6190   -2.4930 c1        1 1BA     -0.128000
      4 C6          1.7290   -1.4580   -1.2320 c1        1 1BA     -0.177000
      5 C7          1.4480   -0.1880   -0.7540 c1        1 1BA     -0.001000
      6 C8          0.8910   -0.0080    0.6650 c2        1 1BA     -0.062000
      7 C10        -3.0650   -0.0900    3.5360 c1        1 1BA     -0.163000
      8 C13        -4.4230    0.7720    5.7960 c1        1 1BA     -0.001000
      9 C15        -2.5530    0.9490    4.2970 c1        1 1BA     -0.090000
     10 C17         2.2970    0.7660   -2.7950 c1        1 1BA     -0.090000
     11 C1          2.1590   -0.0520   -5.6840 c3        1 1BA     -0.206000
     12 C2          3.1160   -0.6870   -4.6990 c3        1 1BA     -0.070000
     13 C3          4.4810   -0.0210   -4.8140 c3        1 1BA     -0.206000
     14 N2         -1.0580    0.0370    1.9310 n         1 1BA     -0.308000
     15 C9         -2.3050   -0.5810    2.3020 c2        1 1BA      0.331000
     16 O1         -2.7400   -1.5100    1.6500 o         1 1BA     -0.367000
     17 C11        -4.2560   -0.6990    3.9050 c1        1 1BA     -0.037000
     18 C12        -4.9350   -0.2670    5.0350 c1        1 1BA     -0.177000
     19 O2         -5.0930    1.1830    6.9720 o         1 1BA     -0.246000
     20 C14        -3.2320    1.3810    5.4270 c2        1 1BA     -0.146500
     21 C16         1.7320    0.9250   -1.5340 c2        1 1BA     -0.146500
     22 HN1        -0.8990    0.5050    0.0850 hn        1 1BA      0.170000
     23 H5          2.4900   -2.5100   -2.8280 ha        1 1BA      0.129000
     24 H6          1.5300   -2.2360   -0.6870 ha        1 1BA      0.134000
     25 H81         1.1360    0.8800    1.0030 h4        1 1BA      0.105000
     26 H82         1.2670   -0.6970    1.2520 h4        1 1BA      0.105000
     27 H15        -1.7160    1.3770    4.0380 ha        1 1BA      0.140500
     28 H17         2.4960    1.5480   -3.3430 ha        1 1BA      0.140500
     29 H11A        1.2450   -0.3250   -5.4720 hc        1 1BA      0.075667
     30 H12A        2.3860   -0.3440   -6.5970 hc        1 1BA      0.075667
     31 H13         2.2300    0.9230   -5.6260 hc        1 1BA      0.075667
     32 H2          3.2010   -1.6410   -4.8960 hc        1 1BA      0.088000
     33 H31         4.8710   -0.2250   -5.6910 hc        1 1BA      0.075667
     34 H32         4.3800    0.9510   -4.7190 hc        1 1BA      0.075667
     35 H33         5.0700   -0.3600   -4.1070 hc        1 1BA      0.075667
     36 HN2        -0.6180    0.5680    2.5280 hn        1 1BA      0.231000
     37 H11        -4.6160   -1.4300    3.3700 ha        1 1BA      0.157000
     38 H12        -5.7760   -0.6970    5.2950 ha        1 1BA      0.134000
     39 HO2        -5.8570    1.5880    6.7530 ho        1 1BA      0.223000
     40 H14        -2.8710    2.1160    5.9650 ha        1 1BA      0.154500
     41 H16         1.5350    1.8170   -1.1980 ha        1 1BA      0.154500
@<TRIPOS>BOND
     1    1    6 1   
     2    1   14 1   
     3    1   22 1   
     4    2    3 1   
     5    2   12 1   
     6    3   23 1   
     7    4    5 1   
     8    4   24 1   
     9    5   21 1   
    10    6   25 1   
    11    6   26 1   
    12    7   15 1   
    13    7   17 1   
    14    8   18 1   
    15    8   20 1   
    16    9   20 1   
    17    9   27 1   
    18   10   21 1   
    19   10   28 1   
    20   11   12 1   
    21   11   29 1   
    22   11   30 1   
    23   11   31 1   
    24   12   13 1   
    25   12   32 1   
    26   13   33 1   
    27   13   34 1   
    28   13   35 1   
    29   14   15 1   
    30   14   36 1   
    31   15   16 1   
    32   17   37 1   
    33   18   38 1   
    34   19   39 1   
    35   20   40 1   
    36   21   41 1   
@<TRIPOS>SUBSTRUCTURE
     1 1BA         1 TEMP              0 ****  ****    0 ROOT
