@<TRIPOS>MOLECULE
1BA
   41    42     1     0     0
SMALL
bcc


@<TRIPOS>ATOM
      1 N1         -0.3250   -0.2880    2.8270 n3        1 1BA     -0.559200
      2 C4          4.0510   -0.1780   -0.0600 ca        1 1BA     -0.075300
      3 C5          4.0590    0.9270    0.8010 ca        1 1BA     -0.123500
      4 C6          3.0500    1.0960    1.7420 ca        1 1BA     -0.125500
      5 C7          2.0090    0.1630    1.8480 ca        1 1BA     -0.114300
      6 C8          0.9800    0.3830    2.9130 c3        1 1BA      0.182100
      7 C10        -2.6790   -0.2430   -0.0900 ca        1 1BA     -0.182600
      8 C13        -4.7410    0.5960   -1.7610 ca        1 1BA      0.150100
      9 C15        -2.7890    1.1070   -0.4380 ca        1 1BA     -0.049000
     10 C17         3.0090   -1.1060    0.0450 ca        1 1BA     -0.123500
     11 C1          5.1540    0.7770   -2.0700 c3        1 1BA     -0.087100
     12 C3          6.4850   -0.5230   -0.4110 c3        1 1BA     -0.087100
     13 N2         -1.1250    0.1210    1.7870 n         1 1BA     -0.431300
     14 C9         -1.5900   -0.7490    0.7840 c         1 1BA      0.656700
     15 O1         -1.0810   -1.8770    0.6240 o         1 1BA     -0.604100
     16 C11        -3.5970   -1.1750   -0.5970 ca        1 1BA     -0.049000
     17 C12        -4.6330   -0.7660   -1.4270 ca        1 1BA     -0.197500
     18 O2         -5.7850    0.9420   -2.5830 oh        1 1BA     -0.491100
     19 C14        -3.8180    1.5330   -1.2730 ca        1 1BA     -0.197500
     20 C16         1.9980   -0.9390    0.9910 ca        1 1BA     -0.125500
     21 HN1        -0.1550   -1.2880    2.7320 hn        1 1BA      0.374800
     22 H5          4.8710    1.6670    0.7290 ha        1 1BA      0.132500
     23 H6          3.0680    1.9700    2.4100 ha        1 1BA      0.140000
     24 H81         1.4080    0.0210    3.8950 h1        1 1BA      0.065700
     25 H82         0.7950    1.4920    3.0110 h1        1 1BA      0.065700
     26 H15        -2.0570    1.8440   -0.0730 ha        1 1BA      0.152000
     27 H17         2.9810   -1.9780   -0.6250 ha        1 1BA      0.132500
     28 H11A        5.9420    0.5990   -2.8400 hc        1 1BA      0.036033
     29 H12A        4.1670    0.8680   -2.5820 hc        1 1BA      0.036033
     30 H13         5.3760    1.7410   -1.5520 hc        1 1BA      0.036033
     31 H2          4.9180   -1.3190   -1.6510 hc        1 1BA      0.051700
     32 H31         6.7500    0.3990    0.1610 hc        1 1BA      0.036033
     33 H32         6.4760   -1.3870    0.2960 hc        1 1BA      0.036033
     34 H33         7.2720   -0.7010   -1.1830 hc        1 1BA      0.036033
     35 HN2        -1.7820    0.8100    2.1040 hn        1 1BA      0.316500
     36 H11        -3.4800   -2.2410   -0.3380 ha        1 1BA      0.152000
     37 H12        -5.3620   -1.4840   -1.8280 ha        1 1BA      0.148500
     38 HO2        -5.7370    1.8960   -2.7470 ho        1 1BA      0.423000
     39 H14        -3.9040    2.5920   -1.5510 ha        1 1BA      0.148500
     40 H16         1.1860   -1.6860    1.0320 ha        1 1BA      0.140000
     41 C2          5.1310   -0.3700   -1.0770 c3        1 1BA     -0.023400
@<TRIPOS>BOND
     1    1    6 1   
     2    1   13 1   
     3    1   21 1   
     4    2    3 ar  
     5    2   10 ar  
     6    2   41 1   
     7    3    4 ar  
     8    3   22 1   
     9    4    5 ar  
    10    4   23 1   
    11    5    6 1   
    12    5   20 ar  
    13    6   24 1   
    14    6   25 1   
    15    7    9 ar  
    16    7   14 1   
    17    7   16 ar  
    18    8   17 ar  
    19    8   18 1   
    20    8   19 ar  
    21    9   19 ar  
    22    9   26 1   
    23   10   20 ar  
    24   10   27 1   
    25   11   28 1   
    26   11   29 1   
    27   11   30 1   
    28   11   41 1   
    29   12   32 1   
    30   12   33 1   
    31   12   34 1   
    32   12   41 1   
    33   13   14 1   
    34   13   35 1   
    35   14   15 2   
    36   16   17 ar  
    37   16   36 1   
    38   17   37 1   
    39   18   38 1   
    40   19   39 1   
    41   20   40 1   
    42   31   41 1   
@<TRIPOS>SUBSTRUCTURE
     1 1BA         1 TEMP              0 ****  ****    0 ROOT
