@<TRIPOS>MOLECULE
1BB
   54    57     1     0     0
SMALL
bcc


@<TRIPOS>ATOM
      1 CL1        -0.0340   -0.0240    0.1010 cl        1 1BB     -0.024400
      2 C1          1.6520   -0.1020    0.0820 ca        1 1BB      0.061400
      3 C2          2.3690    0.0250    1.2760 ca        1 1BB     -0.118000
      4 C3          3.7640   -0.0380    1.2640 ca        1 1BB     -0.012300
      5 C4          4.4420   -0.2210    0.0410 ca        1 1BB     -0.223900
      6 C5          3.7170   -0.3590   -1.1470 ca        1 1BB     -0.100000
      7 C6          2.3280   -0.2980   -1.1310 ca        1 1BB     -0.116000
      8 C9          4.5260    0.1250    2.5300 c3        1 1BB     -0.078100
      9 C10         5.9210   -0.5440    2.5110 c3        1 1BB      0.148200
     10 N11         6.6080   -0.4090    1.2220 n2        1 1BB     -0.558900
     11 C12         5.9160   -0.2750    0.1400 ce        1 1BB      0.570800
     12 N13         6.6330   -0.1200   -1.1620 n4        1 1BB     -0.723000
     13 C14         8.1340   -0.0590   -1.0960 c3        1 1BB      0.106200
     14 C15         8.7350   -0.0940   -2.5130 c3        1 1BB     -0.058100
     15 C27         6.7710    0.1220    3.6080 c3        1 1BB     -0.092600
     16 C28         5.7650   -2.0330    2.8740 c3        1 1BB     -0.092600
     17 C7          8.6200    1.2240   -0.3940 cc        1 1BB      0.634200
     18 N8          9.8300    1.1310    0.3020 na        1 1BB     -0.703000
     19 C11        10.3140    2.2740    0.9170 cc        1 1BB      0.134000
     20 C13         9.6290    3.4590    0.8440 cd        1 1BB     -0.121900
     21 C19         8.3420    3.5270    0.1070 c         1 1BB      0.707700
     22 N24         7.9080    2.3160   -0.5180 nd        1 1BB     -0.701100
     23 O25         7.6440    4.5400    0.0090 o         1 1BB     -0.471100
     24 C26         8.2590   -1.2810   -3.2720 ca        1 1BB     -0.161300
     25 C29         7.2090   -1.1510   -4.1910 ca        1 1BB     -0.132500
     26 C30         6.7840   -2.2540   -4.9290 ca        1 1BB     -0.114000
     27 C31         7.4040   -3.4930   -4.7560 ca        1 1BB     -0.097000
     28 C32         8.4530   -3.6260   -3.8460 ca        1 1BB     -0.114000
     29 C33         8.8820   -2.5230   -3.1070 ca        1 1BB     -0.132500
     30 C8         10.1240    4.6290    1.4630 ch        1 1BB      0.186500
     31 N9         10.5180    5.5990    1.9680 n1        1 1BB     -0.292800
     32 H1          1.8360    0.1760    2.2310 ha        1 1BB      0.173000
     33 H2          4.2100   -0.5260   -2.1160 ha        1 1BB      0.124000
     34 H3          1.7600   -0.4040   -2.0700 ha        1 1BB      0.171000
     35 H4          3.9430   -0.3030    3.3890 hc        1 1BB      0.090700
     36 H5          4.6460    1.2280    2.7270 hc        1 1BB      0.090700
     37 H6          6.3810   -0.9210   -1.7620 hn        1 1BB      0.478800
     38 H7          8.4760   -0.9760   -0.5240 hx        1 1BB      0.124700
     39 H8          9.8530   -0.1290   -2.3980 hc        1 1BB      0.097700
     40 H9          8.4860    0.8550   -3.0620 hc        1 1BB      0.097700
     41 H10         7.7570   -0.3900    3.7070 hc        1 1BB      0.059367
     42 H11         6.2220    0.0350    4.5770 hc        1 1BB      0.059367
     43 H12         6.9400    1.2030    3.3890 hc        1 1BB      0.059367
     44 H13         6.7540   -2.5500    2.8700 hc        1 1BB      0.059367
     45 H14         5.3340   -2.1050    3.9030 hc        1 1BB      0.059367
     46 H15         5.0780   -2.5460    2.1610 hc        1 1BB      0.059367
     47 H16        10.3030    0.2630    0.4050 hn        1 1BB      0.472800
     48 H17        11.2760    2.1660    1.4570 h4        1 1BB      0.192000
     49 H18         6.7450   -0.1680   -4.3640 ha        1 1BB      0.136000
     50 H19         5.9690   -2.1440   -5.6620 ha        1 1BB      0.156000
     51 H20         7.0730   -4.3620   -5.3470 ha        1 1BB      0.159000
     52 H21         8.9530   -4.5990   -3.7190 ha        1 1BB      0.156000
     53 H22         9.7250   -2.6290   -2.4070 ha        1 1BB      0.136000
     54 H132        6.2730    0.7460   -1.5970 hn        1 1BB      0.478800
@<TRIPOS>BOND
     1    1    2 1   
     2    2    3 ar  
     3    2    7 ar  
     4    3    4 ar  
     5    3   32 1   
     6    4    5 ar  
     7    4    8 1   
     8    5    6 ar  
     9    5   11 1   
    10    6    7 ar  
    11    6   33 1   
    12    7   34 1   
    13    8    9 1   
    14    8   35 1   
    15    8   36 1   
    16    9   10 1   
    17    9   15 1   
    18    9   16 1   
    19   10   11 2   
    20   11   12 1   
    21   12   13 1   
    22   12   37 1   
    23   12   54 1   
    24   13   14 1   
    25   13   17 1   
    26   13   38 1   
    27   14   24 1   
    28   14   39 1   
    29   14   40 1   
    30   15   41 1   
    31   15   42 1   
    32   15   43 1   
    33   16   44 1   
    34   16   45 1   
    35   16   46 1   
    36   17   18 1   
    37   17   22 2   
    38   18   19 1   
    39   18   47 1   
    40   19   20 2   
    41   19   48 1   
    42   20   21 1   
    43   20   30 1   
    44   21   22 1   
    45   21   23 2   
    46   24   25 ar  
    47   24   29 ar  
    48   25   26 ar  
    49   25   49 1   
    50   26   27 ar  
    51   26   50 1   
    52   27   28 ar  
    53   27   51 1   
    54   28   29 ar  
    55   28   52 1   
    56   29   53 1   
    57   30   31 3   
@<TRIPOS>SUBSTRUCTURE
     1 1BB         1 TEMP              0 ****  ****    0 ROOT
