@<TRIPOS>MOLECULE
1BB
   54    57     1     0     0
SMALL
bcc


@<TRIPOS>ATOM
      1 CL1        -0.0000    0.0420    0.0570 cl        1 1BB     -0.024400
      2 C1          1.6850   -0.0490    0.0400 ca        1 1BB      0.061400
      3 C2          2.4020    0.0710    1.2340 ca        1 1BB     -0.118000
      4 C3          3.7970   -0.0020    1.2220 ca        1 1BB     -0.012300
      5 C4          4.4740   -0.1900   -0.0010 ca        1 1BB     -0.223900
      6 C5          3.7490   -0.3200   -1.1900 ca        1 1BB     -0.100000
      7 C6          2.3600   -0.2480   -1.1730 ca        1 1BB     -0.116000
      8 C9          4.5600    0.1530    2.4890 c3        1 1BB     -0.078100
      9 C10         5.9500   -0.5260    2.4700 c3        1 1BB      0.148200
     10 N11         6.6380   -0.3950    1.1810 n2        1 1BB     -0.558900
     11 C12         5.9480   -0.2550    0.0990 ce        1 1BB      0.570800
     12 N13         6.6660   -0.1040   -1.2020 n4        1 1BB     -0.723000
     13 C14         8.1680   -0.0520   -1.1350 c3        1 1BB      0.106200
     14 C15         8.7700   -0.0910   -2.5530 c3        1 1BB     -0.058100
     15 C27         6.8040    0.1320    3.5680 c3        1 1BB     -0.092600
     16 C28         5.7830   -2.0140    2.8310 c3        1 1BB     -0.092600
     17 C7          8.6610    1.2280   -0.4330 cc        1 1BB      0.634200
     18 N8          9.8700    1.1280    0.2640 na        1 1BB     -0.703000
     19 C11        10.3610    2.2670    0.8800 cc        1 1BB      0.134000
     20 C13         9.6830    3.4570    0.8060 cd        1 1BB     -0.121900
     21 C19         8.3970    3.5330    0.0680 c         1 1BB      0.707700
     22 N24         7.9550    2.3240   -0.5570 nd        1 1BB     -0.701100
     23 O25         7.7050    4.5500   -0.0300 o         1 1BB     -0.471100
     24 C26         8.2880   -1.2750   -3.3120 ca        1 1BB     -0.161300
     25 C29         7.2380   -1.1390   -4.2300 ca        1 1BB     -0.132500
     26 C30         6.8080   -2.2400   -4.9690 ca        1 1BB     -0.113500
     27 C31         7.4210   -3.4820   -4.7960 ca        1 1BB     -0.097000
     28 C32         8.4690   -3.6200   -3.8860 ca        1 1BB     -0.113500
     29 C33         8.9040   -2.5210   -3.1470 ca        1 1BB     -0.132500
     30 C8         10.1840    4.6230    1.4260 ch        1 1BB      0.186500
     31 N9         10.5840    5.5910    1.9320 n1        1 1BB     -0.292800
     32 H1          1.8710    0.2250    2.1890 ha        1 1BB      0.173000
     33 H2          4.2420   -0.4900   -2.1590 ha        1 1BB      0.124000
     34 H3          1.7920   -0.3490   -2.1130 ha        1 1BB      0.171000
     35 H4          4.6880    1.2540    2.6870 hc        1 1BB      0.090700
     36 H5          3.9740   -0.2720    3.3480 hc        1 1BB      0.090700
     37 H6          6.3120    0.7640   -1.6380 hn        1 1BB      0.478800
     38 H7          8.5040   -0.9710   -0.5640 hx        1 1BB      0.124700
     39 H8          8.5260    0.8600   -3.1020 hc        1 1BB      0.097700
     40 H9          9.8870   -0.1310   -2.4370 hc        1 1BB      0.097700
     41 H10         6.2540    0.0490    4.5370 hc        1 1BB      0.059367
     42 H11         7.7870   -0.3870    3.6660 hc        1 1BB      0.059367
     43 H12         6.9820    1.2120    3.3500 hc        1 1BB      0.059367
     44 H13         5.0920   -2.5210    2.1170 hc        1 1BB      0.059367
     45 H14         6.7680   -2.5390    2.8260 hc        1 1BB      0.059367
     46 H15         5.3510   -2.0840    3.8590 hc        1 1BB      0.059367
     47 H16        10.3370    0.2570    0.3660 hn        1 1BB      0.472800
     48 H17        11.3210    2.1530    1.4200 h4        1 1BB      0.192000
     49 H18         6.7800   -0.1530   -4.4040 ha        1 1BB      0.136000
     50 H19         5.9930   -2.1250   -5.7020 ha        1 1BB      0.156000
     51 H20         7.0850   -4.3490   -5.3870 ha        1 1BB      0.159000
     52 H21         8.9630   -4.5960   -3.7590 ha        1 1BB      0.156000
     53 H22         9.7460   -2.6310   -2.4460 ha        1 1BB      0.136000
     54 H132        6.4100   -0.9040   -1.8030 hn        1 1BB      0.478800
@<TRIPOS>BOND
     1    1    2 1   
     2    2    3 ar  
     3    2    7 ar  
     4    3    4 ar  
     5    3   32 1   
     6    4    5 ar  
     7    4    8 1   
     8    5    6 ar  
     9    5   11 1   
    10    6    7 ar  
    11    6   33 1   
    12    7   34 1   
    13    8    9 1   
    14    8   35 1   
    15    8   36 1   
    16    9   10 1   
    17    9   15 1   
    18    9   16 1   
    19   10   11 2   
    20   11   12 1   
    21   12   13 1   
    22   12   37 1   
    23   12   54 1   
    24   13   14 1   
    25   13   17 1   
    26   13   38 1   
    27   14   24 1   
    28   14   39 1   
    29   14   40 1   
    30   15   41 1   
    31   15   42 1   
    32   15   43 1   
    33   16   44 1   
    34   16   45 1   
    35   16   46 1   
    36   17   18 1   
    37   17   22 2   
    38   18   19 1   
    39   18   47 1   
    40   19   20 2   
    41   19   48 1   
    42   20   21 1   
    43   20   30 1   
    44   21   22 1   
    45   21   23 2   
    46   24   25 ar  
    47   24   29 ar  
    48   25   26 ar  
    49   25   49 1   
    50   26   27 ar  
    51   26   50 1   
    52   27   28 ar  
    53   27   51 1   
    54   28   29 ar  
    55   28   52 1   
    56   29   53 1   
    57   30   31 3   
@<TRIPOS>SUBSTRUCTURE
     1 1BB         1 TEMP              0 ****  ****    0 ROOT
