@<TRIPOS>MOLECULE
1BB
   54    59     1     0     0
SMALL
bcc


@<TRIPOS>ATOM
      1 Cl1         0.0000    0.0000    0.0000 cl        1 1BB      0.124000
      2 C1          1.7360    0.0000    0.0000 ca        1 1BB     -0.082000
      3 C2          2.4260    0.0000    1.2040 ca        1 1BB     -0.097000
      4 C3          3.8020   -0.0000    1.2030 ca        1 1BB      0.049000
      5 C4          4.5010   -0.0000   -0.0060 ca        1 1BB     -0.132000
      6 C5          3.8060    0.0010   -1.2110 ca        1 1BB     -0.125000
      7 C6          2.4240   -0.0050   -1.2010 ca        1 1BB     -0.100000
      8 C9          4.5820   -0.0020    2.4920 c3        1 1BB     -0.353000
      9 C10         5.8730   -0.7970    2.3080 DU        1 1BB      0.154000
     10 N11         6.5970   -0.3610    1.1180 n2        1 1BB     -0.053000
     11 C12         5.9800    0.0000    0.0300 c2        1 1BB     -0.209000
     12 N13         6.7000    0.3810   -1.0810 ny        1 1BB      0.757000
     13 C14         8.1620    0.2820   -1.0750 c3        1 1BB     -0.056000
     14 C15         8.6670    0.1030   -2.5080 c3        1 1BB     -0.605000
     15 C27         6.7640   -0.6000    3.5350 c3        1 1BB     -0.182500
     16 C28         5.5310   -2.2820    2.1700 c3        1 1BB     -0.182500
     17 C7          8.7480    1.5420   -0.4900 c2        1 1BB     -0.096000
     18 N8          9.8710    1.4500    0.2450 na        1 1BB      0.331000
     19 C11        10.4480    2.5430    0.7910 c2        1 1BB     -0.140000
     20 C13         9.8640    3.7780    0.5870 c2        1 1BB     -0.077000
     21 C19         8.6360    3.8290   -0.2240 c2        1 1BB      0.308000
     22 N24         8.1480    2.6770   -0.7210 n2        1 1BB     -0.209000
     23 O25         8.0740    4.8890   -0.4410 o         1 1BB     -0.298000
     24 C26         8.1910   -1.2210   -3.0470 c3        1 1BB     -0.085000
     25 C29         7.0400   -1.2820   -3.8110 c2        1 1BB     -0.056500
     26 C30         6.6030   -2.4970   -4.3060 c2        1 1BB     -0.088500
     27 C31         7.3160   -3.6500   -4.0360 c2        1 1BB     -0.016000
     28 C32         8.4660   -3.5880   -3.2710 c2        1 1BB     -0.088500
     29 C33         8.9070   -2.3730   -2.7820 c2        1 1BB     -0.056500
     30 C8         10.4340    4.9690    1.1440 c1        1 1BB     -0.108000
     31 N9         10.8840    5.9210    1.5670 n1        1 1BB      0.012000
     32 H1          1.6950   -0.0380    2.0020 ha        1 1BB      0.142000
     33 H2          4.1080    0.3340   -2.1960 ha        1 1BB      0.114000
     34 H3          2.0750    0.0560   -2.2250 ha        1 1BB      0.130000
     35 H4          3.9380    0.3810    3.2750 hc        1 1BB      0.185000
     36 H5          4.9350   -1.0060    2.6950 DU        1 1BB      0.170000
     37 H6          6.3530   -0.3170   -1.7090 hn        1 1BB      0.038500
     38 H7          8.4650   -0.5690   -0.4760 hx        1 1BB      0.132000
     39 H8          8.3830   -0.6720   -3.2090 DU        1 1BB      0.287000
     40 H9          8.5230    0.9620   -3.1520 hc        1 1BB      0.154000
     41 H10         6.5770   -1.3250    4.3190 hc        1 1BB      0.072167
     42 H11         7.8020   -0.5790    3.2240 hc        1 1BB      0.072167
     43 H12         6.7210    0.3230    4.1000 hc        1 1BB      0.072167
     44 H13         5.2610   -2.9090    3.0120 hc        1 1BB      0.072167
     45 H14         6.2710   -2.8010    1.5740 hc        1 1BB      0.072167
     46 H15         4.6420   -2.4240    1.5670 hc        1 1BB      0.072167
     47 H16        10.2240    0.5330    0.0540 hn        1 1BB      0.094000
     48 H17        11.4120    2.5850    1.2830 h4        1 1BB      0.163000
     49 H18         6.7300   -0.2550   -3.9630 ha        1 1BB      0.137500
     50 H19         5.6230   -2.7320   -4.7030 ha        1 1BB      0.137500
     51 H20         7.0310   -4.6300   -4.4000 ha        1 1BB      0.132000
     52 H21         9.0640   -4.4910   -3.2700 ha        1 1BB      0.137500
     53 H22         9.9760   -2.5030   -2.8990 ha        1 1BB      0.137500
     54 H132        6.0930    0.9660   -1.6200 hn        1 1BB      0.038500
@<TRIPOS>BOND
     1    1    2 1   
     2    2    3 1   
     3    2    7 1   
     4    3    4 1   
     5    3   32 1   
     6    4    5 1   
     7    4    8 1   
     8    5    6 1   
     9    5   11 1   
    10    6    7 1   
    11    6   33 1   
    12    7   34 1   
    13    8    9 1   
    14    8   35 1   
    15    8   36 1   
    16    9   10 1   
    17    9   15 1   
    18    9   16 1   
    19    9   36 1   
    20   10   11 1   
    21   11   12 1   
    22   12   13 1   
    23   12   37 1   
    24   12   54 1   
    25   13   14 1   
    26   13   17 1   
    27   13   38 1   
    28   14   24 1   
    29   14   39 1   
    30   14   40 1   
    31   15   41 1   
    32   15   42 1   
    33   15   43 1   
    34   16   44 1   
    35   16   45 1   
    36   16   46 1   
    37   17   18 1   
    38   17   22 1   
    39   18   19 1   
    40   18   47 1   
    41   19   20 1   
    42   19   48 1   
    43   20   21 1   
    44   20   30 1   
    45   21   22 1   
    46   21   23 1   
    47   24   25 1   
    48   24   29 1   
    49   24   39 1   
    50   25   26 1   
    51   25   49 1   
    52   26   27 1   
    53   26   50 1   
    54   27   28 1   
    55   27   51 1   
    56   28   29 1   
    57   28   52 1   
    58   29   53 1   
    59   30   31 1   
@<TRIPOS>SUBSTRUCTURE
     1 1BB         1 TEMP              0 ****  ****    0 ROOT
