@<TRIPOS>MOLECULE
1BB
   53    56     1     0     0
SMALL
bcc


@<TRIPOS>ATOM
      1 CL1        -5.9040    2.4510   -1.2020 cl        1 1BB     -0.082400
      2 C1         -4.4240    1.7660   -0.7280 ca        1 1BB      0.039400
      3 C2         -3.6740    2.3740    0.2830 ca        1 1BB     -0.132000
      4 C3         -2.4550    1.8130    0.6720 ca        1 1BB     -0.037300
      5 C4         -1.9790    0.6520    0.0340 ca        1 1BB     -0.182900
      6 C5         -2.7510    0.0420   -0.9580 ca        1 1BB     -0.081000
      7 C6         -3.9700    0.5970   -1.3440 ca        1 1BB     -0.136000
      8 C9         -1.6550    2.4420    1.7550 c3        1 1BB     -0.066100
      9 C10        -0.7730    1.4130    2.5030 c3        1 1BB      0.155200
     10 N11        -0.0840    0.4880    1.6100 n2        1 1BB     -0.691900
     11 C12        -0.6580    0.1240    0.4900 ce        1 1BB      0.669800
     12 N13        -0.0640   -0.8410   -0.3590 nh        1 1BB     -0.787200
     13 C14         1.2290   -1.3880   -0.0250 c3        1 1BB      0.187200
     14 C15         1.6320   -2.5570   -0.9460 c3        1 1BB     -0.035100
     15 C27         0.2660    2.2140    3.3100 c3        1 1BB     -0.086600
     16 C28        -1.6600    0.6620    3.5130 c3        1 1BB     -0.086600
     17 C7          2.3530   -0.3170   -0.1010 cc        1 1BB      0.611200
     18 N8          2.9130    0.0890    1.1230 na        1 1BB     -0.691000
     19 C11         3.8820    1.0660    1.1080 cc        1 1BB      0.138000
     20 C13         4.3370    1.5920   -0.0770 cd        1 1BB     -0.174900
     21 C19         3.7330    1.1410   -1.3570 c         1 1BB      0.705700
     22 N24         2.7140    0.1490   -1.2720 nd        1 1BB     -0.674100
     23 O25         4.0750    1.5870   -2.4620 o         1 1BB     -0.519100
     24 C26         0.7780   -3.7540   -0.7220 ca        1 1BB     -0.081300
     25 C29        -0.1310   -4.1680   -1.7010 ca        1 1BB     -0.122000
     26 C30        -0.9160   -5.3030   -1.4960 ca        1 1BB     -0.126500
     27 C31        -0.7980   -6.0320   -0.3140 ca        1 1BB     -0.126000
     28 C32         0.1090   -5.6250    0.6650 ca        1 1BB     -0.126500
     29 C33         0.8950   -4.4930    0.4620 ca        1 1BB     -0.122000
     30 C8          5.3600    2.5640   -0.0970 ch        1 1BB      0.218500
     31 N9          6.2030    3.3660   -0.1240 n1        1 1BB     -0.357800
     32 H1         -4.0390    3.2880    0.7760 ha        1 1BB      0.153000
     33 H2         -2.4240   -0.8930   -1.4410 ha        1 1BB      0.150000
     34 H3         -4.5700    0.1120   -2.1290 ha        1 1BB      0.153000
     35 H4         -0.9990    3.2360    1.3010 hc        1 1BB      0.067200
     36 H5         -2.3290    2.9470    2.4950 hc        1 1BB      0.067200
     37 H6         -0.1690   -0.6220   -1.3310 hn        1 1BB      0.424800
     38 H7          1.1690   -1.7900    1.0330 h1        1 1BB      0.088700
     39 H8          1.5870   -2.2390   -2.0220 hc        1 1BB      0.073700
     40 H9          2.7020   -2.8120   -0.7180 hc        1 1BB      0.073700
     41 H10        -0.2710    2.9330    3.9740 hc        1 1BB      0.041700
     42 H11         0.8790    1.5300    3.9430 hc        1 1BB      0.041700
     43 H12         0.9440    2.7880    2.6350 hc        1 1BB      0.041700
     44 H13        -2.4870    0.1310    2.9860 hc        1 1BB      0.041700
     45 H14        -1.0580   -0.0830    4.0860 hc        1 1BB      0.041700
     46 H15        -2.1000    1.3930    4.2320 hc        1 1BB      0.041700
     47 H16         2.4670   -0.1640    1.9780 hn        1 1BB      0.476800
     48 H17         4.2790    1.3830    2.0910 h4        1 1BB      0.168000
     49 H18        -0.2260   -3.5980   -2.6370 ha        1 1BB      0.129000
     50 H19        -1.6270   -5.6230   -2.2720 ha        1 1BB      0.133000
     51 H20        -1.4170   -6.9270   -0.1530 ha        1 1BB      0.133000
     52 H21         0.2060   -6.2000    1.5980 ha        1 1BB      0.133000
     53 H22         1.6130   -4.1780    1.2340 ha        1 1BB      0.129000
@<TRIPOS>BOND
     1    1    2 1   
     2    2    3 ar  
     3    2    7 ar  
     4    3    4 ar  
     5    3   32 1   
     6    4    5 ar  
     7    4    8 1   
     8    5    6 ar  
     9    5   11 1   
    10    6    7 ar  
    11    6   33 1   
    12    7   34 1   
    13    8    9 1   
    14    8   35 1   
    15    8   36 1   
    16    9   10 1   
    17    9   15 1   
    18    9   16 1   
    19   10   11 2   
    20   11   12 1   
    21   12   13 1   
    22   12   37 1   
    23   13   14 1   
    24   13   17 1   
    25   13   38 1   
    26   14   24 1   
    27   14   39 1   
    28   14   40 1   
    29   15   41 1   
    30   15   42 1   
    31   15   43 1   
    32   16   44 1   
    33   16   45 1   
    34   16   46 1   
    35   17   18 1   
    36   17   22 2   
    37   18   19 1   
    38   18   47 1   
    39   19   20 2   
    40   19   48 1   
    41   20   21 1   
    42   20   30 1   
    43   21   22 1   
    44   21   23 2   
    45   24   25 ar  
    46   24   29 ar  
    47   25   26 ar  
    48   25   49 1   
    49   26   27 ar  
    50   26   50 1   
    51   27   28 ar  
    52   27   51 1   
    53   28   29 ar  
    54   28   52 1   
    55   29   53 1   
    56   30   31 3   
@<TRIPOS>SUBSTRUCTURE
     1 1BB         1 TEMP              0 ****  ****    0 ROOT
