@<TRIPOS>MOLECULE
1BB
   53    50     1     0     0
SMALL
bcc


@<TRIPOS>ATOM
      1 CL1        -5.9920    3.5370    1.4360 cl        1 1BB     -0.004000
      2 C1         -4.6360    2.5240    1.0340 c2        1 1BB     -0.039000
      3 C2         -4.1610    1.5980    1.9560 c2        1 1BB     -0.132000
      4 C3         -3.0260    0.8170    1.6530 c1        1 1BB     -0.030000
      5 C4         -2.3940    0.9710    0.4550 c1        1 1BB     -0.099000
      6 C5         -2.8740    1.9100   -0.4790 c1        1 1BB     -0.081000
      7 C6         -3.9950    2.6800   -0.1800 c1        1 1BB     -0.136000
      8 C9         -2.5970   -0.2980    2.6010 c3        1 1BB     -0.152000
      9 C10        -1.5340   -1.2970    2.1380 c3        1 1BB      0.030000
     10 N11        -0.6500   -0.7910    1.1050 n2        1 1BB     -0.279000
     11 C12        -1.1330    0.1690    0.1530 c2        1 1BB      0.146000
     12 N13        -0.3690    0.4460   -1.0460 n3        1 1BB     -0.272000
     13 C14         1.0290    0.1920   -1.0710 c3        1 1BB      0.065000
     14 C15         1.4700   -0.0670   -2.4990 c3        1 1BB     -0.121000
     15 C27        -0.7110   -1.7520    3.3330 c3        1 1BB     -0.204500
     16 C28        -2.1660   -2.6130    1.7190 c3        1 1BB     -0.204500
     17 C7          1.7770    1.4040   -0.5180 c1        1 1BB      0.096000
     18 N8          3.0110    1.2160    0.2480 n2        1 1BB     -0.252000
     19 C11         3.6880    2.3440    0.7950 c2        1 1BB      0.056000
     20 C13         3.1260    3.6950    0.6160 c1        1 1BB     -0.189000
     21 C19         1.8870    3.8740   -0.1530 c2        1 1BB      0.308000
     22 N24         1.2650    2.7530   -0.7650 n2        1 1BB     -0.247000
     23 O25         1.3690    4.9690   -0.2240 o         1 1BB     -0.280000
     24 C26         1.8070   -1.5590   -2.6700 c2        1 1BB     -0.074000
     25 C29         1.0360   -2.3540   -3.5120 c2        1 1BB     -0.117000
     26 C30         1.3550   -3.6960   -3.6860 c1        1 1BB     -0.127000
     27 C31         2.4430   -4.2430   -3.0180 c1        1 1BB     -0.126000
     28 C32         3.2120   -3.4500   -2.1770 c1        1 1BB     -0.126000
     29 C33         2.8930   -2.1070   -2.0040 c1        1 1BB     -0.127000
     30 C8          3.7480    4.8830    1.3420 c1        1 1BB     -0.074000
     31 N9          4.2160    5.7770    1.8880 n1        1 1BB     -0.032000
     32 H1         -4.6040    1.4980    2.8190 ha        1 1BB      0.153000
     33 H2         -2.4200    2.0200   -1.3390 ha        1 1BB      0.150000
     34 H3         -4.3570    3.2950   -0.8470 ha        1 1BB      0.153000
     35 H4         -2.2640    0.1250    3.4210 hc        1 1BB      0.106500
     36 H5         -3.3980   -0.8100    2.8340 hc        1 1BB      0.106500
     37 H6         -0.8020    0.7050   -1.8140 hn        1 1BB      0.220000
     38 H7          1.2280   -0.5910   -0.5220 h1        1 1BB      0.128000
     39 H8          2.2620    0.4700   -2.6980 hc        1 1BB      0.113000
     40 H9          0.7500    0.1770   -3.1110 hc        1 1BB      0.113000
     41 H10        -1.2880   -2.2250    3.9650 hc        1 1BB      0.081000
     42 H11         0.0030   -2.3550    3.0290 hc        1 1BB      0.081000
     43 H12        -0.3110   -0.9660    3.7770 hc        1 1BB      0.081000
     44 H13        -3.0720   -2.4470    1.3800 hc        1 1BB      0.081000
     45 H14        -1.6220   -3.0270    1.0130 hc        1 1BB      0.081000
     46 H15        -2.2110   -3.2140    2.4930 hc        1 1BB      0.081000
     47 H16         3.3540    0.3870    0.3560 hn        1 1BB      0.272000
     48 H17         4.5110    2.2200    1.3050 h4        1 1BB      0.168000
     49 H18         0.2690   -1.9670   -3.9830 ha        1 1BB      0.132000
     50 H19         0.8070   -4.2610   -4.2850 ha        1 1BB      0.133000
     51 H20         2.6670   -5.1880   -3.1400 ha        1 1BB      0.133000
     52 H21         3.9730   -3.8320   -1.7110 ha        1 1BB      0.133000
     53 H22         3.4350   -1.5490   -1.4120 ha        1 1BB      0.126000
@<TRIPOS>BOND
     1    1    2 1   
     2    2    3 1   
     3    2    7 1   
     4    3    4 1   
     5    3   32 1   
     6    4    8 1   
     7    5    6 1   
     8    5   11 1   
     9    6   33 1   
    10    7   34 1   
    11    8    9 1   
    12    8   35 1   
    13    8   36 1   
    14    9   10 1   
    15    9   15 1   
    16    9   16 1   
    17   10   11 1   
    18   11   12 1   
    19   12   13 1   
    20   12   37 1   
    21   13   14 1   
    22   13   17 1   
    23   13   38 1   
    24   14   24 1   
    25   14   39 1   
    26   14   40 1   
    27   15   41 1   
    28   15   42 1   
    29   15   43 1   
    30   16   44 1   
    31   16   45 1   
    32   16   46 1   
    33   17   22 1   
    34   18   19 1   
    35   18   47 1   
    36   19   20 1   
    37   19   48 1   
    38   20   21 1   
    39   21   22 1   
    40   21   23 1   
    41   24   25 1   
    42   24   29 1   
    43   25   26 1   
    44   25   49 1   
    45   26   50 1   
    46   27   28 1   
    47   27   51 1   
    48   28   52 1   
    49   29   53 1   
    50   30   31 1   
@<TRIPOS>SUBSTRUCTURE
     1 1BB         1 TEMP              0 ****  ****    0 ROOT
