@<TRIPOS>MOLECULE
1BC
   65    69     1     0     0
SMALL
bcc


@<TRIPOS>ATOM
      1 CL1         0.0050    0.6530   -0.7190 cl        1 1BC     -0.091400
      2 C1          1.6980    0.5470   -0.6180 ca        1 1BC      0.035400
      3 C6          2.3930    1.3480    0.2920 ca        1 1BC     -0.142000
      4 C5          3.7810    1.2540    0.3720 ca        1 1BC     -0.066000
      5 C4          4.4850    0.3650   -0.4510 ca        1 1BC     -0.130900
      6 C12         5.9770    0.2530   -0.3530 ce        1 1BC      0.680800
      7 N11         6.6230   -0.5420   -1.3240 nh        1 1BC     -0.844200
      8 C10         5.9330   -0.9070   -2.5580 c3        1 1BC      0.222200
      9 C28         6.6720   -2.0700   -3.2450 c3        1 1BC     -0.109600
     10 C27         5.8650    0.2530   -3.5690 c3        1 1BC     -0.109600
     11 C9          4.4970   -1.3820   -2.2540 c3        1 1BC     -0.039100
     12 C3          3.7790   -0.4300   -1.3690 ca        1 1BC     -0.047300
     13 C2          2.3860   -0.3400   -1.4490 ca        1 1BC     -0.138000
     14 N13         6.5570    0.8270    0.6720 n2        1 1BC     -0.660900
     15 C14         7.9840    0.8220    0.8650 c3        1 1BC      0.129200
     16 C15         8.4060    1.8130    1.9730 c3        1 1BC      0.002900
     17 C11         8.2630    3.2160    1.5330 cc        1 1BC     -0.091300
     18 C13         9.1950    3.8810    0.6520 cc        1 1BC     -0.029000
     19 C16         8.7970    5.1820    0.3930 cd        1 1BC     -0.175100
     20 S17         7.3910    5.5760    1.1860 ss        1 1BC      0.015200
     21 C18         7.2310    4.0620    1.9030 cd        1 1BC     -0.083400
     22 C19         6.0990    3.7410    2.7900 c3        1 1BC     -0.016100
     23 C20         6.4490    3.9240    4.2580 c3        1 1BC     -0.076400
     24 C21         5.2770    3.5830    5.1410 c3        1 1BC     -0.094100
     25 C23        10.3850    3.2930    0.1180 cc        1 1BC     -0.182300
     26 C24        10.8100    3.2810   -1.2250 cd        1 1BC     -0.140300
     27 N25        12.0450    2.6310   -1.2390 na        1 1BC     -0.024600
     28 N26        12.4300    2.2420   -0.0230 nd        1 1BC     -0.519800
     29 C29        11.4540    2.6230    0.8390 cc        1 1BC      0.308200
     30 C30         8.5170   -0.5790    1.2660 ce        1 1BC      0.653300
     31 N31         8.2010   -1.0770    2.4340 nf        1 1BC     -0.635100
     32 C32         8.7000   -2.3640    2.7920 c         1 1BC      0.679500
     33 C33         9.5940   -3.1190    1.8180 c3        1 1BC     -0.312700
     34 C34         9.8170   -2.3700    0.5450 c2        1 1BC      0.475200
     35 N35         9.3330   -1.2050    0.2640 ne        1 1BC     -0.698000
     36 O36         8.4150   -2.8660    3.8850 o         1 1BC     -0.499100
     37 H1          1.8520    2.0470    0.9460 ha        1 1BC      0.151000
     38 H2          4.3160    1.8910    1.0980 ha        1 1BC      0.166000
     39 H3          7.5890   -0.3390   -1.4760 hn        1 1BC      0.418800
     40 H4          6.7570   -2.9470   -2.5610 hc        1 1BC      0.044200
     41 H5          7.6960   -1.7550   -3.5570 hc        1 1BC      0.044200
     42 H6          6.0990   -2.3750   -4.1520 hc        1 1BC      0.044200
     43 H7          5.3710   -0.0970   -4.5060 hc        1 1BC      0.044200
     44 H8          6.8900    0.6140   -3.8220 hc        1 1BC      0.044200
     45 H9          5.2750    1.1030   -3.1500 hc        1 1BC      0.044200
     46 H10         4.5360   -2.3870   -1.7510 hc        1 1BC      0.065700
     47 H11         3.9510   -1.5080   -3.2250 hc        1 1BC      0.065700
     48 H12         1.8380   -0.9690   -2.1670 ha        1 1BC      0.148000
     49 H13         8.5300    1.1450   -0.0780 h1        1 1BC      0.066700
     50 H14         7.8020    1.6360    2.9030 hc        1 1BC      0.068200
     51 H15         9.4840    1.6090    2.2150 hc        1 1BC      0.068200
     52 H16         9.3380    5.8830   -0.2400 h4        1 1BC      0.169000
     53 H17         5.2210    4.3960    2.5370 hc        1 1BC      0.059700
     54 H18         5.7780    2.6760    2.6180 hc        1 1BC      0.059700
     55 H19         7.3210    3.2670    4.5150 hc        1 1BC      0.043700
     56 H20         6.7660    4.9840    4.4410 hc        1 1BC      0.043700
     57 H21         4.9660    2.5210    4.9920 hc        1 1BC      0.034367
     58 H22         5.5490    3.7230    6.2150 hc        1 1BC      0.034367
     59 H23         4.4030    4.2400    4.9110 hc        1 1BC      0.034367
     60 H24        10.3410    3.6700   -2.1270 h4        1 1BC      0.177000
     61 H25        12.6160    2.4490   -2.0290 hn        1 1BC      0.319700
     62 H26        11.5200    2.4440    1.9120 h4        1 1BC      0.047100
     63 H27         9.1210   -4.1130    1.5930 hc        1 1BC      0.109700
     64 H28        10.5800   -3.3210    2.3160 hc        1 1BC      0.109700
     65 H29        10.4530   -2.8630   -0.2170 h4        1 1BC      0.031800
@<TRIPOS>BOND
     1    1    2 1   
     2    2    3 ar  
     3    2   13 ar  
     4    3    4 ar  
     5    3   37 1   
     6    4    5 ar  
     7    4   38 1   
     8    5    6 1   
     9    5   12 ar  
    10    6    7 1   
    11    6   14 2   
    12    7    8 1   
    13    7   39 1   
    14    8    9 1   
    15    8   10 1   
    16    8   11 1   
    17    9   40 1   
    18    9   41 1   
    19    9   42 1   
    20   10   43 1   
    21   10   44 1   
    22   10   45 1   
    23   11   12 1   
    24   11   46 1   
    25   11   47 1   
    26   12   13 ar  
    27   13   48 1   
    28   14   15 1   
    29   15   16 1   
    30   15   30 1   
    31   15   49 1   
    32   16   17 1   
    33   16   50 1   
    34   16   51 1   
    35   17   18 1   
    36   17   21 2   
    37   18   19 2   
    38   18   25 1   
    39   19   20 1   
    40   19   52 1   
    41   20   21 1   
    42   21   22 1   
    43   22   23 1   
    44   22   53 1   
    45   22   54 1   
    46   23   24 1   
    47   23   55 1   
    48   23   56 1   
    49   24   57 1   
    50   24   58 1   
    51   24   59 1   
    52   25   26 2   
    53   25   29 1   
    54   26   27 1   
    55   26   60 1   
    56   27   28 1   
    57   27   61 1   
    58   28   29 2   
    59   29   62 1   
    60   30   31 2   
    61   30   35 1   
    62   31   32 1   
    63   32   33 1   
    64   32   36 2   
    65   33   34 1   
    66   33   63 1   
    67   33   64 1   
    68   34   35 2   
    69   34   65 1   
@<TRIPOS>SUBSTRUCTURE
     1 1BC         1 TEMP              0 ****  ****    0 ROOT
