@<TRIPOS>MOLECULE
1BC
   65    69     1     0     0
SMALL
bcc


@<TRIPOS>ATOM
      1 Cl1        -0.0140    0.6140   -0.5800 cl        1 1BC     -0.091400
      2 C1          1.6820    0.5160   -0.5120 ca        1 1BC      0.035400
      3 C6          2.3900    1.3170    0.3870 ca        1 1BC     -0.142000
      4 C5          3.7800    1.2300    0.4390 ca        1 1BC     -0.066000
      5 C4          4.4720    0.3470   -0.4000 ca        1 1BC     -0.130900
      6 C12         5.9660    0.2420   -0.3310 ce        1 1BC      0.680800
      7 N11         6.5960   -0.5500   -1.3150 nu        1 1BC     -0.844200
      8 C10         5.8850   -0.9130   -2.5370 c3        1 1BC      0.222200
      9 C28         6.6160   -2.0710   -3.2410 c3        1 1BC     -0.109600
     10 C27         5.7950    0.2500   -3.5430 c3        1 1BC     -0.109600
     11 C9          4.4570   -1.3940   -2.2090 c3        1 1BC     -0.039100
     12 C3          3.7520   -0.4490   -1.3070 ca        1 1BC     -0.047300
     13 C2          2.3570   -0.3650   -1.3600 ca        1 1BC     -0.138000
     14 N13         6.5640    0.8190    0.6820 n2        1 1BC     -0.660900
     15 C14         7.9940    0.8200    0.8470 c3        1 1BC      0.129200
     16 C15         8.4340    1.8190    1.9410 c3        1 1BC      0.002900
     17 C11         8.2790    3.2190    1.4950 cc        1 1BC     -0.091300
     18 C13         9.1920    3.8810    0.5920 cc        1 1BC     -0.029000
     19 C16         8.7860    5.1780    0.3330 cd        1 1BC     -0.175100
     20 S17         7.3950    5.5740    1.1510 ss        1 1BC      0.015200
     21 C18         7.2520    4.0650    1.8800 cd        1 1BC     -0.083400
     22 C19         6.1390    3.7480    2.7910 c3        1 1BC     -0.016100
     23 C20         6.5160    3.9400    4.2500 c3        1 1BC     -0.076400
     24 C21         5.3620    3.6020    5.1580 c3        1 1BC     -0.094100
     25 C23        10.3730    3.2920    0.0390 cc        1 1BC     -0.182300
     26 C24        10.7720    3.2720   -1.3120 cd        1 1BC     -0.140300
     27 N25        12.0070    2.6240   -1.3470 na        1 1BC     -0.024600
     28 N26        12.4170    2.2430   -0.1360 nd        1 1BC     -0.519800
     29 C29        11.4570    2.6280    0.7430 cc        1 1BC      0.308200
     30 C30         8.5390   -0.5770    1.2460 ce        1 1BC      0.653300
     31 N31         8.2520   -1.0670    2.4240 nf        1 1BC     -0.635100
     32 C32         8.7620   -2.3520    2.7790 c         1 1BC      0.679500
     33 C33         9.6310   -3.1120    1.7880 c3        1 1BC     -0.312700
     34 C34         9.8240   -2.3710    0.5050 c2        1 1BC      0.475200
     35 N35         9.3320   -1.2090    0.2290 ne        1 1BC     -0.698000
     36 O36         8.5040   -2.8460    3.8820 o         1 1BC     -0.499100
     37 H1          1.8580    2.0120    1.0540 ha        1 1BC      0.151000
     38 H2          4.3250    1.8670    1.1570 ha        1 1BC      0.166000
     39 H3          7.5600   -0.3460   -1.4830 hn        1 1BC      0.418800
     40 H4          6.0280   -2.3750   -4.1390 hc        1 1BC      0.044200
     41 H5          6.7160   -2.9510   -2.5620 hc        1 1BC      0.044200
     42 H6          7.6330   -1.7520   -3.5710 hc        1 1BC      0.044200
     43 H7          6.8150    0.6150   -3.8130 hc        1 1BC      0.044200
     44 H8          5.2110    1.0960   -3.1100 hc        1 1BC      0.044200
     45 H9          5.2860   -0.0990   -4.4720 hc        1 1BC      0.044200
     46 H10         3.8940   -1.5190   -3.1700 hc        1 1BC      0.065700
     47 H11         4.5080   -2.4010   -1.7110 hc        1 1BC      0.065700
     48 H12         1.7980   -0.9940   -2.0690 ha        1 1BC      0.148000
     49 H13         8.5210    1.1400   -0.1070 h1        1 1BC      0.066700
     50 H14         9.5170    1.6190    2.1650 hc        1 1BC      0.068200
     51 H15         7.8480    1.6460    2.8840 hc        1 1BC      0.068200
     52 H16         9.3130    5.8770   -0.3150 h4        1 1BC      0.169000
     53 H17         5.2550    4.4000    2.5510 hc        1 1BC      0.059700
     54 H18         5.8160    2.6810    2.6310 hc        1 1BC      0.059700
     55 H19         6.8350    5.0010    4.4210 hc        1 1BC      0.043700
     56 H20         7.3940    3.2850    4.4940 hc        1 1BC      0.043700
     57 H21         5.6560    3.7480    6.2260 hc        1 1BC      0.034367
     58 H22         5.0510    2.5380    5.0210 hc        1 1BC      0.034367
     59 H23         4.4830    4.2560    4.9420 hc        1 1BC      0.034367
     60 H24        10.2840    3.6540   -2.2070 h4        1 1BC      0.177000
     61 H25        12.5640    2.4380   -2.1460 hn        1 1BC      0.319700
     62 H26        11.5440    2.4550    1.8150 h4        1 1BC      0.047100
     63 H27         9.1550   -4.1080    1.5810 hc        1 1BC      0.109700
     64 H28        10.6300   -3.3110    2.2640 hc        1 1BC      0.109700
     65 H29        10.4420   -2.8690   -0.2690 h4        1 1BC      0.031800
@<TRIPOS>BOND
     1    1    2 1   
     2    2    3 ar  
     3    2   13 ar  
     4    3    4 ar  
     5    3   37 1   
     6    4    5 ar  
     7    4   38 1   
     8    5    6 1   
     9    5   12 ar  
    10    6    7 1   
    11    6   14 2   
    12    7    8 1   
    13    7   39 1   
    14    8    9 1   
    15    8   10 1   
    16    8   11 1   
    17    9   40 1   
    18    9   41 1   
    19    9   42 1   
    20   10   43 1   
    21   10   44 1   
    22   10   45 1   
    23   11   12 1   
    24   11   46 1   
    25   11   47 1   
    26   12   13 ar  
    27   13   48 1   
    28   14   15 1   
    29   15   16 1   
    30   15   30 1   
    31   15   49 1   
    32   16   17 1   
    33   16   50 1   
    34   16   51 1   
    35   17   18 1   
    36   17   21 2   
    37   18   19 2   
    38   18   25 1   
    39   19   20 1   
    40   19   52 1   
    41   20   21 1   
    42   21   22 1   
    43   22   23 1   
    44   22   53 1   
    45   22   54 1   
    46   23   24 1   
    47   23   55 1   
    48   23   56 1   
    49   24   57 1   
    50   24   58 1   
    51   24   59 1   
    52   25   26 2   
    53   25   29 1   
    54   26   27 1   
    55   26   60 1   
    56   27   28 1   
    57   27   61 1   
    58   28   29 2   
    59   29   62 1   
    60   30   31 2   
    61   30   35 1   
    62   31   32 1   
    63   32   33 1   
    64   32   36 2   
    65   33   34 1   
    66   33   63 1   
    67   33   64 1   
    68   34   35 2   
    69   34   65 1   
@<TRIPOS>SUBSTRUCTURE
     1 1BC         1 TEMP              0 ****  ****    0 ROOT
