@<TRIPOS>MOLECULE
1BC
   65    69     1     0     0
SMALL
bcc


@<TRIPOS>ATOM
      1 CL1        -0.0160    0.6290   -0.5640 cl        1 1BC     -0.091400
      2 C1          1.6800    0.5270   -0.5000 ca        1 1BC      0.035400
      3 C6          2.3930    1.3290    0.3960 ca        1 1BC     -0.142000
      4 C5          3.7820    1.2390    0.4450 ca        1 1BC     -0.066000
      5 C4          4.4700    0.3520   -0.3940 ca        1 1BC     -0.130900
      6 C12         5.9640    0.2440   -0.3290 ce        1 1BC      0.680800
      7 N11         6.5900   -0.5510   -1.3140 nh        1 1BC     -0.844200
      8 C10         5.8750   -0.9140   -2.5330 c3        1 1BC      0.222200
      9 C28         6.6010   -2.0750   -3.2370 c3        1 1BC     -0.109600
     10 C27         5.7840    0.2470   -3.5400 c3        1 1BC     -0.109600
     11 C9          4.4470   -1.3920   -2.1990 c3        1 1BC     -0.039100
     12 C3          3.7460   -0.4440   -1.2980 ca        1 1BC     -0.047300
     13 C2          2.3520   -0.3570   -1.3470 ca        1 1BC     -0.138000
     14 N13         6.5650    0.8200    0.6820 n2        1 1BC     -0.660900
     15 C14         7.9960    0.8180    0.8440 c3        1 1BC      0.129200
     16 C15         8.4410    1.8150    1.9390 c3        1 1BC      0.002900
     17 C11         8.2870    3.2160    1.4960 cc        1 1BC     -0.091300
     18 C13         9.1990    3.8770    0.5920 cc        1 1BC     -0.029000
     19 C16         8.7950    5.1760    0.3360 cd        1 1BC     -0.175100
     20 S17         7.4060    5.5730    1.1570 ss        1 1BC      0.015200
     21 C18         7.2620    4.0620    1.8840 cd        1 1BC     -0.083400
     22 C19         6.1500    3.7450    2.7970 c3        1 1BC     -0.016100
     23 C20         6.5310    3.9350    4.2550 c3        1 1BC     -0.076400
     24 C21         5.3780    3.5980    5.1650 c3        1 1BC     -0.094100
     25 C23        10.3790    3.2870    0.0350 cc        1 1BC     -0.182300
     26 C24        10.7750    3.2690   -1.3160 cd        1 1BC     -0.140300
     27 N25        12.0090    2.6190   -1.3540 na        1 1BC     -0.024600
     28 N26        12.4200    2.2360   -0.1440 nd        1 1BC     -0.519800
     29 C29        11.4620    2.6210    0.7360 cc        1 1BC      0.308200
     30 C30         8.5390   -0.5800    1.2390 ce        1 1BC      0.653300
     31 N31         8.2520   -1.0730    2.4170 nf        1 1BC     -0.635100
     32 C32         8.7610   -2.3590    2.7680 c         1 1BC      0.679500
     33 C33         9.6300   -3.1180    1.7760 c3        1 1BC     -0.312700
     34 C34         9.8220   -2.3750    0.4940 c2        1 1BC      0.475200
     35 N35         9.3310   -1.2110    0.2200 ne        1 1BC     -0.698000
     36 O36         8.5040   -2.8550    3.8710 o         1 1BC     -0.499100
     37 H1          1.8640    2.0260    1.0620 ha        1 1BC      0.151000
     38 H2          4.3310    1.8750    1.1600 ha        1 1BC      0.166000
     39 H3          7.5530   -0.3470   -1.4860 hn        1 1BC      0.418800
     40 H4          6.7020   -2.9540   -2.5580 hc        1 1BC      0.044200
     41 H5          6.0100   -2.3790   -4.1330 hc        1 1BC      0.044200
     42 H6          7.6180   -1.7580   -3.5710 hc        1 1BC      0.044200
     43 H7          6.8030    0.6100   -3.8150 hc        1 1BC      0.044200
     44 H8          5.2710   -0.1030   -4.4680 hc        1 1BC      0.044200
     45 H9          5.2020    1.0950   -3.1080 hc        1 1BC      0.044200
     46 H10         4.4980   -2.3980   -1.7000 hc        1 1BC      0.065700
     47 H11         3.8800   -1.5180   -3.1590 hc        1 1BC      0.065700
     48 H12         1.7890   -0.9860   -2.0540 ha        1 1BC      0.148000
     49 H13         8.5210    1.1390   -0.1110 h1        1 1BC      0.066700
     50 H14         7.8560    1.6410    2.8820 hc        1 1BC      0.068200
     51 H15         9.5230    1.6120    2.1600 hc        1 1BC      0.068200
     52 H16         9.3220    5.8750   -0.3120 h4        1 1BC      0.169000
     53 H17         5.8260    2.6790    2.6360 hc        1 1BC      0.059700
     54 H18         5.2660    4.3990    2.5590 hc        1 1BC      0.059700
     55 H19         7.4080    3.2780    4.4970 hc        1 1BC      0.043700
     56 H20         6.8520    4.9950    4.4270 hc        1 1BC      0.043700
     57 H21         5.0640    2.5340    5.0270 hc        1 1BC      0.034367
     58 H22         4.5000    4.2530    4.9510 hc        1 1BC      0.034367
     59 H23         5.6740    3.7420    6.2320 hc        1 1BC      0.034367
     60 H24        10.2860    3.6530   -2.2100 h4        1 1BC      0.177000
     61 H25        12.5630    2.4340   -2.1550 hn        1 1BC      0.319700
     62 H26        11.5520    2.4460    1.8080 h4        1 1BC      0.047100
     63 H27        10.6280   -3.3180    2.2500 hc        1 1BC      0.109700
     64 H28         9.1520   -4.1130    1.5680 hc        1 1BC      0.109700
     65 H29        10.4390   -2.8720   -0.2810 h4        1 1BC      0.031800
@<TRIPOS>BOND
     1    1    2 1   
     2    2    3 ar  
     3    2   13 ar  
     4    3    4 ar  
     5    3   37 1   
     6    4    5 ar  
     7    4   38 1   
     8    5    6 1   
     9    5   12 ar  
    10    6    7 1   
    11    6   14 2   
    12    7    8 1   
    13    7   39 1   
    14    8    9 1   
    15    8   10 1   
    16    8   11 1   
    17    9   40 1   
    18    9   41 1   
    19    9   42 1   
    20   10   43 1   
    21   10   44 1   
    22   10   45 1   
    23   11   12 1   
    24   11   46 1   
    25   11   47 1   
    26   12   13 ar  
    27   13   48 1   
    28   14   15 1   
    29   15   16 1   
    30   15   30 1   
    31   15   49 1   
    32   16   17 1   
    33   16   50 1   
    34   16   51 1   
    35   17   18 1   
    36   17   21 2   
    37   18   19 2   
    38   18   25 1   
    39   19   20 1   
    40   19   52 1   
    41   20   21 1   
    42   21   22 1   
    43   22   23 1   
    44   22   53 1   
    45   22   54 1   
    46   23   24 1   
    47   23   55 1   
    48   23   56 1   
    49   24   57 1   
    50   24   58 1   
    51   24   59 1   
    52   25   26 2   
    53   25   29 1   
    54   26   27 1   
    55   26   60 1   
    56   27   28 1   
    57   27   61 1   
    58   28   29 2   
    59   29   62 1   
    60   30   31 2   
    61   30   35 1   
    62   31   32 1   
    63   32   33 1   
    64   32   36 2   
    65   33   34 1   
    66   33   63 1   
    67   33   64 1   
    68   34   35 2   
    69   34   65 1   
@<TRIPOS>SUBSTRUCTURE
     1 1BC         1 TEMP              0 ****  ****    0 ROOT
