@<TRIPOS>MOLECULE
1BC
   65    57     1     0     0
SMALL
bcc


@<TRIPOS>ATOM
      1 CL1        -6.2460   -0.3500   -1.6720 cl        1 1BC     -0.014000
      2 C1         -4.5020   -0.1520   -1.6520 c2        1 1BC     -0.048000
      3 C6         -3.8270    0.0560   -0.4260 c2        1 1BC     -0.132000
      4 C5         -2.4290    0.2540   -0.4130 c1        1 1BC     -0.089000
      5 C4         -1.7160    0.2450   -1.6000 c1        1 1BC     -0.087000
      6 C12        -0.1420    0.4880   -1.6630 c2        1 1BC      0.156000
      7 N11         0.4130    0.6230   -2.8950 n3        1 1BC     -0.275000
      8 C10        -0.0980   -0.1670   -3.9290 c3        1 1BC      0.057000
      9 C28         0.5640    0.2540   -5.1940 c3        1 1BC     -0.221500
     10 C27         0.2830   -1.5970   -3.6530 c3        1 1BC     -0.221500
     11 C9         -1.5310   -0.1240   -4.1390 c3        1 1BC     -0.137000
     12 C3         -2.4060    0.0320   -2.8550 c1        1 1BC     -0.037000
     13 C2         -3.7810   -0.1630   -2.8630 c1        1 1BC     -0.130000
     14 N13         0.5300    0.9610   -0.5510 n1        1 1BC     -0.256000
     15 C14        -0.0490    0.8220    0.7480 c2        1 1BC      0.046000
     16 C15         1.0460    0.6900    1.7710 c3        1 1BC     -0.092000
     17 C11         1.6320   -0.7420    1.7170 c2        1 1BC     -0.090000
     18 C13         3.1000   -1.1380    1.1650 c1        1 1BC     -0.012000
     19 C16         3.3090   -2.5620    1.3990 c1        1 1BC     -0.456000
     20 S17         2.0160   -3.1360    2.0960 ss        1 1BC      0.572000
     21 C18         1.0040   -1.9530    2.2680 c1        1 1BC     -0.369000
     22 C19        -0.3200   -2.0080    3.0600 c2        1 1BC     -0.099000
     23 C20        -0.1360   -2.9010    4.3010 c3        1 1BC     -0.161000
     24 C21        -1.3710   -3.8290    4.4630 c3        1 1BC     -0.211000
     25 C23         4.1610   -0.1430    0.6140 c1        1 1BC     -0.112000
     26 C24         4.7830   -0.2240   -0.5870 c1        1 1BC     -0.133500
     27 N25         5.7110    0.7530   -0.6410 n2        1 1BC     -0.126500
     28 N26         5.6670    1.4400    0.5240 n2        1 1BC     -0.126500
     29 C29         4.7120    0.8870    1.2970 c1        1 1BC     -0.133500
     30 C30        -0.8860    2.0460    1.0570 c1        1 1BC      0.097000
     31 N31        -1.6550    2.1020    2.2520 n1        1 1BC     -0.252000
     32 C32        -2.2820    3.3210    2.6310 c1        1 1BC      0.256000
     33 C33        -1.7850    4.6250    2.0700 c2        1 1BC     -0.265000
     34 C34        -1.0810    4.4850    0.7260 c2        1 1BC     -0.026000
     35 N35        -0.8140    3.1990    0.2010 n1        1 1BC     -0.157000
     36 O36        -3.2010    3.3150    3.4780 o         1 1BC     -0.265000
     37 H1         -4.3390    0.0310    0.4400 ha        1 1BC      0.155000
     38 H2         -1.9740    0.3940    0.4180 ha        1 1BC      0.169000
     39 H3          1.2430    1.0230   -2.9860 hn        1 1BC      0.204000
     40 H4          0.1760   -0.2450   -5.9500 hc        1 1BC      0.083000
     41 H5          1.5090    0.0700   -5.1390 hc        1 1BC      0.083000
     42 H6          0.4270    1.1980   -5.3290 hc        1 1BC      0.083000
     43 H7          1.1810   -1.6270   -3.2400 hc        1 1BC      0.083000
     44 H8          0.2940   -2.1010   -4.4950 hc        1 1BC      0.083000
     45 H9         -0.3640   -1.9920   -3.0500 hc        1 1BC      0.083000
     46 H10        -1.7950   -0.9730   -4.5780 hc        1 1BC      0.103000
     47 H11        -1.7220    0.6390   -4.7210 hc        1 1BC      0.103000
     48 H12        -4.2270   -0.3380   -3.6770 ha        1 1BC      0.148000
     49 H13        -0.6160    0.0220    0.7690 ha        1 1BC      0.106000
     50 H14         1.7730    1.3570    1.5710 hc        1 1BC      0.110500
     51 H15         0.6790    0.8640    2.6720 hc        1 1BC      0.110500
     52 H16         4.1280   -3.0820    1.1600 DU        1 1BC      0.199000
     53 H17        -0.5720   -1.0860    3.3500 ha        1 1BC      0.096500
     54 H18        -1.0350   -2.3810    2.4860 ha        1 1BC      0.096500
     55 H19         0.6920   -3.4590    4.1900 hc        1 1BC      0.082500
     56 H20        -0.0460   -2.3410    5.0920 hc        1 1BC      0.082500
     57 H21        -1.4590   -4.3920    3.6750 hc        1 1BC      0.075667
     58 H22        -2.1980   -3.2710    4.5680 hc        1 1BC      0.075667
     59 H23        -1.2510   -4.4060    5.2760 hc        1 1BC      0.075667
     60 H24         4.5950   -0.8660   -1.2810 DU        1 1BC      0.199000
     61 H25         6.2900    0.9270   -1.3650 DU        1 1BC      0.199000
     62 H26         4.4580    1.1810    2.2000 DU        1 1BC      0.199000
     63 H27        -1.1730    4.9890    2.6710 ha        1 1BC      0.149000
     64 H28        -2.5490    5.1670    1.9280 ha        1 1BC      0.149000
     65 H29        -0.7940    5.2870    0.2350 h4        1 1BC      0.166000
@<TRIPOS>BOND
     1    1    2 1   
     2    2    3 1   
     3    2   13 1   
     4    3    4 1   
     5    3   37 1   
     6    4   38 1   
     7    5    6 1   
     8    5   12 1   
     9    6    7 1   
    10    6   14 1   
    11    7    8 1   
    12    7   39 1   
    13    8    9 1   
    14    8   10 1   
    15    8   11 1   
    16    9   40 1   
    17    9   41 1   
    18    9   42 1   
    19   10   43 1   
    20   10   44 1   
    21   10   45 1   
    22   11   12 1   
    23   11   46 1   
    24   11   47 1   
    25   13   48 1   
    26   15   16 1   
    27   15   30 1   
    28   15   49 1   
    29   16   17 1   
    30   16   50 1   
    31   16   51 1   
    32   17   18 1   
    33   17   21 1   
    34   18   19 1   
    35   19   20 1   
    36   20   21 1   
    37   22   23 1   
    38   22   53 1   
    39   22   54 1   
    40   23   24 1   
    41   23   55 1   
    42   23   56 1   
    43   24   57 1   
    44   24   58 1   
    45   24   59 1   
    46   25   26 1   
    47   25   29 1   
    48   26   27 1   
    49   27   28 1   
    50   28   29 1   
    51   30   31 1   
    52   32   36 1   
    53   33   34 1   
    54   33   63 1   
    55   33   64 1   
    56   34   35 1   
    57   34   65 1   
@<TRIPOS>SUBSTRUCTURE
     1 1BC         1 TEMP              0 ****  ****    0 ROOT
