@<TRIPOS>MOLECULE
1BC
   65    69     1     0     0
SMALL
bcc


@<TRIPOS>ATOM
      1 CL1        -6.8320   -0.7060    0.1290 cl        1 1BC     -0.091400
      2 C1         -5.1550   -0.5140    0.3290 ca        1 1BC      0.035400
      3 C6         -4.3120   -0.5500   -0.7850 ca        1 1BC     -0.142000
      4 C5         -2.9380   -0.3890   -0.6150 ca        1 1BC     -0.066000
      5 C4         -2.3950   -0.1920    0.6610 ca        1 1BC     -0.130900
      6 C12        -0.9190   -0.0020    0.8420 ce        1 1BC      0.680800
      7 N11        -0.4370    0.0300    2.1680 nh        1 1BC     -0.844200
      8 C10        -1.2570   -0.4780    3.2640 c3        1 1BC      0.222200
      9 C28        -0.6960    0.0200    4.6090 c3        1 1BC     -0.109600
     10 C27        -1.2880   -2.0160    3.3220 c3        1 1BC     -0.109600
     11 C9         -2.7040    0.0420    3.1420 c3        1 1BC     -0.039100
     12 C3         -3.2500   -0.1660    1.7770 ca        1 1BC     -0.047300
     13 C2         -4.6280   -0.3240    1.6080 ca        1 1BC     -0.138000
     14 N13        -0.2030    0.2050   -0.2350 n2        1 1BC     -0.660900
     15 C14         1.2270    0.3690   -0.2030 c3        1 1BC      0.129200
     16 C15         1.8350    0.2920   -1.6220 c3        1 1BC      0.002900
     17 C11         1.7990   -1.0850   -2.1570 cc        1 1BC     -0.091300
     18 C13         2.7190   -2.1250   -1.7590 cc        1 1BC     -0.029000
     19 C16         2.4350   -3.3170   -2.4050 cd        1 1BC     -0.175100
     20 S17         1.1460   -3.1750   -3.4420 ss        1 1BC      0.015200
     21 C18         0.8910   -1.5480   -3.0940 cd        1 1BC     -0.083400
     22 C19        -0.1910   -0.7790   -3.7340 c3        1 1BC     -0.016100
     23 C20         0.2940   -0.0020   -4.9460 c3        1 1BC     -0.076400
     24 C21        -0.8310    0.7790   -5.5740 c3        1 1BC     -0.094100
     25 C23         3.7960   -1.9610   -0.8320 cc        1 1BC     -0.182300
     26 C24         4.1070   -2.7730    0.2770 cd        1 1BC     -0.140300
     27 N25         5.2640   -2.2350    0.8430 na        1 1BC     -0.024600
     28 N26         5.7050   -1.1640    0.1820 nd        1 1BC     -0.519800
     29 C29         4.8460   -0.9570   -0.8480 cc        1 1BC      0.308200
     30 C30         1.6470    1.7300    0.4100 ce        1 1BC      0.653300
     31 N31         1.3820    2.8360   -0.2360 nf        1 1BC     -0.635100
     32 C32         1.7760    4.0810    0.3380 c         1 1BC      0.679500
     33 C33         2.5020    4.0930    1.6760 c3        1 1BC     -0.312700
     34 C34         2.6920    2.7220    2.2390 c2        1 1BC      0.475200
     35 N35         2.3070    1.6220    1.6810 ne        1 1BC     -0.698000
     36 O36         1.5360    5.1450   -0.2440 o         1 1BC     -0.499100
     37 H1         -4.7260   -0.7010   -1.7930 ha        1 1BC      0.151000
     38 H2         -2.2860   -0.4160   -1.5050 ha        1 1BC      0.166000
     39 H3          0.5300   -0.1940    2.2830 hn        1 1BC      0.418800
     40 H4         -0.6450    1.1340    4.6320 hc        1 1BC      0.044200
     41 H5         -1.3670   -0.3270    5.4300 hc        1 1BC      0.044200
     42 H6          0.3270   -0.3910    4.7850 hc        1 1BC      0.044200
     43 H7         -0.2550   -2.4260    3.4240 hc        1 1BC      0.044200
     44 H8         -1.8880   -2.3440    4.2040 hc        1 1BC      0.044200
     45 H9         -1.7540   -2.4330    2.3980 hc        1 1BC      0.044200
     46 H10        -3.3360   -0.4830    3.9050 hc        1 1BC      0.065700
     47 H11        -2.7260    1.1410    3.3790 hc        1 1BC      0.065700
     48 H12        -5.2930   -0.2990    2.4850 ha        1 1BC      0.148000
     49 H13         1.7240   -0.4550    0.4020 h1        1 1BC      0.066700
     50 H14         1.2930    0.9900   -2.3150 hc        1 1BC      0.068200
     51 H15         2.9030    0.6350   -1.5500 hc        1 1BC      0.068200
     52 H16         2.9910   -4.2430   -2.2720 h4        1 1BC      0.169000
     53 H17        -1.0160   -1.4760   -4.0490 hc        1 1BC      0.059700
     54 H18        -0.6320   -0.0610   -2.9870 hc        1 1BC      0.059700
     55 H19         1.1120    0.6990   -4.6320 hc        1 1BC      0.043700
     56 H20         0.7310   -0.7090   -5.6980 hc        1 1BC      0.043700
     57 H21        -0.4590    1.3440   -6.4630 hc        1 1BC      0.034367
     58 H22        -1.6490    0.0960   -5.9080 hc        1 1BC      0.034367
     59 H23        -1.2600    1.5100   -4.8460 hc        1 1BC      0.034367
     60 H24         3.6070   -3.6500    0.6830 h4        1 1BC      0.177000
     61 H25         5.7480   -2.5660    1.6430 hn        1 1BC      0.319700
     62 H26         4.9810   -0.1480   -1.5660 h4        1 1BC      0.047100
     63 H27         3.5010    4.5880    1.5400 hc        1 1BC      0.109700
     64 H28         1.9130    4.7200    2.3990 hc        1 1BC      0.109700
     65 H29         3.2070    2.6540    3.2170 h4        1 1BC      0.031800
@<TRIPOS>BOND
     1    1    2 1   
     2    2    3 ar  
     3    2   13 ar  
     4    3    4 ar  
     5    3   37 1   
     6    4    5 ar  
     7    4   38 1   
     8    5    6 1   
     9    5   12 ar  
    10    6    7 1   
    11    6   14 2   
    12    7    8 1   
    13    7   39 1   
    14    8    9 1   
    15    8   10 1   
    16    8   11 1   
    17    9   40 1   
    18    9   41 1   
    19    9   42 1   
    20   10   43 1   
    21   10   44 1   
    22   10   45 1   
    23   11   12 1   
    24   11   46 1   
    25   11   47 1   
    26   12   13 ar  
    27   13   48 1   
    28   14   15 1   
    29   15   16 1   
    30   15   30 1   
    31   15   49 1   
    32   16   17 1   
    33   16   50 1   
    34   16   51 1   
    35   17   18 1   
    36   17   21 2   
    37   18   19 2   
    38   18   25 1   
    39   19   20 1   
    40   19   52 1   
    41   20   21 1   
    42   21   22 1   
    43   22   23 1   
    44   22   53 1   
    45   22   54 1   
    46   23   24 1   
    47   23   55 1   
    48   23   56 1   
    49   24   57 1   
    50   24   58 1   
    51   24   59 1   
    52   25   26 2   
    53   25   29 1   
    54   26   27 1   
    55   26   60 1   
    56   27   28 1   
    57   27   61 1   
    58   28   29 2   
    59   29   62 1   
    60   30   31 2   
    61   30   35 1   
    62   31   32 1   
    63   32   33 1   
    64   32   36 2   
    65   33   34 1   
    66   33   63 1   
    67   33   64 1   
    68   34   35 2   
    69   34   65 1   
@<TRIPOS>SUBSTRUCTURE
     1 1BC         1 TEMP              0 ****  ****    0 ROOT
