@<TRIPOS>MOLECULE
1BD
   27    23     1     0     0
SMALL
bcc


@<TRIPOS>ATOM
      1 C1         -2.6140   -1.6120   -1.1470 c1        1 1BD     -0.126000
      2 C2         -1.2100   -1.5900   -1.1620 c1        1 1BD     -0.113000
      3 C3         -0.5030   -1.5770    0.0330 c1        1 1BD      0.018000
      4 C4         -1.1870   -1.5850    1.2530 c2        1 1BD     -0.160000
      5 C5         -2.5880   -1.6070    1.2690 c1        1 1BD     -0.098000
      6 C6         -3.2980   -1.6200    0.0660 c1        1 1BD     -0.126000
      7 C7          1.0020   -1.6400    0.0150 c1        1 1BD     -0.180000
      8 N8          1.7010   -0.5500   -0.2220 n1        1 1BD      0.018000
      9 O9          1.0530    0.6430   -0.4510 o         1 1BD     -0.243000
     10 C10         1.9690    1.6050   -0.9760 c3        1 1BD      0.017000
     11 C11         1.4110    2.9580   -0.7940 c3        1 1BD     -0.248000
     12 C12         2.4510    4.0020   -1.2450 c2        1 1BD      0.337000
     13 O13         2.4250    4.4560   -2.4480 o         1 1BD     -0.572500
     14 O14         3.3160    4.4600   -0.3990 o         1 1BD     -0.572500
     15 C15        -0.4080   -1.6200    2.5570 c3        1 1BD      0.467000
     16 F16         0.1890   -0.4100    2.7630 f         1 1BD     -0.172333
     17 F17         0.5140   -2.5580    2.4880 f         1 1BD     -0.172333
     18 F18        -1.2520   -1.8900    3.5820 f         1 1BD     -0.172333
     19 H1         -3.1020   -1.6200   -1.9720 ha        1 1BD      0.134500
     20 H2         -0.7270   -1.5840   -2.0200 ha        1 1BD      0.181000
     21 H5         -3.0720   -1.6480    2.1290 ha        1 1BD      0.141000
     22 H6         -4.2980   -1.6360    0.0750 ha        1 1BD      0.134500
     23 H7          1.4630   -2.4960    0.1790 ha        1 1BD      0.157000
     24 H10         2.1100    1.4380   -1.9180 h1        1 1BD      0.099500
     25 H10A        2.8420    1.5360   -0.4900 h1        1 1BD      0.099500
     26 H11         1.1930    3.0980    0.1510 hc        1 1BD      0.077000
     27 H11A        0.6210    3.0490   -1.3180 hc        1 1BD      0.077000
@<TRIPOS>BOND
     1    1    6 1   
     2    1   19 1   
     3    2    3 1   
     4    2   20 1   
     5    3    4 1   
     6    4    5 1   
     7    4   15 1   
     8    5   21 1   
     9    6   22 1   
    10    7    8 1   
    11    7   23 1   
    12    9   10 1   
    13   10   11 1   
    14   10   24 1   
    15   10   25 1   
    16   11   12 1   
    17   11   26 1   
    18   11   27 1   
    19   12   13 1   
    20   12   14 1   
    21   15   16 1   
    22   15   17 1   
    23   15   18 1   
@<TRIPOS>SUBSTRUCTURE
     1 1BD         1 TEMP              0 ****  ****    0 ROOT
