@<TRIPOS>MOLECULE
1BD
   27    27     1     0     0
SMALL
bcc


@<TRIPOS>ATOM
      1 C1          0.3530   -0.5980    0.0280 ca        1 1BD     -0.107000
      2 C2          1.6710   -0.2500    0.2950 ca        1 1BD     -0.133000
      3 C3          2.0540    0.1950    1.5740 ca        1 1BD     -0.029900
      4 C4          1.0790    0.2960    2.5740 ca        1 1BD     -0.151300
      5 C5         -0.2480   -0.0600    2.3000 ca        1 1BD     -0.092000
      6 C6         -0.6110   -0.5060    1.0340 ca        1 1BD     -0.148000
      7 C7          3.4650    0.5500    1.7540 ce        1 1BD      0.296800
      8 N8          4.1940    0.0350    2.7100 n2        1 1BD     -0.360200
      9 O9          5.4380    0.4220    2.7280 os        1 1BD     -0.204300
     10 C10         6.2900   -0.2600    3.7280 c3        1 1BD      0.166400
     11 C11         7.6700    0.2930    3.4870 c3        1 1BD     -0.217400
     12 C12         8.7320   -0.5920    4.1780 c         1 1BD      0.916600
     13 O13         8.5240   -1.8360    4.2460 o         1 1BD     -0.839800
     14 O14         9.7620   -0.0120    4.6190 o         1 1BD     -0.839800
     15 C15         1.4060    0.7890    3.9820 c3        1 1BD      0.693200
     16 F16         2.2120    1.8970    4.0440 f         1 1BD     -0.236300
     17 F17         0.2970    1.1750    4.7080 f         1 1BD     -0.236300
     18 F18         2.0050   -0.1380    4.7950 f         1 1BD     -0.236300
     19 H1          0.0700   -0.9510   -0.9750 ha        1 1BD      0.130000
     20 H2          2.4360   -0.3280   -0.4930 ha        1 1BD      0.145000
     21 H5         -1.0060    0.0160    3.0950 ha        1 1BD      0.145000
     22 H6         -1.6540   -0.7860    0.8280 ha        1 1BD      0.131000
     23 H7          3.8630    1.2600    1.0000 h4        1 1BD      0.007800
     24 H10         6.2590   -1.3660    3.5520 h1        1 1BD      0.060200
     25 H10A        5.9040   -0.0130    4.7470 h1        1 1BD      0.060200
     26 H11         7.8960    0.3030    2.3910 hc        1 1BD      0.039200
     27 H11A        7.7490    1.3400    3.8670 hc        1 1BD      0.039200
@<TRIPOS>BOND
     1    1    2 ar  
     2    1    6 ar  
     3    1   19 1   
     4    2    3 ar  
     5    2   20 1   
     6    3    4 ar  
     7    3    7 1   
     8    4    5 ar  
     9    4   15 1   
    10    5    6 ar  
    11    5   21 1   
    12    6   22 1   
    13    7    8 2   
    14    7   23 1   
    15    8    9 1   
    16    9   10 1   
    17   10   11 1   
    18   10   24 1   
    19   10   25 1   
    20   11   12 1   
    21   11   26 1   
    22   11   27 1   
    23   12   13 1   
    24   12   14 1   
    25   15   16 1   
    26   15   17 1   
    27   15   18 1   
@<TRIPOS>SUBSTRUCTURE
     1 1BD         1 TEMP              0 ****  ****    0 ROOT
