@<TRIPOS>MOLECULE
1BD
   27    27     1     0     0
SMALL
bcc


@<TRIPOS>ATOM
      1 C1          0.3480   -0.5820    0.0290 ca        1 1BD     -0.107000
      2 C2          1.6710   -0.2490    0.2950 ca        1 1BD     -0.133000
      3 C3          2.0580    0.2040    1.5690 ca        1 1BD     -0.029900
      4 C4          1.0830    0.3300    2.5670 ca        1 1BD     -0.151300
      5 C5         -0.2480   -0.0110    2.2950 ca        1 1BD     -0.092000
      6 C6         -0.6160   -0.4650    1.0330 ca        1 1BD     -0.148000
      7 C7          3.4740    0.5420    1.7480 ce        1 1BD      0.296800
      8 N8          4.1940    0.0260    2.7110 n2        1 1BD     -0.360200
      9 O9          5.4430    0.3960    2.7270 os        1 1BD     -0.204300
     10 C10         6.2840   -0.2870    3.7350 c3        1 1BD      0.166400
     11 C11         7.6720    0.2450    3.4910 c3        1 1BD     -0.217400
     12 C12         8.7210   -0.6480    4.1930 c         1 1BD      0.916600
     13 O13         8.4960   -1.8890    4.2710 o         1 1BD     -0.839800
     14 O14         9.7570   -0.0770    4.6320 o         1 1BD     -0.839800
     15 C15         1.4140    0.8340    3.9700 c3        1 1BD      0.693200
     16 F16         2.2360    1.9310    4.0210 f         1 1BD     -0.236300
     17 F17         0.3100    1.2440    4.6900 f         1 1BD     -0.236300
     18 F18         2.0000   -0.0920    4.7940 f         1 1BD     -0.236300
     19 H1          0.0620   -0.9420   -0.9700 ha        1 1BD      0.130000
     20 H2          2.4360   -0.3470   -0.4900 ha        1 1BD      0.145000
     21 H5         -1.0070    0.0860    3.0870 ha        1 1BD      0.145000
     22 H6         -1.6620   -0.7320    0.8290 ha        1 1BD      0.131000
     23 H7          3.8820    1.2380    0.9880 h4        1 1BD      0.007800
     24 H10         5.8990   -0.0250    4.7510 h1        1 1BD      0.060200
     25 H10A        6.2380   -1.3940    3.5700 h1        1 1BD      0.060200
     26 H11         7.7650    1.2940    3.8620 hc        1 1BD      0.039200
     27 H11A        7.9000    0.2420    2.3960 hc        1 1BD      0.039200
@<TRIPOS>BOND
     1    1    2 ar  
     2    1    6 ar  
     3    1   19 1   
     4    2    3 ar  
     5    2   20 1   
     6    3    4 ar  
     7    3    7 1   
     8    4    5 ar  
     9    4   15 1   
    10    5    6 ar  
    11    5   21 1   
    12    6   22 1   
    13    7    8 2   
    14    7   23 1   
    15    8    9 1   
    16    9   10 1   
    17   10   11 1   
    18   10   24 1   
    19   10   25 1   
    20   11   12 1   
    21   11   26 1   
    22   11   27 1   
    23   12   13 1   
    24   12   14 1   
    25   15   16 1   
    26   15   17 1   
    27   15   18 1   
@<TRIPOS>SUBSTRUCTURE
     1 1BD         1 TEMP              0 ****  ****    0 ROOT
