@<TRIPOS>MOLECULE
1BD
   27    27     1     0     0
SMALL
bcc


@<TRIPOS>ATOM
      1 C1          4.2550    1.6070    0.6730 ca        1 1BD     -0.107000
      2 C2          2.9330    1.8450    0.3190 ca        1 1BD     -0.133000
      3 C3          2.1120    0.8000   -0.1450 ca        1 1BD     -0.029900
      4 C4          2.6550   -0.4860   -0.2590 ca        1 1BD     -0.151300
      5 C5          3.9870   -0.7200    0.1030 ca        1 1BD     -0.092000
      6 C6          4.7850    0.3200    0.5680 ca        1 1BD     -0.148000
      7 C7          0.7350    1.1530   -0.5060 ce        1 1BD      0.296800
      8 N8         -0.2960    0.5230   -0.0040 n2        1 1BD     -0.360200
      9 O9         -1.4580    0.9660   -0.3940 os        1 1BD     -0.204300
     10 C10        -2.6210    0.3390    0.2730 c3        1 1BD      0.166400
     11 C11        -3.8140    1.0720   -0.2810 c3        1 1BD     -0.217400
     12 C12        -5.0610    0.8080    0.5930 c         1 1BD      0.916600
     13 O13        -4.9000    0.6590    1.8370 o         1 1BD     -0.839800
     14 O14        -6.1770    0.7770    0.0050 o         1 1BD     -0.839800
     15 C15         1.8400   -1.6700   -0.7740 c3        1 1BD      0.693200
     16 F16         1.0740   -1.4190   -1.8830 f         1 1BD     -0.236300
     17 F17         2.6100   -2.7460   -1.1680 f         1 1BD     -0.236300
     18 F18         0.9780   -2.2200    0.1410 f         1 1BD     -0.236300
     19 H1          4.8830    2.4320    1.0410 ha        1 1BD      0.130000
     20 H2          2.5070    2.8570    0.4070 ha        1 1BD      0.145000
     21 H5          4.4040   -1.7360    0.0160 ha        1 1BD      0.145000
     22 H6          5.8290    0.1270    0.8520 ha        1 1BD      0.131000
     23 H7          0.6450    2.0080   -1.2060 h4        1 1BD      0.007800
     24 H10        -2.6310   -0.7480    0.0150 h1        1 1BD      0.060200
     25 H10A       -2.5360    0.4800    1.3810 h1        1 1BD      0.060200
     26 H11        -3.6240    2.1750   -0.2800 hc        1 1BD      0.039200
     27 H11A       -4.0200    0.7570   -1.3320 hc        1 1BD      0.039200
@<TRIPOS>BOND
     1    1    2 ar  
     2    1    6 ar  
     3    1   19 1   
     4    2    3 ar  
     5    2   20 1   
     6    3    4 ar  
     7    3    7 1   
     8    4    5 ar  
     9    4   15 1   
    10    5    6 ar  
    11    5   21 1   
    12    6   22 1   
    13    7    8 2   
    14    7   23 1   
    15    8    9 1   
    16    9   10 1   
    17   10   11 1   
    18   10   24 1   
    19   10   25 1   
    20   11   12 1   
    21   11   26 1   
    22   11   27 1   
    23   12   13 1   
    24   12   14 1   
    25   15   16 1   
    26   15   17 1   
    27   15   18 1   
@<TRIPOS>SUBSTRUCTURE
     1 1BD         1 TEMP              0 ****  ****    0 ROOT
