@<TRIPOS>MOLECULE
1BD
   27    27     1     0     0
SMALL
bcc


@<TRIPOS>ATOM
      1 C1          0.3670   -0.5780    0.0060 ca        1 1BD     -0.107000
      2 C2          1.6820   -0.2270    0.2840 ca        1 1BD     -0.133000
      3 C3          2.0580    0.2020    1.5700 ca        1 1BD     -0.029900
      4 C4          1.0780    0.2850    2.5670 ca        1 1BD     -0.151300
      5 C5         -0.2460   -0.0740    2.2830 ca        1 1BD     -0.092000
      6 C6         -0.6020   -0.5050    1.0100 ca        1 1BD     -0.148000
      7 C7          3.4660    0.5620    1.7610 ce        1 1BD      0.296800
      8 N8          4.1940    0.0360    2.7130 n2        1 1BD     -0.360200
      9 O9          5.4350    0.4290    2.7410 os        1 1BD     -0.204300
     10 C10         6.2870   -0.2630    3.7340 c3        1 1BD      0.166400
     11 C11         7.6650    0.3020    3.5090 c3        1 1BD     -0.217400
     12 C12         8.7290   -0.5880    4.1900 c         1 1BD      0.916600
     13 O13         8.5280   -1.8350    4.2350 o         1 1BD     -0.839800
     14 O14         9.7530   -0.0090    4.6470 o         1 1BD     -0.839800
     15 C15         1.3960    0.7610    3.9830 c3        1 1BD      0.693200
     16 F16         2.1970    1.8710    4.0640 f         1 1BD     -0.236300
     17 F17         0.2820    1.1310    4.7100 f         1 1BD     -0.236300
     18 F18         1.9970   -0.1750    4.7860 f         1 1BD     -0.236300
     19 H1          0.0890   -0.9190   -1.0020 ha        1 1BD      0.130000
     20 H2          2.4510   -0.2910   -0.5020 ha        1 1BD      0.145000
     21 H5         -1.0080   -0.0120    3.0760 ha        1 1BD      0.145000
     22 H6         -1.6420   -0.7870    0.7960 ha        1 1BD      0.131000
     23 H7          3.8630    1.2840    1.0190 h4        1 1BD      0.007800
     24 H10         5.8940   -0.0350    4.7550 h1        1 1BD      0.060200
     25 H10A        6.2640   -1.3660    3.5410 h1        1 1BD      0.060200
     26 H11         7.7360    1.3430    3.9070 hc        1 1BD      0.039200
     27 H11A        7.8950    0.3320    2.4140 hc        1 1BD      0.039200
@<TRIPOS>BOND
     1    1    2 ar  
     2    1    6 ar  
     3    1   19 1   
     4    2    3 ar  
     5    2   20 1   
     6    3    4 ar  
     7    3    7 1   
     8    4    5 ar  
     9    4   15 1   
    10    5    6 ar  
    11    5   21 1   
    12    6   22 1   
    13    7    8 2   
    14    7   23 1   
    15    8    9 1   
    16    9   10 1   
    17   10   11 1   
    18   10   24 1   
    19   10   25 1   
    20   11   12 1   
    21   11   26 1   
    22   11   27 1   
    23   12   13 1   
    24   12   14 1   
    25   15   16 1   
    26   15   17 1   
    27   15   18 1   
@<TRIPOS>SUBSTRUCTURE
     1 1BD         1 TEMP              0 ****  ****    0 ROOT
