@<TRIPOS>MOLECULE
1BE
   58    61     1     0     0
SMALL
bcc


@<TRIPOS>ATOM
      1 CL1        -6.9660    0.1890   -0.8150 cl        1 1BE     -0.123400
      2 C1         -5.2720    0.3610   -0.7190 ca        1 1BE      0.023400
      3 C6         -4.4430   -0.6270   -1.2520 ca        1 1BE     -0.142000
      4 C5         -3.0580   -0.4780   -1.1750 ca        1 1BE     -0.085000
      5 C4         -2.4950    0.6520   -0.5770 ca        1 1BE     -0.157900
      6 C12        -1.0090    0.8770   -0.4700 ce        1 1BE      0.665800
      7 N11        -0.4940    1.7340    0.3810 n2        1 1BE     -0.661900
      8 C10        -1.3660    2.4820    1.2740 c3        1 1BE      0.161200
      9 C28        -1.6020    1.7340    2.5990 c3        1 1BE     -0.083600
     10 C27        -0.6990    3.8270    1.6210 c3        1 1BE     -0.083600
     11 C9         -2.7480    2.8130    0.6560 c3        1 1BE     -0.066100
     12 C3         -3.3410    1.6290   -0.0180 ca        1 1BE     -0.044300
     13 C2         -4.7280    1.4880   -0.0970 ca        1 1BE     -0.139000
     14 N13        -0.2260    0.0490   -1.2910 nh        1 1BE     -0.772200
     15 C14         1.1920    0.3020   -1.5040 c3        1 1BE      0.053500
     16 C15         2.0430   -0.9530   -1.2240 c3        1 1BE     -0.016100
     17 C7          1.4970    0.7330   -2.9870 c         1 1BE      0.903600
     18 O8          0.6200    0.5320   -3.8700 o         1 1BE     -0.831800
     19 O9          2.6260    1.2600   -3.1970 o         1 1BE     -0.831800
     20 C11         2.2680   -1.2210    0.2130 cc        1 1BE     -0.054300
     21 C13         3.3080   -0.5970    1.0110 cc        1 1BE      0.016000
     22 C16         3.2710   -1.0550    2.3170 cd        1 1BE     -0.185100
     23 S17         2.0690   -2.1820    2.5650 ss        1 1BE     -0.079800
     24 C18         1.5410   -2.1290    0.9600 cd        1 1BE     -0.091400
     25 C19         0.4310   -2.9810    0.5020 c3        1 1BE     -0.005100
     26 C20         0.9210   -4.2830   -0.1090 c3        1 1BE     -0.079400
     27 C21        -0.2320   -5.1380   -0.5670 c3        1 1BE     -0.090100
     28 C23         4.2880    0.3370    0.5550 cc        1 1BE     -0.222300
     29 C24         4.3360    1.1220   -0.6170 cd        1 1BE     -0.094300
     30 N25         5.5180    1.8550   -0.5430 na        1 1BE     -0.028600
     31 N26         6.2200    1.6030    0.5670 nd        1 1BE     -0.561800
     32 C29         5.5080    0.6860    1.2670 cc        1 1BE      0.297200
     33 H1         -4.8730   -1.5170   -1.7340 ha        1 1BE      0.141000
     34 H2         -2.4220   -1.2770   -1.5910 ha        1 1BE      0.156000
     35 H3         -0.6280    1.4830    3.0810 hc        1 1BE      0.034867
     36 H4         -2.1900    2.3810    3.2930 hc        1 1BE      0.034867
     37 H5         -2.1690    0.7910    2.4180 hc        1 1BE      0.034867
     38 H6         -0.4960    4.4210    0.6990 hc        1 1BE      0.034867
     39 H7         -1.3800    4.4100    2.2860 hc        1 1BE      0.034867
     40 H8          0.2670    3.6520    2.1520 hc        1 1BE      0.034867
     41 H9         -3.4300    3.1900    1.4610 hc        1 1BE      0.054700
     42 H10        -2.6270    3.6350   -0.1010 hc        1 1BE      0.054700
     43 H11        -5.3830    2.2590    0.3330 ha        1 1BE      0.139000
     44 H12        -0.6740   -0.1220   -2.1790 hn        1 1BE      0.421800
     45 H13         1.5650    1.1300   -0.8380 h1        1 1BE      0.083700
     46 H14         1.5660   -1.8500   -1.7020 hc        1 1BE      0.059200
     47 H15         3.0360   -0.7950   -1.7310 hc        1 1BE      0.059200
     48 H17         3.9390   -0.7270    3.1110 h4        1 1BE      0.156000
     49 H18        -0.2500   -3.2130    1.3660 hc        1 1BE      0.054200
     50 H19        -0.1810   -2.4240   -0.2600 hc        1 1BE      0.054200
     51 H20         1.5910   -4.0520   -0.9790 hc        1 1BE      0.042700
     52 H21         1.5340   -4.8450    0.6430 hc        1 1BE      0.042700
     53 H22        -0.9030   -5.3900    0.2900 hc        1 1BE      0.027033
     54 H23        -0.8360   -4.6030   -1.3390 hc        1 1BE      0.027033
     55 H24         0.1440   -6.0910   -1.0120 hc        1 1BE      0.027033
     56 H25         3.6460    1.2190   -1.4760 h4        1 1BE      0.260000
     57 H26         5.8530    2.4980   -1.2190 hn        1 1BE      0.316700
     58 H27         5.8460    0.2920    2.2240 h4        1 1BE      0.025100
@<TRIPOS>BOND
     1    1    2 1   
     2    2    3 ar  
     3    2   13 ar  
     4    3    4 ar  
     5    3   33 1   
     6    4    5 ar  
     7    4   34 1   
     8    5    6 1   
     9    5   12 ar  
    10    6    7 2   
    11    6   14 1   
    12    7    8 1   
    13    8    9 1   
    14    8   10 1   
    15    8   11 1   
    16    9   35 1   
    17    9   36 1   
    18    9   37 1   
    19   10   38 1   
    20   10   39 1   
    21   10   40 1   
    22   11   12 1   
    23   11   41 1   
    24   11   42 1   
    25   12   13 ar  
    26   13   43 1   
    27   14   15 1   
    28   14   44 1   
    29   15   16 1   
    30   15   17 1   
    31   15   45 1   
    32   16   20 1   
    33   16   46 1   
    34   16   47 1   
    35   17   18 1   
    36   17   19 1   
    37   20   21 1   
    38   20   24 2   
    39   21   22 2   
    40   21   28 1   
    41   22   23 1   
    42   22   48 1   
    43   23   24 1   
    44   24   25 1   
    45   25   26 1   
    46   25   49 1   
    47   25   50 1   
    48   26   27 1   
    49   26   51 1   
    50   26   52 1   
    51   27   53 1   
    52   27   54 1   
    53   27   55 1   
    54   28   29 2   
    55   28   32 1   
    56   29   30 1   
    57   29   56 1   
    58   30   31 1   
    59   30   57 1   
    60   31   32 2   
    61   32   58 1   
@<TRIPOS>SUBSTRUCTURE
     1 1BE         1 TEMP              0 ****  ****    0 ROOT
