@<TRIPOS>MOLECULE
1BE
   58    52     1     0     0
SMALL
bcc


@<TRIPOS>ATOM
      1 CL1        -5.4720   -4.6370    0.6210 cl        1 1BE     -0.043000
      2 C1         -4.5230   -3.2490    0.1780 c2        1 1BE     -0.054000
      3 C6         -3.8560   -2.5330    1.1460 c2        1 1BE     -0.140000
      4 C5         -3.0350   -1.4570    0.7810 c1        1 1BE     -0.088000
      5 C4         -2.8930   -1.1100   -0.5720 c1        1 1BE     -0.079000
      6 C12        -1.8900   -0.0240   -0.9850 c2        1 1BE      0.156000
      7 N11        -1.7820    0.3620   -2.3690 n1        1 1BE     -0.277000
      8 C10        -2.7930   -0.0530   -3.3170 c2        1 1BE      0.039000
      9 C28        -3.8360    1.0390   -3.5140 c3        1 1BE     -0.202500
     10 C27        -2.1830   -0.1170   -4.7180 c3        1 1BE     -0.202500
     11 C9         -3.4560   -1.3950   -2.9860 c3        1 1BE     -0.152000
     12 C3         -3.5530   -1.8190   -1.5270 c1        1 1BE     -0.036000
     13 C2         -4.3820   -2.9050   -1.1580 c1        1 1BE     -0.139000
     14 N13        -1.1470    0.7030    0.0300 n3        1 1BE     -0.274000
     15 C14         0.2980    0.7200   -0.0070 c3        1 1BE     -0.070000
     16 C15         0.8360    1.3540    1.2720 c3        1 1BE     -0.100000
     17 C7          0.8030   -0.6690   -0.1200 c2        1 1BE      0.314000
     18 O8          0.2240   -1.5920    0.4800 o         1 1BE     -0.564000
     19 O9          1.7950   -0.9190   -0.8490 o         1 1BE     -0.564000
     20 C11         2.2850    0.8330    1.5420 c2        1 1BE     -0.050000
     21 C13         2.6680   -0.5270    2.3040 c1        1 1BE      0.012000
     22 C16         4.1100   -0.5920    2.4190 c1        1 1BE     -0.450000
     23 S17         4.7070    0.6940    1.7510 ss        1 1BE      0.465000
     24 C18         3.5210    1.5420    1.2230 c1        1 1BE     -0.347000
     25 C19         3.6250    2.9020    0.5480 c2        1 1BE     -0.103000
     26 C20         4.7080    3.7270    1.2320 c3        1 1BE     -0.157000
     27 C21         5.5860    4.4270    0.1560 c3        1 1BE     -0.208000
     28 C23         1.6850   -1.5030    2.9230 c1        1 1BE     -0.153000
     29 C24         1.6540   -2.8610    2.7080 c1        1 1BE     -0.114500
     30 N25         0.7540   -3.3910    3.5500 n2        1 1BE     -0.154500
     31 N26         0.2160   -2.3700    4.2990 n2        1 1BE     -0.154500
     32 C29         0.7930   -1.2150    3.9080 c1        1 1BE     -0.114500
     33 H1         -4.0290   -2.7170    2.0990 ha        1 1BE      0.143000
     34 H2         -2.5240   -0.9880    1.4570 ha        1 1BE      0.158000
     35 H3         -4.4940    0.7460   -4.1750 hc        1 1BE      0.073000
     36 H4         -3.3930    1.8650   -3.8330 hc        1 1BE      0.073000
     37 H5         -4.2900    1.2190   -2.6540 hc        1 1BE      0.073000
     38 H6         -1.4470   -0.7640   -4.7230 hc        1 1BE      0.073000
     39 H7         -1.8390    0.7730   -4.9680 hc        1 1BE      0.073000
     40 H8         -2.8680   -0.3970   -5.3620 hc        1 1BE      0.073000
     41 H9         -4.3730   -1.3540   -3.3340 hc        1 1BE      0.094000
     42 H10        -2.9430   -2.0930   -3.4560 hc        1 1BE      0.094000
     43 H11        -4.9340   -3.5860   -1.6030 ha        1 1BE      0.140000
     44 H12        -1.5900    1.1100    0.7160 hn        1 1BE      0.226000
     45 H13         0.5990    1.2410   -0.7830 h1        1 1BE      0.121000
     46 H14         0.2660    1.1170    2.0140 hc        1 1BE      0.090500
     47 H15         0.8520    2.3310    1.1710 hc        1 1BE      0.090500
     48 H17         4.6270   -1.3210    2.8450 DU        1 1BE      0.209750
     49 H18         2.7620    3.3710    0.6170 ha        1 1BE      0.113000
     50 H19         3.8540    2.7820   -0.3890 ha        1 1BE      0.113000
     51 H20         5.2680    3.1400    1.7790 hc        1 1BE      0.072000
     52 H21         4.2870    4.4080    1.8080 hc        1 1BE      0.072000
     53 H22         6.4450    4.7030    0.5610 hc        1 1BE      0.068000
     54 H23         5.7570    3.8030   -0.5850 hc        1 1BE      0.068000
     55 H24         5.1120    5.2260   -0.1880 hc        1 1BE      0.068000
     56 H25         2.2390   -3.3600    2.1060 DU        1 1BE      0.209750
     57 H26         0.5360   -4.2780    3.6160 DU        1 1BE      0.209750
     58 H27         0.6510   -0.3440    4.3100 DU        1 1BE      0.209750
@<TRIPOS>BOND
     1    1    2 1   
     2    2    3 1   
     3    2   13 1   
     4    3    4 1   
     5    3   33 1   
     6    4   34 1   
     7    5    6 1   
     8    5   12 1   
     9    6    7 1   
    10    6   14 1   
    11    8    9 1   
    12    8   10 1   
    13    8   11 1   
    14    9   35 1   
    15    9   36 1   
    16    9   37 1   
    17   10   38 1   
    18   10   39 1   
    19   10   40 1   
    20   11   12 1   
    21   11   41 1   
    22   11   42 1   
    23   13   43 1   
    24   14   15 1   
    25   14   44 1   
    26   15   16 1   
    27   15   17 1   
    28   15   45 1   
    29   16   20 1   
    30   16   46 1   
    31   16   47 1   
    32   17   18 1   
    33   17   19 1   
    34   20   21 1   
    35   20   24 1   
    36   21   22 1   
    37   22   23 1   
    38   23   24 1   
    39   25   26 1   
    40   25   49 1   
    41   25   50 1   
    42   26   27 1   
    43   26   51 1   
    44   26   52 1   
    45   27   53 1   
    46   27   54 1   
    47   27   55 1   
    48   28   29 1   
    49   28   32 1   
    50   29   30 1   
    51   30   31 1   
    52   31   32 1   
@<TRIPOS>SUBSTRUCTURE
     1 1BE         1 TEMP              0 ****  ****    0 ROOT
