@<TRIPOS>MOLECULE
1BE
   59    62     1     0     0
SMALL
bcc


@<TRIPOS>ATOM
      1 CL1         4.6710   -3.4500   -3.9940 cl        1 1BE     -0.072400
      2 C1          4.8270   -2.3180   -2.7400 ca        1 1BE      0.048400
      3 C6          4.8220   -2.7460   -1.4090 ca        1 1BE     -0.122000
      4 C5          4.9500   -1.8140   -0.3800 ca        1 1BE     -0.081000
      5 C4          5.0890   -0.4560   -0.6780 ca        1 1BE     -0.204900
      6 C12         5.2030    0.6160    0.3370 ce        1 1BE      0.581800
      7 N11         5.0380    1.8830    0.1150 n2        1 1BE     -0.574900
      8 C10         4.7270    2.3530   -1.2340 c3        1 1BE      0.148200
      9 C28         3.2050    2.5170   -1.4070 c3        1 1BE     -0.088100
     10 C27         5.3720    3.7340   -1.4500 c3        1 1BE     -0.088100
     11 C9          5.2520    1.4160   -2.3460 c3        1 1BE     -0.069100
     12 C3          5.0870   -0.0260   -2.0220 ca        1 1BE     -0.035300
     13 C2          4.9590   -0.9600   -3.0500 ca        1 1BE     -0.137000
     14 N13         5.5120    0.2110    1.7290 n4        1 1BE     -0.720000
     15 C14         6.8410   -0.4710    1.8940 c3        1 1BE     -0.053500
     16 C15         7.8110    0.3180    2.7640 c3        1 1BE     -0.030100
     17 C7          6.6230   -1.9080    2.5630 c         1 1BE      0.927600
     18 O8          7.6640   -2.5500    2.7820 o         1 1BE     -0.766800
     19 O9          5.4220   -2.2340    2.7720 o         1 1BE     -0.766800
     20 C11         8.3660    1.5170    2.1100 cc        1 1BE     -0.115300
     21 C13         9.2980    1.4980    1.0060 cc        1 1BE      0.010000
     22 C16         9.6520    2.7940    0.6480 cd        1 1BE     -0.204100
     23 S17         8.9160    3.9410    1.5910 ss        1 1BE      0.043200
     24 C18         8.0910    2.8150    2.5180 cd        1 1BE     -0.118400
     25 C19         7.2100    3.2370    3.6220 c3        1 1BE     -0.000100
     26 C20         7.8920    3.1440    4.9760 c3        1 1BE     -0.081400
     27 C21         6.9620    3.5650    6.0840 c3        1 1BE     -0.095100
     28 C23         9.8310    0.3530    0.3360 cc        1 1BE     -0.206300
     29 C24        10.5990    0.4000   -0.8520 cd        1 1BE     -0.141300
     30 N25        10.9460   -0.9130   -1.1510 na        1 1BE     -0.021600
     31 N26        10.4690   -1.7800   -0.2550 nd        1 1BE     -0.508800
     32 C29         9.7830   -1.0630    0.6690 cc        1 1BE      0.311200
     33 H1          4.7220   -3.8160   -1.1640 ha        1 1BE      0.169000
     34 H2          4.9490   -2.1910    0.6630 ha        1 1BE      0.198000
     35 H3          2.7870    3.1870   -0.6180 hc        1 1BE      0.050367
     36 H4          2.6940    1.5260   -1.3550 hc        1 1BE      0.050367
     37 H5          3.0030    2.9740   -2.4050 hc        1 1BE      0.050367
     38 H6          6.4780    3.6860   -1.3150 hc        1 1BE      0.050367
     39 H7          5.1490    4.0700   -2.4910 hc        1 1BE      0.050367
     40 H8          4.9530    4.4780   -0.7320 hc        1 1BE      0.050367
     41 H9          4.7200    1.6640   -3.3020 hc        1 1BE      0.073200
     42 H10         6.3480    1.6160   -2.5110 hc        1 1BE      0.073200
     43 H11         4.9620   -0.6260   -4.0990 ha        1 1BE      0.153000
     44 H12         4.7910   -0.4900    2.0300 hn        1 1BE      0.466300
     45 H13         7.2840   -0.6400    0.8720 hx        1 1BE      0.112700
     46 H14         8.6490   -0.3920    3.0290 hc        1 1BE      0.090700
     47 H15         7.3200    0.5970    3.7370 hc        1 1BE      0.090700
     48 H17        10.3490    3.0460   -0.1490 h4        1 1BE      0.167000
     49 H18         6.8720    4.2960    3.4530 hc        1 1BE      0.040700
     50 H19         6.2810    2.6020    3.6350 hc        1 1BE      0.040700
     51 H20         8.2390    2.0910    5.1490 hc        1 1BE      0.051200
     52 H21         8.8050    3.7970    4.9790 hc        1 1BE      0.051200
     53 H22         6.0610    2.9060    6.1170 hc        1 1BE      0.035367
     54 H23         6.6200    4.6180    5.9360 hc        1 1BE      0.035367
     55 H24         7.4830    3.4990    7.0700 hc        1 1BE      0.035367
     56 H25        10.9040    1.2420   -1.4700 h4        1 1BE      0.172000
     57 H26        11.4950   -1.2290   -1.9140 hn        1 1BE      0.320700
     58 H27         9.2880   -1.5620    1.5140 h4        1 1BE      0.088100
     59 H132        5.4690    1.0210    2.3560 hn        1 1BE      0.466300
@<TRIPOS>BOND
     1    1    2 1   
     2    2    3 ar  
     3    2   13 ar  
     4    3    4 ar  
     5    3   33 1   
     6    4    5 ar  
     7    4   34 1   
     8    5    6 1   
     9    5   12 ar  
    10    6    7 2   
    11    6   14 1   
    12    7    8 1   
    13    8    9 1   
    14    8   10 1   
    15    8   11 1   
    16    9   35 1   
    17    9   36 1   
    18    9   37 1   
    19   10   38 1   
    20   10   39 1   
    21   10   40 1   
    22   11   12 1   
    23   11   41 1   
    24   11   42 1   
    25   12   13 ar  
    26   13   43 1   
    27   14   15 1   
    28   14   44 1   
    29   14   59 1   
    30   15   16 1   
    31   15   17 1   
    32   15   45 1   
    33   16   20 1   
    34   16   46 1   
    35   16   47 1   
    36   17   18 1   
    37   17   19 1   
    38   20   21 1   
    39   20   24 2   
    40   21   22 2   
    41   21   28 1   
    42   22   23 1   
    43   22   48 1   
    44   23   24 1   
    45   24   25 1   
    46   25   26 1   
    47   25   49 1   
    48   25   50 1   
    49   26   27 1   
    50   26   51 1   
    51   26   52 1   
    52   27   53 1   
    53   27   54 1   
    54   27   55 1   
    55   28   29 2   
    56   28   32 1   
    57   29   30 1   
    58   29   56 1   
    59   30   31 1   
    60   30   57 1   
    61   31   32 2   
    62   32   58 1   
@<TRIPOS>SUBSTRUCTURE
     1 1BE         1 TEMP              0 ****  ****    0 ROOT
