@<TRIPOS>MOLECULE
1BE
   59    62     1     0     0
SMALL
bcc


@<TRIPOS>ATOM
      1 Cl1         1.0260   -2.6290   -1.5170 cl        1 1BE     -0.072400
      2 C1          2.3790   -1.6460   -1.2300 ca        1 1BE      0.048400
      3 C6          2.5280   -1.0060    0.0030 ca        1 1BE     -0.123000
      4 C5          3.6420   -0.1990    0.2370 ca        1 1BE     -0.081000
      5 C4          4.6100   -0.0330   -0.7570 ca        1 1BE     -0.207900
      6 C12         5.8110    0.8240   -0.6240 ce        1 1BE      0.577800
      7 N11         6.5480    1.2370   -1.6090 n2        1 1BE     -0.574900
      8 C10         6.2290    0.8370   -2.9790 c3        1 1BE      0.145200
      9 C28         5.3740    1.9150   -3.6690 c3        1 1BE     -0.086100
     10 C27         7.5360    0.6910   -3.7800 c3        1 1BE     -0.086100
     11 C9          5.4810   -0.5140   -3.0640 c3        1 1BE     -0.069100
     12 C3          4.4510   -0.6740   -2.0050 ca        1 1BE     -0.038300
     13 C2          3.3380   -1.4820   -2.2360 ca        1 1BE     -0.137000
     14 N13         6.2030    1.2540    0.7400 ny        1 1BE     -0.723000
     15 C14         6.6460    0.1220    1.6240 c3        1 1BE     -0.035500
     16 C15         8.0920    0.2710    2.0930 c3        1 1BE     -0.017100
     17 C7          5.6750    0.0040    2.8800 c         1 1BE      0.925600
     18 O8          5.8940   -0.9590    3.6380 o         1 1BE     -0.774800
     19 O9          4.7730    0.8850    2.9680 o         1 1BE     -0.774800
     20 C11         8.4350    1.5990    2.6430 cc        1 1BE     -0.152300
     21 C13         9.0540    2.6500    1.8710 cc        1 1BE     -0.048000
     22 C16         9.2790    3.7750    2.6470 cd        1 1BE     -0.191100
     23 S17         8.7890    3.5610    4.2160 ss        1 1BE      0.057200
     24 C18         8.2460    1.9900    3.9610 cd        1 1BE     -0.051400
     25 C19         7.6200    1.1930    5.0290 c3        1 1BE     -0.042100
     26 C20         7.9910    1.6720    6.4190 c3        1 1BE     -0.078400
     27 C21         7.2350    0.9040    7.4730 c3        1 1BE     -0.091100
     28 C23         9.4160    2.5590    0.4900 cc        1 1BE     -0.205300
     29 C24         9.1290    3.4830   -0.5350 cd        1 1BE     -0.138300
     30 N25         9.7490    2.9970   -1.6850 na        1 1BE     -0.014600
     31 N26        10.3960    1.8500   -1.4710 nd        1 1BE     -0.516800
     32 C29        10.2310    1.5460   -0.1590 cc        1 1BE      0.313200
     33 H1          1.7770   -1.1370    0.7980 ha        1 1BE      0.168000
     34 H2          3.7300    0.2820    1.2330 ha        1 1BE      0.201000
     35 H3          4.3720    1.9940   -3.1840 hc        1 1BE      0.049367
     36 H4          5.2340    1.6340   -4.7400 hc        1 1BE      0.049367
     37 H5          5.8790    2.9100   -3.6260 hc        1 1BE      0.049367
     38 H6          8.2110   -0.0670   -3.3160 hc        1 1BE      0.049367
     39 H7          8.0750    1.6660   -3.8300 hc        1 1BE      0.049367
     40 H8          7.2820    0.3630   -4.8160 hc        1 1BE      0.049367
     41 H9          6.2230   -1.3550   -2.9660 hc        1 1BE      0.073700
     42 H10         5.0140   -0.5990   -4.0800 hc        1 1BE      0.073700
     43 H11         3.2180   -1.9880   -3.2070 ha        1 1BE      0.154000
     44 H12         5.3660    1.6750    1.2070 hn        1 1BE      0.474300
     45 H13         6.5470   -0.8400    1.0480 hx        1 1BE      0.096700
     46 H14         8.2290   -0.5180    2.8890 hc        1 1BE      0.079700
     47 H15         8.7860    0.0290    1.2430 hc        1 1BE      0.079700
     48 H17         9.7440    4.6920    2.2880 h4        1 1BE      0.171000
     49 H18         7.9010    0.1080    4.9140 hc        1 1BE      0.093700
     50 H19         6.4970    1.2280    4.8990 hc        1 1BE      0.093700
     51 H20         7.7620    2.7680    6.5160 hc        1 1BE      0.034200
     52 H21         9.0950    1.5470    6.5800 hc        1 1BE      0.034200
     53 H22         7.4600   -0.1880    7.3980 hc        1 1BE      0.038700
     54 H23         6.1340    1.0420    7.3460 hc        1 1BE      0.038700
     55 H24         7.5240    1.2580    8.4910 hc        1 1BE      0.038700
     56 H25         8.5620    4.4130   -0.5220 h4        1 1BE      0.177000
     57 H26         9.7020    3.3830   -2.5980 hn        1 1BE      0.320700
     58 H27        10.6860    0.6660    0.2980 h4        1 1BE      0.050100
     59 H132        6.9520    1.9610    0.6970 hn        1 1BE      0.474300
@<TRIPOS>BOND
     1    1    2 1   
     2    2    3 ar  
     3    2   13 ar  
     4    3    4 ar  
     5    3   33 1   
     6    4    5 ar  
     7    4   34 1   
     8    5    6 1   
     9    5   12 ar  
    10    6    7 2   
    11    6   14 1   
    12    7    8 1   
    13    8    9 1   
    14    8   10 1   
    15    8   11 1   
    16    9   35 1   
    17    9   36 1   
    18    9   37 1   
    19   10   38 1   
    20   10   39 1   
    21   10   40 1   
    22   11   12 1   
    23   11   41 1   
    24   11   42 1   
    25   12   13 ar  
    26   13   43 1   
    27   14   15 1   
    28   14   44 1   
    29   14   59 1   
    30   15   16 1   
    31   15   17 1   
    32   15   45 1   
    33   16   20 1   
    34   16   46 1   
    35   16   47 1   
    36   17   18 1   
    37   17   19 1   
    38   20   21 1   
    39   20   24 2   
    40   21   22 2   
    41   21   28 1   
    42   22   23 1   
    43   22   48 1   
    44   23   24 1   
    45   24   25 1   
    46   25   26 1   
    47   25   49 1   
    48   25   50 1   
    49   26   27 1   
    50   26   51 1   
    51   26   52 1   
    52   27   53 1   
    53   27   54 1   
    54   27   55 1   
    55   28   29 2   
    56   28   32 1   
    57   29   30 1   
    58   29   56 1   
    59   30   31 1   
    60   30   57 1   
    61   31   32 2   
    62   32   58 1   
@<TRIPOS>SUBSTRUCTURE
     1 1BE         1 TEMP              0 ****  ****    0 ROOT
