@<TRIPOS>MOLECULE
1BE
   59    62     1     0     0
SMALL
bcc


@<TRIPOS>ATOM
      1 CL1         4.5990   -3.3800   -4.0250 cl        1 1BE     -0.072400
      2 C1          4.7750   -2.2630   -2.7600 ca        1 1BE      0.048400
      3 C6          4.7730   -2.7040   -1.4340 ca        1 1BE     -0.122000
      4 C5          4.9170   -1.7840   -0.3960 ca        1 1BE     -0.081000
      5 C4          5.0670   -0.4250   -0.6810 ca        1 1BE     -0.204900
      6 C12         5.1970    0.6350    0.3450 ce        1 1BE      0.581800
      7 N11         5.0430    1.9070    0.1370 n2        1 1BE     -0.574900
      8 C10         4.7280    2.3930   -1.2060 c3        1 1BE      0.148200
      9 C28         3.2070    2.5730   -1.3670 c3        1 1BE     -0.088100
     10 C27         5.3850    3.7700   -1.4110 c3        1 1BE     -0.088100
     11 C9          5.2380    1.4620   -2.3310 c3        1 1BE     -0.069100
     12 C3          5.0600    0.0190   -2.0200 ca        1 1BE     -0.035300
     13 C2          4.9180   -0.9030   -3.0560 ca        1 1BE     -0.137000
     14 N13         5.5100    0.2130    1.7300 n4        1 1BE     -0.720000
     15 C14         6.8340   -0.4840    1.8800 c3        1 1BE     -0.053500
     16 C15         7.8170    0.2870    2.7510 c3        1 1BE     -0.030100
     17 C7          6.6060   -1.9250    2.5360 c         1 1BE      0.927600
     18 O8          7.6420   -2.5790    2.7430 o         1 1BE     -0.766800
     19 O9          5.4030   -2.2410    2.7490 o         1 1BE     -0.766800
     20 C11         8.3800    1.4870    2.1040 cc        1 1BE     -0.115300
     21 C13         9.3040    1.4690    0.9940 cc        1 1BE      0.010000
     22 C16         9.6690    2.7640    0.6460 cd        1 1BE     -0.204100
     23 S17         8.9520    3.9090    1.6050 ss        1 1BE      0.043200
     24 C18         8.1210    2.7830    2.5270 cd        1 1BE     -0.118400
     25 C19         7.2520    3.2040    3.6410 c3        1 1BE     -0.000100
     26 C20         7.9430    3.0910    4.9890 c3        1 1BE     -0.081400
     27 C21         7.0250    3.5100    6.1080 c3        1 1BE     -0.095100
     28 C23         9.8210    0.3250    0.3100 cc        1 1BE     -0.206300
     29 C24        10.5810    0.3750   -0.8840 cd        1 1BE     -0.141300
     30 N25        10.9120   -0.9380   -1.1980 na        1 1BE     -0.021600
     31 N26        10.4330   -1.8090   -0.3060 nd        1 1BE     -0.508800
     32 C29         9.7610   -1.0940    0.6290 cc        1 1BE      0.311200
     33 H1          4.6650   -3.7760   -1.1990 ha        1 1BE      0.169000
     34 H2          4.9180   -2.1720    0.6440 ha        1 1BE      0.197000
     35 H3          2.6870    1.5870   -1.3220 hc        1 1BE      0.050367
     36 H4          2.8000    3.2390   -0.5690 hc        1 1BE      0.050367
     37 H5          3.0030    3.0420   -2.3590 hc        1 1BE      0.050367
     38 H6          5.1590    4.1190   -2.4470 hc        1 1BE      0.050367
     39 H7          4.9780    4.5100   -0.6820 hc        1 1BE      0.050367
     40 H8          6.4920    3.7100   -1.2840 hc        1 1BE      0.050367
     41 H9          4.7020    1.7260   -3.2800 hc        1 1BE      0.073200
     42 H10         6.3340    1.6540   -2.5000 hc        1 1BE      0.073200
     43 H11         4.9170   -0.5580   -4.1020 ha        1 1BE      0.153000
     44 H12         5.4790    1.0170    2.3660 hn        1 1BE      0.466300
     45 H13         7.2690   -0.6480    0.8540 hx        1 1BE      0.112700
     46 H14         8.6500   -0.4340    3.0030 hc        1 1BE      0.090700
     47 H15         7.3350    0.5620    3.7300 hc        1 1BE      0.090700
     48 H17        10.3640    3.0170   -0.1530 h4        1 1BE      0.167000
     49 H18         6.3170    2.5780    3.6540 hc        1 1BE      0.040700
     50 H19         6.9250    4.2680    3.4840 hc        1 1BE      0.040700
     51 H20         8.2810    2.0330    5.1500 hc        1 1BE      0.051200
     52 H21         8.8620    3.7350    4.9920 hc        1 1BE      0.051200
     53 H22         7.5520    3.4290    7.0890 hc        1 1BE      0.035367
     54 H23         6.1180    2.8590    6.1410 hc        1 1BE      0.035367
     55 H24         6.6920    4.5680    5.9730 hc        1 1BE      0.035367
     56 H25        10.8890    1.2200   -1.4960 h4        1 1BE      0.172000
     57 H26        11.4520   -1.2530   -1.9680 hn        1 1BE      0.320700
     58 H27         9.2680   -1.5950    1.4740 h4        1 1BE      0.088100
     59 H132        4.7850   -0.4840    2.0290 hn        1 1BE      0.466300
@<TRIPOS>BOND
     1    1    2 1   
     2    2    3 ar  
     3    2   13 ar  
     4    3    4 ar  
     5    3   33 1   
     6    4    5 ar  
     7    4   34 1   
     8    5    6 1   
     9    5   12 ar  
    10    6    7 2   
    11    6   14 1   
    12    7    8 1   
    13    8    9 1   
    14    8   10 1   
    15    8   11 1   
    16    9   35 1   
    17    9   36 1   
    18    9   37 1   
    19   10   38 1   
    20   10   39 1   
    21   10   40 1   
    22   11   12 1   
    23   11   41 1   
    24   11   42 1   
    25   12   13 ar  
    26   13   43 1   
    27   14   15 1   
    28   14   44 1   
    29   14   59 1   
    30   15   16 1   
    31   15   17 1   
    32   15   45 1   
    33   16   20 1   
    34   16   46 1   
    35   16   47 1   
    36   17   18 1   
    37   17   19 1   
    38   20   21 1   
    39   20   24 2   
    40   21   22 2   
    41   21   28 1   
    42   22   23 1   
    43   22   48 1   
    44   23   24 1   
    45   24   25 1   
    46   25   26 1   
    47   25   49 1   
    48   25   50 1   
    49   26   27 1   
    50   26   51 1   
    51   26   52 1   
    52   27   53 1   
    53   27   54 1   
    54   27   55 1   
    55   28   29 2   
    56   28   32 1   
    57   29   30 1   
    58   29   56 1   
    59   30   31 1   
    60   30   57 1   
    61   31   32 2   
    62   32   58 1   
@<TRIPOS>SUBSTRUCTURE
     1 1BE         1 TEMP              0 ****  ****    0 ROOT
