@<TRIPOS>MOLECULE
1BF
   50    53     1     0     0
SMALL
bcc


@<TRIPOS>ATOM
      1 CL1         3.7280   -3.1520   -3.0880 cl        1 1BF     -0.071400
      2 C2          4.2450   -1.9990   -1.9560 ca        1 1BF      0.049400
      3 C3          4.4260   -2.3650   -0.6200 ca        1 1BF     -0.122000
      4 C4          4.8510   -1.4150    0.3090 ca        1 1BF     -0.081000
      5 C7          4.4840   -0.6840   -2.3720 ca        1 1BF     -0.136000
      6 C6          4.9080    0.2680   -1.4450 ca        1 1BF     -0.035300
      7 C5          5.1000   -0.1020   -0.0970 ca        1 1BF     -0.205900
      8 C11         5.1860    1.6600   -1.8860 c3        1 1BF     -0.069100
      9 C10         4.9850    2.7040   -0.7630 c3        1 1BF      0.148200
     10 C28         3.4870    3.0540   -0.6790 c3        1 1BF     -0.088100
     11 C29         5.7400    3.9800   -1.1780 c3        1 1BF     -0.088100
     12 N9          5.4770    2.2560    0.5390 n2        1 1BF     -0.575900
     13 C8          5.5250    0.9880    0.8110 ce        1 1BF      0.581800
     14 N12         6.0330    0.6070    2.1500 n4        1 1BF     -0.720000
     15 C13         7.2870   -0.2210    2.1220 c3        1 1BF     -0.054500
     16 C25         7.0300   -1.6100    2.8710 c         1 1BF      0.927600
     17 O26         8.0040   -2.3820    2.8930 o         1 1BF     -0.765300
     18 O27         5.8660   -1.7730    3.3320 o         1 1BF     -0.765300
     19 C14         8.4660    0.4720    2.7960 c3        1 1BF     -0.029100
     20 C15         9.0110    1.5950    2.0110 cc        1 1BF     -0.117300
     21 C16         8.7820    2.9210    2.3370 cd        1 1BF     -0.191100
     22 S17         9.5570    3.9650    1.3030 ss        1 1BF      0.059200
     23 C18        10.2170    2.7450    0.3910 cd        1 1BF     -0.206100
     24 C19         9.8680    1.4800    0.8550 cc        1 1BF      0.014000
     25 C20        10.3390    0.2800    0.2410 cc        1 1BF     -0.206300
     26 C21        11.2150    0.2300   -0.8700 cd        1 1BF     -0.138300
     27 N22        11.4260   -1.1160   -1.1470 na        1 1BF     -0.021600
     28 N23        10.7650   -1.9170   -0.3070 nd        1 1BF     -0.508800
     29 C24        10.0890   -1.1200    0.5550 cc        1 1BF      0.311200
     30 H1          4.2420   -3.4010   -0.2920 ha        1 1BF      0.169000
     31 H2          4.9920   -1.7450    1.3590 ha        1 1BF      0.197000
     32 H3          4.3400   -0.3990   -3.4260 ha        1 1BF      0.154000
     33 H4          4.5250    1.9350   -2.7500 hc        1 1BF      0.073700
     34 H5          6.2500    1.7080   -2.2500 hc        1 1BF      0.073700
     35 H6          3.1640    3.4900   -1.6540 hc        1 1BF      0.050700
     36 H7          2.8810    2.1410   -0.4740 hc        1 1BF      0.050700
     37 H8          3.3010    3.8050    0.1250 hc        1 1BF      0.050700
     38 H9          5.5490    4.8020   -0.4470 hc        1 1BF      0.050700
     39 H10         6.8390    3.7960   -1.2350 hc        1 1BF      0.050700
     40 H11         5.3740    4.2980   -2.1830 hc        1 1BF      0.050700
     41 H12         6.1950    1.4420    2.7220 hn        1 1BF      0.465800
     42 H13         7.5360   -0.4570    1.0500 hx        1 1BF      0.110700
     43 H15         8.1750    0.8250    3.8230 hc        1 1BF      0.090200
     44 H16         9.2590   -0.3180    2.9450 hc        1 1BF      0.090200
     45 H17         8.1840    3.2610    3.1800 h4        1 1BF      0.165000
     46 H18        10.8590    2.9340   -0.4670 h4        1 1BF      0.168000
     47 H19        11.6790    1.0270   -1.4470 h4        1 1BF      0.172000
     48 H20        12.0050   -1.4990   -1.8560 hn        1 1BF      0.320700
     49 H21         9.4690   -1.5540    1.3520 h4        1 1BF      0.087100
     50 H122        5.3060    0.0110    2.6170 hn        1 1BF      0.465800
@<TRIPOS>BOND
     1    1    2 1   
     2    2    3 ar  
     3    2    5 ar  
     4    3    4 ar  
     5    3   30 1   
     6    4    7 ar  
     7    4   31 1   
     8    5    6 ar  
     9    5   32 1   
    10    6    7 ar  
    11    6    8 1   
    12    7   13 1   
    13    8    9 1   
    14    8   33 1   
    15    8   34 1   
    16    9   10 1   
    17    9   11 1   
    18    9   12 1   
    19   10   35 1   
    20   10   36 1   
    21   10   37 1   
    22   11   38 1   
    23   11   39 1   
    24   11   40 1   
    25   12   13 2   
    26   13   14 1   
    27   14   15 1   
    28   14   41 1   
    29   14   50 1   
    30   15   16 1   
    31   15   19 1   
    32   15   42 1   
    33   16   17 1   
    34   16   18 1   
    35   19   20 1   
    36   19   43 1   
    37   19   44 1   
    38   20   21 2   
    39   20   24 1   
    40   21   22 1   
    41   21   45 1   
    42   22   23 1   
    43   23   24 2   
    44   23   46 1   
    45   24   25 1   
    46   25   26 2   
    47   25   29 1   
    48   26   27 1   
    49   26   47 1   
    50   27   28 1   
    51   27   48 1   
    52   28   29 2   
    53   29   49 1   
@<TRIPOS>SUBSTRUCTURE
     1 1BF         1 TEMP              0 ****  ****    0 ROOT
