@<TRIPOS>MOLECULE
1BF
   49    43     1     0     0
SMALL
bcc


@<TRIPOS>ATOM
      1 CL1        -6.1070   -3.0540   -2.0500 cl        1 1BF     -0.042000
      2 C2         -4.6550   -2.1310   -1.7690 c2        1 1BF     -0.055000
      3 C3         -4.0000   -2.2260   -0.5530 c2        1 1BF     -0.139000
      4 C4         -2.8740   -1.4570   -0.3110 c1        1 1BF     -0.092000
      5 C7         -4.1850   -1.2670   -2.7430 c1        1 1BF     -0.138000
      6 C6         -3.0410   -0.4850   -2.4970 c1        1 1BF     -0.036000
      7 C5         -2.3960   -0.5790   -1.3000 c1        1 1BF     -0.078000
      8 C11        -2.5920    0.5450   -3.5220 c3        1 1BF     -0.152000
      9 C10        -1.5810    1.6080   -3.1030 c3        1 1BF      0.038000
     10 C28        -0.7840    2.0400   -4.3130 c3        1 1BF     -0.201500
     11 C29        -2.2650    2.9090   -2.7430 c3        1 1BF     -0.201500
     12 N9         -0.7170    1.2100   -2.0190 n2        1 1BF     -0.276000
     13 C8         -1.1980    0.3130   -1.0130 c2        1 1BF      0.148000
     14 N12        -0.5110    0.2040    0.2290 n3        1 1BF     -0.260000
     15 C13         0.9090    0.1580    0.2540 c3        1 1BF     -0.061000
     16 C25         1.3990   -0.8180   -0.7890 c1        1 1BF      0.330000
     17 O26         2.4150   -0.5440   -1.4790 os        1 1BF     -0.525000
     18 O27         0.8060   -1.9170   -0.9500 o         1 1BF     -0.605000
     19 C14         1.3760   -0.2900    1.6250 c3        1 1BF     -0.125000
     20 C15         2.5860    0.5270    2.0390 c2        1 1BF     -0.047000
     21 C16         3.0760    1.7180    1.3710 c1        1 1BF     -0.425000
     22 S17         4.3260    2.2190    2.1440 ss        1 1BF      0.466000
     23 C18         4.5620    1.2480    3.3310 c1        1 1BF     -0.449000
     24 C19         3.5310    0.2280    3.2860 c1        1 1BF      0.010000
     25 C20         3.3850   -0.9280    4.2510 c1        1 1BF     -0.153000
     26 C21         4.2860   -1.9370    4.4360 c1        1 1BF     -0.114000
     27 N22         3.8370   -2.7180    5.4400 n2        1 1BF     -0.154000
     28 N23         2.6500   -2.1960    5.8860 n2        1 1BF     -0.154000
     29 C24         2.3750   -1.0960    5.1530 c1        1 1BF     -0.114000
     30 H1         -4.3480   -2.8140    0.1450 ha        1 1BF      0.143000
     31 H2         -2.4230   -1.5100    0.5540 ha        1 1BF      0.155000
     32 H3         -4.6410   -1.2080   -3.6040 ha        1 1BF      0.140000
     33 H4         -3.3910    1.0100   -3.8400 hc        1 1BF      0.093000
     34 H5         -2.2090    0.0580   -4.2790 hc        1 1BF      0.093000
     35 H6         -1.3900    2.4150   -4.9860 hc        1 1BF      0.072500
     36 H7         -0.1300    2.7190   -4.0480 hc        1 1BF      0.072500
     37 H8         -0.3170    1.2650   -4.6900 hc        1 1BF      0.072500
     38 H9         -1.5940    3.5600   -2.4480 hc        1 1BF      0.072500
     39 H10        -2.9080    2.7510   -2.0190 hc        1 1BF      0.072500
     40 H11        -2.7370    3.2590   -3.5280 hc        1 1BF      0.072500
     41 H12        -0.9810    0.1750    1.0090 hn        1 1BF      0.221000
     42 H13         1.2670    1.0470    0.0620 h1        1 1BF      0.117000
     43 H15         0.6560   -0.1580    2.2740 hc        1 1BF      0.092500
     44 H16         1.6180   -1.2380    1.5930 hc        1 1BF      0.092500
     45 H17         2.6890    2.1310    0.5770 DU        1 1BF      0.204000
     46 H18         5.2780    1.3120    3.9920 DU        1 1BF      0.204000
     47 H19         5.1090   -2.0720    3.9270 DU        1 1BF      0.204000
     48 H20         4.2510   -3.4630    5.7660 DU        1 1BF      0.204000
     49 H21         1.5920   -0.5220    5.2510 DU        1 1BF      0.204000
@<TRIPOS>BOND
     1    1    2 1   
     2    2    3 1   
     3    2    5 1   
     4    3    4 1   
     5    3   30 1   
     6    4   31 1   
     7    5   32 1   
     8    6    7 1   
     9    6    8 1   
    10    7   13 1   
    11    8    9 1   
    12    8   33 1   
    13    8   34 1   
    14    9   10 1   
    15    9   11 1   
    16    9   12 1   
    17   10   35 1   
    18   10   36 1   
    19   10   37 1   
    20   11   38 1   
    21   11   39 1   
    22   11   40 1   
    23   12   13 1   
    24   13   14 1   
    25   14   15 1   
    26   14   41 1   
    27   15   16 1   
    28   15   19 1   
    29   15   42 1   
    30   16   18 1   
    31   19   20 1   
    32   19   43 1   
    33   19   44 1   
    34   20   21 1   
    35   20   24 1   
    36   21   22 1   
    37   22   23 1   
    38   23   24 1   
    39   25   26 1   
    40   25   29 1   
    41   26   27 1   
    42   27   28 1   
    43   28   29 1   
@<TRIPOS>SUBSTRUCTURE
     1 1BF         1 TEMP              0 ****  ****    0 ROOT
