@<TRIPOS>MOLECULE
1BF
   49    52     1     0     0
SMALL
bcc


@<TRIPOS>ATOM
      1 CL1        -7.0190   -0.1610   -0.8860 cl        1 1BF     -0.123400
      2 C2         -5.3340    0.0300   -0.7020 ca        1 1BF      0.023400
      3 C3         -4.4630   -0.6450   -1.5580 ca        1 1BF     -0.142000
      4 C4         -3.0860   -0.4830   -1.4060 ca        1 1BF     -0.085000
      5 C7         -4.8410    0.8550    0.3110 ca        1 1BF     -0.139000
      6 C6         -3.4610    1.0100    0.4620 ca        1 1BF     -0.044300
      7 C5         -2.5730    0.3540   -0.4110 ca        1 1BF     -0.157900
      8 C11        -2.9210    1.8730    1.5440 c3        1 1BF     -0.066100
      9 C10        -1.5280    1.3890    2.0160 c3        1 1BF      0.161200
     10 C28        -0.9200    2.5280    2.8570 c3        1 1BF     -0.083600
     11 C29        -1.7330    0.1870    2.9570 c3        1 1BF     -0.083600
     12 N9         -0.6220    1.0680    0.9230 n2        1 1BF     -0.663900
     13 C8         -1.0980    0.5790   -0.1990 ce        1 1BF      0.665800
     14 N12        -0.2740    0.1530   -1.2540 nh        1 1BF     -0.771200
     15 C13         1.1230    0.5530   -1.3440 c3        1 1BF      0.053500
     16 C25         1.3930    1.4880   -2.5800 c         1 1BF      0.904600
     17 O26         2.4930    2.1100   -2.5820 o         1 1BF     -0.832300
     18 O27         0.5190    1.5690   -3.4840 o         1 1BF     -0.832300
     19 C14         2.0480   -0.6710   -1.4930 c3        1 1BF     -0.015100
     20 C15         2.3360   -1.3460   -0.2110 cc        1 1BF     -0.060300
     21 C16         1.5670   -2.3630    0.3100 cd        1 1BF     -0.154100
     22 S17         2.1790   -2.9500    1.7560 ss        1 1BF     -0.075800
     23 C18         3.4810   -1.8990    1.7480 cd        1 1BF     -0.183100
     24 C19         3.4760   -1.0670    0.6430 cc        1 1BF      0.013000
     25 C20         4.4810   -0.0820    0.4000 cc        1 1BF     -0.224300
     26 C21         4.4300    1.0810   -0.3990 cd        1 1BF     -0.093300
     27 N22         5.6720    1.6960   -0.2640 na        1 1BF     -0.027600
     28 N23         6.5020    1.0240    0.5430 nd        1 1BF     -0.562800
     29 C24         5.8160   -0.0630    0.9760 cc        1 1BF      0.299200
     30 H1         -4.8540   -1.3000   -2.3510 ha        1 1BF      0.141000
     31 H2         -2.4180   -1.0350   -2.0870 ha        1 1BF      0.156000
     32 H3         -5.5290    1.3780    0.9900 ha        1 1BF      0.139000
     33 H4         -2.8360    2.9250    1.1570 hc        1 1BF      0.054700
     34 H5         -3.6210    1.8900    2.4190 hc        1 1BF      0.054700
     35 H6         -1.6270    2.7890    3.6800 hc        1 1BF      0.034533
     36 H7          0.0510    2.2040    3.3010 hc        1 1BF      0.034533
     37 H8         -0.7420    3.4340    2.2310 hc        1 1BF      0.034533
     38 H9         -2.2580   -0.6400    2.4240 hc        1 1BF      0.034533
     39 H10        -0.7500   -0.1890    3.3270 hc        1 1BF      0.034533
     40 H11        -2.3500    0.5000    3.8330 hc        1 1BF      0.034533
     41 H12        -0.7190    0.2870   -2.1500 hn        1 1BF      0.422800
     42 H13         1.4490    1.1260   -0.4300 h1        1 1BF      0.082700
     43 H15         1.5930   -1.4090   -2.2070 hc        1 1BF      0.058700
     44 H16         3.0070   -0.3100   -1.9550 hc        1 1BF      0.058700
     45 H17         0.6510   -2.7430   -0.1380 h4        1 1BF      0.167000
     46 H18         4.2270   -1.8830    2.5380 h4        1 1BF      0.156000
     47 H19         3.6310    1.5050   -1.0370 h4        1 1BF      0.260000
     48 H20         5.9730    2.5210   -0.7240 hn        1 1BF      0.316700
     49 H21         6.2480   -0.7950    1.6550 h4        1 1BF      0.025100
@<TRIPOS>BOND
     1    1    2 1   
     2    2    3 ar  
     3    2    5 ar  
     4    3    4 ar  
     5    3   30 1   
     6    4    7 ar  
     7    4   31 1   
     8    5    6 ar  
     9    5   32 1   
    10    6    7 ar  
    11    6    8 1   
    12    7   13 1   
    13    8    9 1   
    14    8   33 1   
    15    8   34 1   
    16    9   10 1   
    17    9   11 1   
    18    9   12 1   
    19   10   35 1   
    20   10   36 1   
    21   10   37 1   
    22   11   38 1   
    23   11   39 1   
    24   11   40 1   
    25   12   13 2   
    26   13   14 1   
    27   14   15 1   
    28   14   41 1   
    29   15   16 1   
    30   15   19 1   
    31   15   42 1   
    32   16   17 1   
    33   16   18 1   
    34   19   20 1   
    35   19   43 1   
    36   19   44 1   
    37   20   21 2   
    38   20   24 1   
    39   21   22 1   
    40   21   45 1   
    41   22   23 1   
    42   23   24 2   
    43   23   46 1   
    44   24   25 1   
    45   25   26 2   
    46   25   29 1   
    47   26   27 1   
    48   26   47 1   
    49   27   28 1   
    50   27   48 1   
    51   28   29 2   
    52   29   49 1   
@<TRIPOS>SUBSTRUCTURE
     1 1BF         1 TEMP              0 ****  ****    0 ROOT
