@<TRIPOS>MOLECULE
1BF
   50    53     1     0     0
SMALL
bcc


@<TRIPOS>ATOM
      1 Cl1         3.8270   -3.2330   -3.0770 cl        1 1BF     -0.071400
      2 C2          4.3120   -2.0570   -1.9560 ca        1 1BF      0.049400
      3 C3          4.4730   -2.3990   -0.6110 ca        1 1BF     -0.122000
      4 C4          4.8730   -1.4310    0.3100 ca        1 1BF     -0.081000
      5 C7          4.5460   -0.7470   -2.3880 ca        1 1BF     -0.136000
      6 C6          4.9440    0.2240   -1.4700 ca        1 1BF     -0.035300
      7 C5          5.1160   -0.1210   -0.1120 ca        1 1BF     -0.205900
      8 C11         5.2160    1.6120   -1.9280 c3        1 1BF     -0.069100
      9 C10         4.9860    2.6720   -0.8260 c3        1 1BF      0.148200
     10 C28         3.4830    3.0080   -0.7730 c3        1 1BF     -0.088100
     11 C29         5.7350    3.9490   -1.2480 c3        1 1BF     -0.088100
     12 N9          5.4590    2.2490    0.4910 n2        1 1BF     -0.575900
     13 C8          5.5140    0.9870    0.7850 ce        1 1BF      0.581800
     14 N12         6.0020    0.6320    2.1390 ny        1 1BF     -0.720000
     15 C13         7.2640   -0.1850    2.1460 c3        1 1BF     -0.054500
     16 C25         7.0060   -1.5630    2.9150 c         1 1BF      0.927600
     17 O26         7.9870   -2.3250    2.9690 o         1 1BF     -0.765800
     18 O27         5.8350   -1.7280    3.3570 o         1 1BF     -0.765800
     19 C14         8.4250    0.5300    2.8260 c3        1 1BF     -0.029100
     20 C15         8.9740    1.6430    2.0310 cc        1 1BF     -0.117300
     21 C16         8.7340    2.9730    2.3320 cd        1 1BF     -0.191100
     22 S17         9.5170    4.0050    1.2920 ss        1 1BF      0.059200
     23 C18        10.1960    2.7740    0.4090 cd        1 1BF     -0.206100
     24 C19         9.8480    1.5150    0.8890 cc        1 1BF      0.014000
     25 C20        10.3340    0.3070    0.3000 cc        1 1BF     -0.206300
     26 C21        11.2190    0.2450   -0.8030 cd        1 1BF     -0.138300
     27 N22        11.4430   -1.1040   -1.0540 na        1 1BF     -0.021600
     28 N23        10.7830   -1.8950   -0.2040 nd        1 1BF     -0.508800
     29 C24        10.0930   -1.0880    0.6380 cc        1 1BF      0.311200
     30 H1          4.2940   -3.4320   -0.2690 ha        1 1BF      0.169000
     31 H2          4.9970   -1.7420    1.3680 ha        1 1BF      0.197000
     32 H3          4.4180   -0.4800   -3.4490 ha        1 1BF      0.154000
     33 H4          6.2860    1.6650   -2.2740 hc        1 1BF      0.073700
     34 H5          4.5680    1.8670   -2.8080 hc        1 1BF      0.073700
     35 H6          3.2760    3.7710    0.0150 hc        1 1BF      0.050700
     36 H7          3.1720    3.4250   -1.7610 hc        1 1BF      0.050700
     37 H8          2.8820    2.0920   -0.5640 hc        1 1BF      0.050700
     38 H9          5.3830    4.2460   -2.2650 hc        1 1BF      0.050700
     39 H10         6.8370    3.7750   -1.2840 hc        1 1BF      0.050700
     40 H11         5.5240    4.7800   -0.5340 hc        1 1BF      0.050700
     41 H12         6.1470    1.4780    2.7000 hn        1 1BF      0.465800
     42 H13         7.5330   -0.4380    1.0820 hx        1 1BF      0.110700
     43 H15         9.2220   -0.2500    3.0030 hc        1 1BF      0.090200
     44 H16         8.1140    0.9000    3.8420 hc        1 1BF      0.090200
     45 H17         8.1220    3.3230    3.1610 h4        1 1BF      0.165000
     46 H18        10.8500    2.9530   -0.4430 h4        1 1BF      0.168000
     47 H19        11.6800    1.0350   -1.3910 h4        1 1BF      0.172000
     48 H20        12.0310   -1.4950   -1.7510 hn        1 1BF      0.320700
     49 H21         9.4710   -1.5130    1.4380 h4        1 1BF      0.087100
     50 H122        5.2730    0.0370    2.6030 hn        1 1BF      0.465800
@<TRIPOS>BOND
     1    1    2 1   
     2    2    3 ar  
     3    2    5 ar  
     4    3    4 ar  
     5    3   30 1   
     6    4    7 ar  
     7    4   31 1   
     8    5    6 ar  
     9    5   32 1   
    10    6    7 ar  
    11    6    8 1   
    12    7   13 1   
    13    8    9 1   
    14    8   33 1   
    15    8   34 1   
    16    9   10 1   
    17    9   11 1   
    18    9   12 1   
    19   10   35 1   
    20   10   36 1   
    21   10   37 1   
    22   11   38 1   
    23   11   39 1   
    24   11   40 1   
    25   12   13 2   
    26   13   14 1   
    27   14   15 1   
    28   14   41 1   
    29   14   50 1   
    30   15   16 1   
    31   15   19 1   
    32   15   42 1   
    33   16   17 1   
    34   16   18 1   
    35   19   20 1   
    36   19   43 1   
    37   19   44 1   
    38   20   21 2   
    39   20   24 1   
    40   21   22 1   
    41   21   45 1   
    42   22   23 1   
    43   23   24 2   
    44   23   46 1   
    45   24   25 1   
    46   25   26 2   
    47   25   29 1   
    48   26   27 1   
    49   26   47 1   
    50   27   28 1   
    51   27   48 1   
    52   28   29 2   
    53   29   49 1   
@<TRIPOS>SUBSTRUCTURE
     1 1BF         1 TEMP              0 ****  ****    0 ROOT
