@<TRIPOS>MOLECULE
1BF
   50    53     1     0     0
SMALL
bcc


@<TRIPOS>ATOM
      1 CL1         3.8970   -3.3650   -3.0000 cl        1 1BF     -0.071400
      2 C2          4.3560   -2.1430   -1.9170 ca        1 1BF      0.049400
      3 C3          4.4740   -2.4270   -0.5540 ca        1 1BF     -0.123000
      4 C4          4.8520   -1.4210    0.3350 ca        1 1BF     -0.081000
      5 C7          4.6090   -0.8550   -2.4000 ca        1 1BF     -0.136000
      6 C6          4.9850    0.1540   -1.5130 ca        1 1BF     -0.035300
      7 C5          5.1150   -0.1320   -0.1370 ca        1 1BF     -0.205900
      8 C11         5.2790    1.5190   -2.0240 c3        1 1BF     -0.069100
      9 C10         5.0210    2.6280   -0.9770 c3        1 1BF      0.148200
     10 C28         3.5200    2.9730   -0.9840 c3        1 1BF     -0.088100
     11 C29         5.7900    3.8810   -1.4320 c3        1 1BF     -0.088100
     12 N9          5.4530    2.2620    0.3710 n2        1 1BF     -0.575900
     13 C8          5.4930    1.0130    0.7220 ce        1 1BF      0.581800
     14 N12         5.9380    0.7160    2.1040 n4        1 1BF     -0.720000
     15 C13         7.1950   -0.1030    2.1850 c3        1 1BF     -0.053500
     16 C25         6.9070   -1.4470    3.0020 c         1 1BF      0.927600
     17 O26         7.8810   -2.2110    3.1150 o         1 1BF     -0.765300
     18 O27         5.7240   -1.5890    3.4180 o         1 1BF     -0.765300
     19 C14         8.3370    0.6360    2.8720 c3        1 1BF     -0.029100
     20 C15         8.9150    1.7140    2.0490 cc        1 1BF     -0.117300
     21 C16         8.6600    3.0550    2.2790 cd        1 1BF     -0.191100
     22 S17         9.4800    4.0420    1.2240 ss        1 1BF      0.059200
     23 C18        10.1950    2.7740    0.4250 cd        1 1BF     -0.206100
     24 C19         9.8320    1.5380    0.9490 cc        1 1BF      0.014000
     25 C20        10.3430    0.3060    0.4360 cc        1 1BF     -0.206300
     26 C21        11.2840    0.1970   -0.6170 cd        1 1BF     -0.138300
     27 N22        11.5160   -1.1610   -0.8010 na        1 1BF     -0.021600
     28 N23        10.8090   -1.9160    0.0450 nd        1 1BF     -0.508800
     29 C24        10.0800   -1.0740    0.8170 cc        1 1BF      0.311200
     30 H1          4.2790   -3.4430   -0.1730 ha        1 1BF      0.169000
     31 H2          4.9430   -1.6850    1.4080 ha        1 1BF      0.197000
     32 H3          4.5140   -0.6340   -3.4740 ha        1 1BF      0.154000
     33 H4          6.3590    1.5520   -2.3390 hc        1 1BF      0.073700
     34 H5          4.6590    1.7370   -2.9330 hc        1 1BF      0.073700
     35 H6          3.2930    3.7700   -0.2360 hc        1 1BF      0.050700
     36 H7          3.2410    3.3460   -1.9980 hc        1 1BF      0.050700
     37 H8          2.9080    2.0690   -0.7530 hc        1 1BF      0.050700
     38 H9          5.4710    4.1350   -2.4710 hc        1 1BF      0.050700
     39 H10         6.8910    3.7010   -1.4270 hc        1 1BF      0.050700
     40 H11         5.5630    4.7440   -0.7610 hc        1 1BF      0.050700
     41 H12         5.1920    0.1450    2.5710 hn        1 1BF      0.465800
     42 H13         7.4970   -0.4010    1.1420 hx        1 1BF      0.110700
     43 H15         9.1260   -0.1380    3.1060 hc        1 1BF      0.090200
     44 H16         7.9950    1.0480    3.8610 hc        1 1BF      0.090200
     45 H17         8.0160    3.4410    3.0680 h4        1 1BF      0.165000
     46 H18        10.8800    2.9170   -0.4090 h4        1 1BF      0.168000
     47 H19        11.7780    0.9620   -1.2120 h4        1 1BF      0.172000
     48 H20        12.1370   -1.5810   -1.4500 hn        1 1BF      0.320700
     49 H21         9.4160   -1.4640    1.6010 h4        1 1BF      0.087100
     50 H122        6.0700    1.5860    2.6310 hn        1 1BF      0.465800
@<TRIPOS>BOND
     1    1    2 1   
     2    2    3 ar  
     3    2    5 ar  
     4    3    4 ar  
     5    3   30 1   
     6    4    7 ar  
     7    4   31 1   
     8    5    6 ar  
     9    5   32 1   
    10    6    7 ar  
    11    6    8 1   
    12    7   13 1   
    13    8    9 1   
    14    8   33 1   
    15    8   34 1   
    16    9   10 1   
    17    9   11 1   
    18    9   12 1   
    19   10   35 1   
    20   10   36 1   
    21   10   37 1   
    22   11   38 1   
    23   11   39 1   
    24   11   40 1   
    25   12   13 2   
    26   13   14 1   
    27   14   15 1   
    28   14   41 1   
    29   14   50 1   
    30   15   16 1   
    31   15   19 1   
    32   15   42 1   
    33   16   17 1   
    34   16   18 1   
    35   19   20 1   
    36   19   43 1   
    37   19   44 1   
    38   20   21 2   
    39   20   24 1   
    40   21   22 1   
    41   21   45 1   
    42   22   23 1   
    43   23   24 2   
    44   23   46 1   
    45   24   25 1   
    46   25   26 2   
    47   25   29 1   
    48   26   27 1   
    49   26   47 1   
    50   27   28 1   
    51   27   48 1   
    52   28   29 2   
    53   29   49 1   
@<TRIPOS>SUBSTRUCTURE
     1 1BF         1 TEMP              0 ****  ****    0 ROOT
