@<TRIPOS>MOLECULE
1BG
   86    90     1     0     0
SMALL
bcc


@<TRIPOS>ATOM
      1 N2         -0.0350    1.2300    0.1150 ny        1 1BG     -0.761000
      2 C1          1.2860    1.1700   -0.5700 c3        1 1BG      0.074100
      3 C3         -0.2740    0.0290    0.9960 c3        1 1BG      0.062500
      4 C5          0.3250    0.2180    2.3870 c3        1 1BG     -0.161100
      5 C6         -1.7820   -0.2750    1.1020 c         1 1BG      0.514100
      6 O7         -2.6510    0.3540    0.5160 o         1 1BG     -0.390100
      7 N8         -2.1570   -1.4230    1.9720 ny        1 1BG     -0.664800
      8 C9         -3.6490   -1.6980    2.0950 c3        1 1BG      0.067500
      9 C17        -4.1860   -1.0020    3.3770 c         1 1BG      0.661100
     10 O18        -3.3420   -0.5250    4.1700 o         1 1BG     -0.617100
     11 C11        -3.9120   -3.2160    2.1540 c3        1 1BG     -0.100700
     12 C16        -3.2100   -3.8990    3.3190 c3        1 1BG     -0.086900
     13 C15        -3.6070   -5.3640    3.3780 c3        1 1BG     -0.079900
     14 C14        -3.3210   -6.0690    2.0690 c3        1 1BG     -0.092400
     15 C13        -3.9750   -5.3650    0.8990 c3        1 1BG     -0.079900
     16 C12        -3.5740   -3.9010    0.8360 c3        1 1BG     -0.086900
     17 N19        -5.5340   -0.9240    3.6260 n         1 1BG     -0.433800
     18 C20        -6.5780   -1.3270    2.6880 c3        1 1BG      0.084000
     19 C21        -7.7340   -0.3040    2.6480 c3        1 1BG      0.148500
     20 C23        -8.9980   -0.7380    1.8890 c3        1 1BG     -0.074400
     21 C24       -10.1280    0.0180    2.6000 c3        1 1BG     -0.087400
     22 C25        -9.5210    0.5910    3.9010 c3        1 1BG      0.167800
     23 N26        -8.1900   -0.0020    4.0180 n3        1 1BG     -0.794600
     24 C27        -7.1370    0.6390    4.7610 c3        1 1BG      0.155800
     25 C28        -5.9760   -0.3930    4.9170 c3        1 1BG      0.038700
     26 C30        -6.3270   -1.5850    5.8430 c         1 1BG      0.518100
     27 O31        -5.5410   -2.5000    6.0550 o         1 1BG     -0.420100
     28 N32        -7.6720   -1.6320    6.4790 ny        1 1BG     -0.666800
     29 C33        -7.8050   -2.5800    7.6810 c3        1 1BG      0.204800
     30 C34        -9.0900   -3.4030    7.5260 c3        1 1BG     -0.101400
     31 C35        -9.4430   -4.0610    8.8430 c3        1 1BG     -0.074400
     32 C36        -9.7470   -3.0100    9.8880 c3        1 1BG     -0.060100
     33 C37        -8.6620   -1.9970    9.9880 ca        1 1BG     -0.014300
     34 C38        -8.5450   -1.2490   11.1710 ca        1 1BG     -0.113000
     35 C39        -7.5190   -0.3250   11.3300 ca        1 1BG     -0.070000
     36 C40        -6.5760   -0.1470   10.3110 ca        1 1BG     -0.115000
     37 C41        -6.6830   -0.8800    9.1370 ca        1 1BG     -0.146000
     38 C42        -7.7390   -1.7900    8.9530 ca        1 1BG     -0.182300
     39 H4         -0.7820    1.2970   -0.5960 hn        1 1BG      0.479800
     40 H1          1.4260    2.1270   -1.1530 hx        1 1BG      0.133033
     41 H2          1.3130    0.2970   -1.2780 hx        1 1BG      0.133033
     42 H3          2.1090    1.0750    0.1890 hx        1 1BG      0.133033
     43 H6          0.2220   -0.8580    0.4830 hx        1 1BG      0.155700
     44 H7          0.4080   -0.7720    2.9040 hc        1 1BG      0.111033
     45 H8          1.3690    0.6290    2.3260 hc        1 1BG      0.111033
     46 H9         -0.2860    0.9150    3.0140 hc        1 1BG      0.111033
     47 H10        -1.7970   -1.2340    2.9360 hn        1 1BG      0.499300
     48 H11        -4.1480   -1.2610    1.1770 hx        1 1BG      0.141700
     49 H12        -5.0280   -3.3250    2.3100 hc        1 1BG      0.109700
     50 H21        -3.4870   -3.3930    4.2820 hc        1 1BG      0.042200
     51 H22        -2.0960   -3.8360    3.2040 hc        1 1BG      0.042200
     52 H19        -4.6990   -5.4460    3.6220 hc        1 1BG      0.073200
     53 H20        -3.0390   -5.8630    4.2070 hc        1 1BG      0.073200
     54 H17        -2.2120   -6.1280    1.9040 hc        1 1BG      0.073200
     55 H18        -3.7010   -7.1250    2.1250 hc        1 1BG      0.073200
     56 H15        -3.6760   -5.8680   -0.0600 hc        1 1BG      0.073200
     57 H16        -5.0910   -5.4450    0.9820 hc        1 1BG      0.073200
     58 H13        -2.4740   -3.8460    0.6250 hc        1 1BG      0.042200
     59 H14        -4.1150   -3.4000   -0.0090 hc        1 1BG      0.042200
     60 H23        -6.1570   -1.4110    1.6490 h1        1 1BG      0.069700
     61 H24        -6.9710   -2.3380    3.0000 h1        1 1BG      0.069700
     62 H25        -7.3340    0.6310    2.1460 h1        1 1BG      0.054700
     63 H26        -8.9300   -0.4520    0.8110 hc        1 1BG      0.072200
     64 H27        -9.1510   -1.8430    1.9510 hc        1 1BG      0.072200
     65 H28       -10.5190    0.8490    1.9620 hc        1 1BG      0.084700
     66 H29       -10.9800   -0.6670    2.8320 hc        1 1BG      0.084700
     67 H30        -9.4910    1.7140    3.8610 h1        1 1BG      0.064200
     68 H31       -10.1200    0.2850    4.8000 h1        1 1BG      0.064200
     69 H33        -6.7100    1.5520    4.2480 h1        1 1BG      0.080200
     70 H34        -7.5000    0.9840    5.7670 h1        1 1BG      0.080200
     71 H35        -5.1090    0.1350    5.4290 h1        1 1BG      0.149700
     72 H36        -8.3490   -1.9120    5.7540 hn        1 1BG      0.472300
     73 H37        -6.9160   -3.2840    7.6440 hx        1 1BG      0.125700
     74 H38        -9.9520   -2.7530    7.2130 hc        1 1BG      0.063700
     75 H39        -8.9390   -4.1870    6.7390 hc        1 1BG      0.063700
     76 H40       -10.3400   -4.7200    8.6950 hc        1 1BG      0.080200
     77 H41        -8.5980   -4.7150    9.1860 hc        1 1BG      0.080200
     78 H42        -9.8920   -3.5100   10.8850 hc        1 1BG      0.086700
     79 H43       -10.7130   -2.4880    9.6410 hc        1 1BG      0.086700
     80 H44        -9.2740   -1.4100   11.9850 ha        1 1BG      0.171000
     81 H45        -7.4370    0.2570   12.2640 ha        1 1BG      0.172000
     82 H46        -5.7450    0.5620   10.4500 ha        1 1BG      0.156000
     83 H47        -5.9080   -0.7680    8.3640 ha        1 1BG      0.100000
     84 H221       -0.0740    2.0830    0.6960 hn        1 1BG      0.479800
     85 H82        -1.7070   -2.2830    1.6150 hn        1 1BG      0.499300
     86 H322       -7.9240   -0.6870    6.8010 hn        1 1BG      0.472300
@<TRIPOS>BOND
     1    1    2 1   
     2    1    3 1   
     3    1   39 1   
     4    1   84 1   
     5    2   40 1   
     6    2   41 1   
     7    2   42 1   
     8    3    4 1   
     9    3    5 1   
    10    3   43 1   
    11    4   44 1   
    12    4   45 1   
    13    4   46 1   
    14    5    6 2   
    15    5    7 1   
    16    7    8 1   
    17    7   47 1   
    18    7   85 1   
    19    8    9 1   
    20    8   11 1   
    21    8   48 1   
    22    9   10 2   
    23    9   17 1   
    24   11   12 1   
    25   11   16 1   
    26   11   49 1   
    27   12   13 1   
    28   12   50 1   
    29   12   51 1   
    30   13   14 1   
    31   13   52 1   
    32   13   53 1   
    33   14   15 1   
    34   14   54 1   
    35   14   55 1   
    36   15   16 1   
    37   15   56 1   
    38   15   57 1   
    39   16   58 1   
    40   16   59 1   
    41   17   18 1   
    42   17   25 1   
    43   18   19 1   
    44   18   60 1   
    45   18   61 1   
    46   19   20 1   
    47   19   23 1   
    48   19   62 1   
    49   20   21 1   
    50   20   63 1   
    51   20   64 1   
    52   21   22 1   
    53   21   65 1   
    54   21   66 1   
    55   22   23 1   
    56   22   67 1   
    57   22   68 1   
    58   23   24 1   
    59   24   25 1   
    60   24   69 1   
    61   24   70 1   
    62   25   26 1   
    63   25   71 1   
    64   26   27 2   
    65   26   28 1   
    66   28   29 1   
    67   28   72 1   
    68   28   86 1   
    69   29   30 1   
    70   29   38 1   
    71   29   73 1   
    72   30   31 1   
    73   30   74 1   
    74   30   75 1   
    75   31   32 1   
    76   31   76 1   
    77   31   77 1   
    78   32   33 1   
    79   32   78 1   
    80   32   79 1   
    81   33   34 ar  
    82   33   38 ar  
    83   34   35 ar  
    84   34   80 1   
    85   35   36 ar  
    86   35   81 1   
    87   36   37 ar  
    88   36   82 1   
    89   37   38 ar  
    90   37   83 1   
@<TRIPOS>SUBSTRUCTURE
     1 1BG         1 TEMP              0 ****  ****    0 ROOT
