@<TRIPOS>MOLECULE
1BG
   83    87     1     0     0
SMALL
bcc


@<TRIPOS>ATOM
      1 N2          6.6980   -0.6940    2.5230 n3        1 1BG     -0.802200
      2 C1          7.5960   -0.8230    1.4030 c3        1 1BG      0.144100
      3 C3          5.3400   -1.1270    2.2530 c3        1 1BG      0.115500
      4 C5          4.4870   -1.1660    3.5220 c3        1 1BG     -0.097100
      5 C6          4.5890   -0.2310    1.2330 c         1 1BG      0.614100
      6 O7          4.9340    0.9490    1.0260 o         1 1BG     -0.617100
      7 N8          3.5500   -0.8190    0.5300 n         1 1BG     -0.538900
      8 C9          2.6470   -0.0400   -0.2800 c3        1 1BG      0.040700
      9 C17         1.2870    0.1670    0.4400 c         1 1BG      0.640100
     10 O18         0.8840   -0.6750    1.2730 o         1 1BG     -0.633100
     11 C11         2.3450   -0.6730   -1.6560 c3        1 1BG     -0.067700
     12 C16         1.8390   -2.1040   -1.5560 c3        1 1BG     -0.074900
     13 C15         1.4820   -2.6300   -2.9330 c3        1 1BG     -0.077400
     14 C14         2.6710   -2.5520   -3.8700 c3        1 1BG     -0.077400
     15 C13         3.2320   -1.1460   -3.9400 c3        1 1BG     -0.077400
     16 C12         3.5660   -0.6110   -2.5610 c3        1 1BG     -0.074900
     17 N19         0.5330    1.3050    0.1940 n         1 1BG     -0.442800
     18 C20         0.7860    2.2090   -0.9160 c3        1 1BG      0.095000
     19 C21         0.4260    3.6550   -0.5140 c3        1 1BG      0.166500
     20 C23         0.5190    4.7130   -1.6250 c3        1 1BG     -0.074400
     21 C24        -0.5570    5.7390   -1.2490 c3        1 1BG     -0.083400
     22 C25        -1.4080    5.0850   -0.1340 c3        1 1BG      0.187800
     23 N26        -0.9710    3.7040   -0.0600 n3        1 1BG     -0.759600
     24 C27        -1.1900    2.9010    1.1090 c3        1 1BG      0.196800
     25 C28        -0.7710    1.4210    0.8300 c3        1 1BG      0.035700
     26 C30        -1.8960    0.7500   -0.0010 c         1 1BG      0.651100
     27 O31        -1.8040    0.5670   -1.2300 o         1 1BG     -0.601100
     28 N32        -3.0290    0.3880    0.7010 n         1 1BG     -0.567900
     29 C33        -4.1210   -0.3460    0.0930 c3        1 1BG      0.146000
     30 C34        -5.4170    0.4870    0.1180 c3        1 1BG     -0.084400
     31 C35        -6.5710   -0.3320   -0.4090 c3        1 1BG     -0.076400
     32 C36        -6.8520   -1.4980    0.5120 c3        1 1BG     -0.038100
     33 C37        -5.6200   -2.2480    0.8780 ca        1 1BG     -0.063300
     34 C38        -5.7690   -3.5350    1.4150 ca        1 1BG     -0.136000
     35 C39        -4.6580   -4.2870    1.7810 ca        1 1BG     -0.125000
     36 C40        -3.3780   -3.7610    1.6020 ca        1 1BG     -0.134000
     37 C41        -3.2200   -2.4860    1.0670 ca        1 1BG     -0.120000
     38 C42        -4.3330   -1.7120    0.7110 ca        1 1BG     -0.101300
     39 H4          6.6910    0.2530    2.8610 hn        1 1BG      0.374800
     40 H1          7.2730   -0.2350    0.5000 h1        1 1BG      0.036700
     41 H2          8.6080   -0.4620    1.7230 h1        1 1BG      0.036700
     42 H3          7.6740   -1.9040    1.1140 h1        1 1BG      0.036700
     43 H6          5.4060   -2.1740    1.8300 h1        1 1BG      0.073700
     44 H7          4.9750   -1.8080    4.2940 hc        1 1BG      0.051367
     45 H8          4.3520   -0.1410    3.9430 hc        1 1BG      0.051367
     46 H9          3.4830   -1.5920    3.2840 hc        1 1BG      0.051367
     47 H10         3.1820   -1.6800    0.8710 hn        1 1BG      0.319500
     48 H11         3.1460    0.9630   -0.4500 h1        1 1BG      0.104700
     49 H12         1.5300   -0.0450   -2.1230 hc        1 1BG      0.065700
     50 H21         2.6280   -2.7640   -1.1100 hc        1 1BG      0.047450
     51 H22         0.9430   -2.1390   -0.8840 hc        1 1BG      0.047450
     52 H19         1.1390   -3.6940   -2.8470 hc        1 1BG      0.042950
     53 H20         0.6300   -2.0340   -3.3530 hc        1 1BG      0.042950
     54 H17         3.4700   -3.2550   -3.5170 hc        1 1BG      0.039700
     55 H18         2.3610   -2.8830   -4.8960 hc        1 1BG      0.039700
     56 H15         4.1560   -1.1420   -4.5730 hc        1 1BG      0.042950
     57 H16         2.4830   -0.4710   -4.4310 hc        1 1BG      0.042950
     58 H13         3.9210    0.4490   -2.6450 hc        1 1BG      0.047450
     59 H14         4.3990   -1.2130   -2.1150 hc        1 1BG      0.047450
     60 H23         1.8700    2.1890   -1.2050 h1        1 1BG      0.068700
     61 H24         0.1630    1.8930   -1.8040 h1        1 1BG      0.068700
     62 H25         1.1320    3.9650    0.3180 h1        1 1BG      0.032700
     63 H26         1.5350    5.1720   -1.6490 hc        1 1BG      0.054200
     64 H27         0.3090    4.2610   -2.6240 hc        1 1BG      0.054200
     65 H28        -0.0960    6.6840   -0.8750 hc        1 1BG      0.050200
     66 H29        -1.1960    5.9850   -2.1300 hc        1 1BG      0.050200
     67 H30        -1.2710    5.6400    0.8370 h1        1 1BG      0.036700
     68 H31        -2.5000    5.0970   -0.3930 h1        1 1BG      0.036700
     69 H33        -0.6030    3.2600    2.0060 h1        1 1BG      0.043700
     70 H34        -2.2820    2.9300    1.3730 h1        1 1BG      0.043700
     71 H35        -0.7010    0.8990    1.8330 h1        1 1BG      0.095700
     72 H36        -3.0220    0.4350    1.6910 hn        1 1BG      0.307500
     73 H37        -3.8490   -0.5210   -0.9970 h1        1 1BG      0.097700
     74 H38        -5.6430    0.8270    1.1620 hc        1 1BG      0.048700
     75 H39        -5.2760    1.4010   -0.5160 hc        1 1BG      0.048700
     76 H40        -7.4860    0.3120   -0.4900 hc        1 1BG      0.046700
     77 H41        -6.3320   -0.7070   -1.4390 hc        1 1BG      0.046700
     78 H42        -7.3330   -1.1220    1.4570 hc        1 1BG      0.050700
     79 H43        -7.5860   -2.1930    0.0220 hc        1 1BG      0.050700
     80 H44        -6.7800   -3.9500    1.5450 ha        1 1BG      0.130000
     81 H45        -4.7880   -5.2940    2.2040 ha        1 1BG      0.131000
     82 H46        -2.4940   -4.3530    1.8800 ha        1 1BG      0.133000
     83 H47        -2.2010   -2.0960    0.9150 ha        1 1BG      0.143000
@<TRIPOS>BOND
     1    1    2 1   
     2    1    3 1   
     3    1   39 1   
     4    2   40 1   
     5    2   41 1   
     6    2   42 1   
     7    3    4 1   
     8    3    5 1   
     9    3   43 1   
    10    4   44 1   
    11    4   45 1   
    12    4   46 1   
    13    5    6 2   
    14    5    7 1   
    15    7    8 1   
    16    7   47 1   
    17    8    9 1   
    18    8   11 1   
    19    8   48 1   
    20    9   10 2   
    21    9   17 1   
    22   11   12 1   
    23   11   16 1   
    24   11   49 1   
    25   12   13 1   
    26   12   50 1   
    27   12   51 1   
    28   13   14 1   
    29   13   52 1   
    30   13   53 1   
    31   14   15 1   
    32   14   54 1   
    33   14   55 1   
    34   15   16 1   
    35   15   56 1   
    36   15   57 1   
    37   16   58 1   
    38   16   59 1   
    39   17   18 1   
    40   17   25 1   
    41   18   19 1   
    42   18   60 1   
    43   18   61 1   
    44   19   20 1   
    45   19   23 1   
    46   19   62 1   
    47   20   21 1   
    48   20   63 1   
    49   20   64 1   
    50   21   22 1   
    51   21   65 1   
    52   21   66 1   
    53   22   23 1   
    54   22   67 1   
    55   22   68 1   
    56   23   24 1   
    57   24   25 1   
    58   24   69 1   
    59   24   70 1   
    60   25   26 1   
    61   25   71 1   
    62   26   27 2   
    63   26   28 1   
    64   28   29 1   
    65   28   72 1   
    66   29   30 1   
    67   29   38 1   
    68   29   73 1   
    69   30   31 1   
    70   30   74 1   
    71   30   75 1   
    72   31   32 1   
    73   31   76 1   
    74   31   77 1   
    75   32   33 1   
    76   32   78 1   
    77   32   79 1   
    78   33   34 ar  
    79   33   38 ar  
    80   34   35 ar  
    81   34   80 1   
    82   35   36 ar  
    83   35   81 1   
    84   36   37 ar  
    85   36   82 1   
    86   37   38 ar  
    87   37   83 1   
@<TRIPOS>SUBSTRUCTURE
     1 1BG         1 TEMP              0 ****  ****    0 ROOT
