@<TRIPOS>MOLECULE
1BG
   86    90     1     0     0
SMALL
bcc


@<TRIPOS>ATOM
      1 N2         -0.0540    1.2600    0.1090 n4        1 1BG     -0.761000
      2 C1          1.2680    1.2080   -0.5740 c3        1 1BG      0.074100
      3 C3         -0.2820    0.0620    0.9970 c3        1 1BG      0.062500
      4 C5          0.3130    0.2650    2.3880 c3        1 1BG     -0.161100
      5 C6         -1.7880   -0.2550    1.1030 c         1 1BG      0.514100
      6 O7         -2.6620    0.3620    0.5120 o         1 1BG     -0.390100
      7 N8         -2.1530   -1.4010    1.9790 n4        1 1BG     -0.664800
      8 C9         -3.6430   -1.6900    2.1010 c3        1 1BG      0.067500
      9 C17        -4.1890   -0.9930    3.3780 c         1 1BG      0.661100
     10 O18        -3.3500   -0.5030    4.1710 o         1 1BG     -0.617100
     11 C11        -3.8920   -3.2100    2.1680 c3        1 1BG     -0.100700
     12 C16        -3.1860   -3.8810    3.3370 c3        1 1BG     -0.086900
     13 C15        -3.5680   -5.3490    3.4030 c3        1 1BG     -0.079900
     14 C14        -3.2730   -6.0580    2.0980 c3        1 1BG     -0.092400
     15 C13        -3.9320   -5.3670    0.9230 c3        1 1BG     -0.079900
     16 C12        -3.5450   -3.8990    0.8540 c3        1 1BG     -0.086900
     17 N19        -5.5380   -0.9270    3.6250 n         1 1BG     -0.433800
     18 C20        -6.5770   -1.3440    2.6870 c3        1 1BG      0.084000
     19 C21        -7.7410   -0.3320    2.6400 c3        1 1BG      0.148500
     20 C23        -9.0010   -0.7810    1.8810 c3        1 1BG     -0.074400
     21 C24       -10.1390   -0.0320    2.5860 c3        1 1BG     -0.087400
     22 C25        -9.5390    0.5530    3.8850 c3        1 1BG      0.167800
     23 N26        -8.2040   -0.0270    4.0080 n3        1 1BG     -0.794600
     24 C27        -7.1580    0.6270    4.7500 c3        1 1BG      0.155800
     25 C28        -5.9870   -0.3940    4.9130 c3        1 1BG      0.038700
     26 C30        -6.3290   -1.5840    5.8440 c         1 1BG      0.518100
     27 O31        -5.5340   -2.4900    6.0630 o         1 1BG     -0.420100
     28 N32        -7.6750   -1.6410    6.4780 n4        1 1BG     -0.666800
     29 C33        -7.8020   -2.5860    7.6820 c3        1 1BG      0.204800
     30 C34        -9.0770   -3.4240    7.5260 c3        1 1BG     -0.101400
     31 C35        -9.4270   -4.0800    8.8440 c3        1 1BG     -0.074400
     32 C36        -9.7480   -3.0280    9.8830 c3        1 1BG     -0.060100
     33 C37        -8.6750   -2.0030    9.9840 ca        1 1BG     -0.014300
     34 C38        -8.5720   -1.2480   11.1640 ca        1 1BG     -0.113000
     35 C39        -7.5570   -0.3120   11.3230 ca        1 1BG     -0.070000
     36 C40        -6.6120   -0.1280   10.3070 ca        1 1BG     -0.115000
     37 C41        -6.7060   -0.8670    9.1360 ca        1 1BG     -0.146000
     38 C42        -7.7500   -1.7890    8.9510 ca        1 1BG     -0.182300
     39 H4         -0.8000    1.3160   -0.6040 hn        1 1BG      0.479800
     40 H1          1.3050    0.3310   -1.2760 hx        1 1BG      0.133033
     41 H2          1.4000    2.1630   -1.1630 hx        1 1BG      0.133033
     42 H3          2.0920    1.1250    0.1870 hx        1 1BG      0.133033
     43 H6          0.2220   -0.8230    0.4900 hx        1 1BG      0.155700
     44 H7          1.3530    0.6850    2.3260 hc        1 1BG      0.111033
     45 H8          0.4040   -0.7210    2.9110 hc        1 1BG      0.111033
     46 H9         -0.3060    0.9600    3.0100 hc        1 1BG      0.111033
     47 H10        -1.6950   -2.2590    1.6280 hn        1 1BG      0.499300
     48 H11        -4.1450   -1.2630    1.1800 hx        1 1BG      0.141700
     49 H12        -5.0070   -3.3290    2.3220 hc        1 1BG      0.109700
     50 H21        -2.0720   -3.8080    3.2240 hc        1 1BG      0.042200
     51 H22        -3.4690   -3.3720    4.2970 hc        1 1BG      0.042200
     52 H19        -4.6600   -5.4400    3.6460 hc        1 1BG      0.073200
     53 H20        -2.9980   -5.8380    4.2360 hc        1 1BG      0.073200
     54 H17        -3.6440   -7.1170    2.1590 hc        1 1BG      0.073200
     55 H18        -2.1640   -6.1070    1.9360 hc        1 1BG      0.073200
     56 H15        -5.0480   -5.4560    1.0050 hc        1 1BG      0.073200
     57 H16        -3.6270   -5.8710   -0.0320 hc        1 1BG      0.073200
     58 H13        -2.4450   -3.8340    0.6440 hc        1 1BG      0.042200
     59 H14        -4.0890   -3.4080    0.0060 hc        1 1BG      0.042200
     60 H23        -6.9610   -2.3570    3.0030 h1        1 1BG      0.069700
     61 H24        -6.1530   -1.4290    1.6500 h1        1 1BG      0.069700
     62 H25        -7.3490    0.6050    2.1340 h1        1 1BG      0.054700
     63 H26        -9.1430   -1.8870    1.9480 hc        1 1BG      0.072200
     64 H27        -8.9330   -0.5000    0.8020 hc        1 1BG      0.072200
     65 H28       -10.5360    0.7920    1.9440 hc        1 1BG      0.084700
     66 H29       -10.9850   -0.7230    2.8200 hc        1 1BG      0.084700
     67 H30        -9.5200    1.6760    3.8400 h1        1 1BG      0.064200
     68 H31       -10.1370    0.2460    4.7850 h1        1 1BG      0.064200
     69 H33        -6.7380    1.5420    4.2330 h1        1 1BG      0.080200
     70 H34        -7.5260    0.9730    5.7530 h1        1 1BG      0.080200
     71 H35        -5.1250    0.1450    5.4240 h1        1 1BG      0.149700
     72 H36        -7.9360   -0.6970    6.7950 hn        1 1BG      0.472300
     73 H37        -6.9040   -3.2790    7.6520 hx        1 1BG      0.125700
     74 H38        -8.9130   -4.2090    6.7420 hc        1 1BG      0.063700
     75 H39        -9.9440   -2.7850    7.2060 hc        1 1BG      0.063700
     76 H40        -8.5760   -4.7230    9.1940 hc        1 1BG      0.080700
     77 H41       -10.3160   -4.7500    8.6950 hc        1 1BG      0.080700
     78 H42       -10.7190   -2.5190    9.6290 hc        1 1BG      0.086700
     79 H43        -9.8920   -3.5260   10.8810 hc        1 1BG      0.086700
     80 H44        -9.3030   -1.4140   11.9750 ha        1 1BG      0.171000
     81 H45        -7.4860    0.2740   12.2550 ha        1 1BG      0.172000
     82 H46        -5.7900    0.5910   10.4480 ha        1 1BG      0.156000
     83 H47        -5.9280   -0.7500    8.3660 ha        1 1BG      0.100000
     84 H221       -0.1020    2.1160    0.6850 hn        1 1BG      0.479800
     85 H82        -1.7970   -1.2040    2.9420 hn        1 1BG      0.499300
     86 H322       -8.3470   -1.9300    5.7520 hn        1 1BG      0.472300
@<TRIPOS>BOND
     1    1    2 1   
     2    1    3 1   
     3    1   39 1   
     4    1   84 1   
     5    2   40 1   
     6    2   41 1   
     7    2   42 1   
     8    3    4 1   
     9    3    5 1   
    10    3   43 1   
    11    4   44 1   
    12    4   45 1   
    13    4   46 1   
    14    5    6 2   
    15    5    7 1   
    16    7    8 1   
    17    7   47 1   
    18    7   85 1   
    19    8    9 1   
    20    8   11 1   
    21    8   48 1   
    22    9   10 2   
    23    9   17 1   
    24   11   12 1   
    25   11   16 1   
    26   11   49 1   
    27   12   13 1   
    28   12   50 1   
    29   12   51 1   
    30   13   14 1   
    31   13   52 1   
    32   13   53 1   
    33   14   15 1   
    34   14   54 1   
    35   14   55 1   
    36   15   16 1   
    37   15   56 1   
    38   15   57 1   
    39   16   58 1   
    40   16   59 1   
    41   17   18 1   
    42   17   25 1   
    43   18   19 1   
    44   18   60 1   
    45   18   61 1   
    46   19   20 1   
    47   19   23 1   
    48   19   62 1   
    49   20   21 1   
    50   20   63 1   
    51   20   64 1   
    52   21   22 1   
    53   21   65 1   
    54   21   66 1   
    55   22   23 1   
    56   22   67 1   
    57   22   68 1   
    58   23   24 1   
    59   24   25 1   
    60   24   69 1   
    61   24   70 1   
    62   25   26 1   
    63   25   71 1   
    64   26   27 2   
    65   26   28 1   
    66   28   29 1   
    67   28   72 1   
    68   28   86 1   
    69   29   30 1   
    70   29   38 1   
    71   29   73 1   
    72   30   31 1   
    73   30   74 1   
    74   30   75 1   
    75   31   32 1   
    76   31   76 1   
    77   31   77 1   
    78   32   33 1   
    79   32   78 1   
    80   32   79 1   
    81   33   34 ar  
    82   33   38 ar  
    83   34   35 ar  
    84   34   80 1   
    85   35   36 ar  
    86   35   81 1   
    87   36   37 ar  
    88   36   82 1   
    89   37   38 ar  
    90   37   83 1   
@<TRIPOS>SUBSTRUCTURE
     1 1BG         1 TEMP              0 ****  ****    0 ROOT
