@<TRIPOS>MOLECULE
1BG
   83    83     1     0     0
SMALL
bcc


@<TRIPOS>ATOM
      1 N2          2.9410   -2.5790   -0.5740 n3        1 1BG     -0.322000
      2 C1          4.1300   -2.8070    0.2100 c3        1 1BG     -0.115000
      3 C3          3.1810   -1.5030   -1.5090 c3        1 1BG     -0.033000
      4 C5          3.7380   -2.0620   -2.7870 c3        1 1BG     -0.245000
      5 C6          1.8730   -0.7780   -1.7980 c1        1 1BG      0.302000
      6 O7          1.1130   -1.2090   -2.6450 o         1 1BG     -0.377000
      7 N8          1.5500    0.4280   -1.0880 n2        1 1BG     -0.372000
      8 C9          0.3020    1.0800   -1.3170 c3        1 1BG      0.035000
      9 C17        -0.5570    0.2290   -2.2230 c1        1 1BG      0.299000
     10 O18        -0.3770    0.2630   -3.4500 o         1 1BG     -0.332000
     11 C11         0.5500    2.4500   -1.9750 c3        1 1BG     -0.097000
     12 C16        -0.7800    3.2180   -2.0310 c3        1 1BG     -0.160000
     13 C15        -0.6730    4.4940   -2.8130 c3        1 1BG     -0.151500
     14 C14        -0.0680    4.2830   -4.1850 c3        1 1BG     -0.156000
     15 C13         1.2550    3.5270   -4.1310 c3        1 1BG     -0.151500
     16 C12         1.1500    2.2370   -3.3390 c3        1 1BG     -0.160000
     17 N19        -1.8100   -0.4150   -1.6680 n2        1 1BG     -0.302000
     18 C20        -2.8250   -1.0000   -2.5300 c3        1 1BG     -0.053000
     19 C21        -3.1620   -2.4870   -2.2140 c3        1 1BG     -0.067000
     20 C23        -2.1410   -3.2590   -2.4100 c3        1 1BG     -0.187000
     21 C24        -2.1750   -4.2810   -1.2240 c3        1 1BG     -0.185000
     22 C25        -3.2220   -3.7050   -0.2050 c3        1 1BG     -0.091000
     23 N26        -3.4540   -2.4850   -0.6120 n3        1 1BG     -0.220000
     24 C27        -2.4120   -1.8650    0.1900 c3        1 1BG     -0.098000
     25 C28        -2.0850   -0.4870   -0.2100 c3        1 1BG     -0.007000
     26 C30        -0.8870    0.1200    0.6620 c2        1 1BG      0.307000
     27 O31         0.2030    0.2710    0.1670 o         1 1BG     -0.382000
     28 N32        -1.0900    0.3930    2.1260 n         1 1BG     -0.375000
     29 C33         0.0840    0.8630    2.9830 c3        1 1BG      0.068000
     30 C34         1.0280   -0.1360    2.9980 c3        1 1BG     -0.175000
     31 C35         1.9920   -0.1310    4.1210 c3        1 1BG     -0.153000
     32 C36         1.4480   -0.0850    5.4310 c3        1 1BG     -0.126000
     33 C37         0.1390    0.7800    5.6200 c2        1 1BG     -0.051000
     34 C38        -0.3420    1.1140    6.8640 c2        1 1BG     -0.133000
     35 C39        -1.4390    1.9710    6.9820 c1        1 1BG     -0.120000
     36 C40        -2.0610    2.5010    5.8130 c1        1 1BG     -0.128500
     37 C41        -1.5730    2.1630    4.5390 c1        1 1BG     -0.128500
     38 C42        -0.5000    1.3250    4.4190 c1        1 1BG     -0.088000
     39 H4          2.7310   -3.3370   -1.0320 hn        1 1BG      0.183000
     40 H1          4.7260   -3.4540   -0.2690 h1        1 1BG      0.070667
     41 H2          4.6070   -1.9540    0.3370 h1        1 1BG      0.070667
     42 H3          3.8790   -3.1780    1.0900 h1        1 1BG      0.070667
     43 H6          3.8270   -0.8710   -1.1190 h1        1 1BG      0.118000
     44 H7          3.3020   -2.9190   -2.9850 hc        1 1BG      0.089000
     45 H8          3.5710   -1.4360   -3.5160 hc        1 1BG      0.089000
     46 H9          4.6850   -2.1980   -2.6910 hc        1 1BG      0.089000
     47 H10         2.1220    0.7500   -0.4510 hn        1 1BG      0.257000
     48 H11        -0.1460    1.2070   -0.4860 h1        1 1BG      0.104000
     49 H12         1.1960    2.9610   -1.4150 hc        1 1BG      0.085000
     50 H21        -1.4500    2.6550   -2.4420 hc        1 1BG      0.095000
     51 H22        -1.0620    3.4320   -1.1130 hc        1 1BG      0.095000
     52 H19        -0.1190    5.1220   -2.3150 hc        1 1BG      0.075500
     53 H20        -1.5710    4.8760   -2.9190 hc        1 1BG      0.075500
     54 H17        -0.7120    3.7660   -4.7460 hc        1 1BG      0.080000
     55 H18         0.0850    5.1670   -4.6070 hc        1 1BG      0.080000
     56 H15         1.5290    3.3190   -5.0260 hc        1 1BG      0.075500
     57 H16         1.9300    4.0990   -3.7180 hc        1 1BG      0.075500
     58 H13         0.5830    1.6010   -3.8410 hc        1 1BG      0.095000
     59 H14         2.0390    1.8570   -3.2380 hc        1 1BG      0.095000
     60 H23        -2.5070   -0.9420   -3.4770 h1        1 1BG      0.114000
     61 H24        -3.6490   -0.4710   -2.4450 h1        1 1BG      0.114000
     62 H25        -3.9400   -2.7880   -2.7160 h1        1 1BG      0.104000
     63 H26        -2.2280   -3.7200   -3.2480 hc        1 1BG      0.106500
     64 H27        -1.3040   -2.7350   -2.3900 hc        1 1BG      0.106500
     65 H28        -2.4650   -5.1770   -1.5480 hc        1 1BG      0.093000
     66 H29        -1.3110   -4.3410   -0.8130 hc        1 1BG      0.093000
     67 H30        -4.0540   -4.2400   -0.2310 h1        1 1BG      0.089500
     68 H31        -2.8410   -3.6970    0.7220 h1        1 1BG      0.089500
     69 H33        -2.7020   -1.8570    1.1220 h1        1 1BG      0.095000
     70 H34        -1.5860   -2.4200    0.1200 h1        1 1BG      0.095000
     71 H35        -2.8130    0.1190    0.0280 h1        1 1BG      0.120000
     72 H36        -1.8920    0.2040    2.5170 hn        1 1BG      0.237000
     73 H37         0.4830    1.6530    2.5490 h1        1 1BG      0.121000
     74 H38         0.5480   -1.0140    3.0110 hc        1 1BG      0.094000
     75 H39         1.5350   -0.0800    2.1690 hc        1 1BG      0.094000
     76 H40         2.5190   -0.9490    4.0550 hc        1 1BG      0.088500
     77 H41         2.5630    0.6560    4.0150 hc        1 1BG      0.088500
     78 H42         1.2340   -0.9930    5.6870 hc        1 1BG      0.093000
     79 H43         2.1470    0.2960    6.0320 hc        1 1BG      0.093000
     80 H44         0.0840    0.7510    7.6670 ha        1 1BG      0.133000
     81 H45        -1.7860    2.2120    7.8800 ha        1 1BG      0.134000
     82 H46        -2.8220    3.0960    5.8960 ha        1 1BG      0.134000
     83 H47        -2.0130    2.5390    3.7140 ha        1 1BG      0.134000
@<TRIPOS>BOND
     1    1    2 1   
     2    1    3 1   
     3    1   39 1   
     4    2   40 1   
     5    2   41 1   
     6    2   42 1   
     7    3    4 1   
     8    3    5 1   
     9    3   43 1   
    10    4   44 1   
    11    4   45 1   
    12    4   46 1   
    13    5    6 1   
    14    7    8 1   
    15    7   47 1   
    16    8    9 1   
    17    8   11 1   
    18    8   48 1   
    19    9   10 1   
    20   11   12 1   
    21   11   16 1   
    22   11   49 1   
    23   12   13 1   
    24   12   50 1   
    25   12   51 1   
    26   13   14 1   
    27   13   52 1   
    28   13   53 1   
    29   14   15 1   
    30   14   54 1   
    31   14   55 1   
    32   15   16 1   
    33   15   56 1   
    34   15   57 1   
    35   16   58 1   
    36   16   59 1   
    37   17   18 1   
    38   17   25 1   
    39   18   19 1   
    40   18   60 1   
    41   18   61 1   
    42   19   20 1   
    43   19   23 1   
    44   19   62 1   
    45   20   21 1   
    46   20   63 1   
    47   20   64 1   
    48   21   22 1   
    49   21   65 1   
    50   21   66 1   
    51   22   23 1   
    52   22   67 1   
    53   22   68 1   
    54   23   24 1   
    55   24   25 1   
    56   24   69 1   
    57   24   70 1   
    58   25   26 1   
    59   25   71 1   
    60   26   27 1   
    61   26   28 1   
    62   28   29 1   
    63   28   72 1   
    64   29   30 1   
    65   29   38 1   
    66   29   73 1   
    67   30   31 1   
    68   30   74 1   
    69   30   75 1   
    70   31   32 1   
    71   31   76 1   
    72   31   77 1   
    73   32   33 1   
    74   32   78 1   
    75   32   79 1   
    76   33   34 1   
    77   33   38 1   
    78   34   35 1   
    79   34   80 1   
    80   35   81 1   
    81   36   37 1   
    82   36   82 1   
    83   37   83 1   
@<TRIPOS>SUBSTRUCTURE
     1 1BG         1 TEMP              0 ****  ****    0 ROOT
