@<TRIPOS>MOLECULE
1BG
   86    90     1     0     0
SMALL
bcc


@<TRIPOS>ATOM
      1 N2         -0.0400    1.2430    0.1180 n4        1 1BG     -0.761000
      2 C1          1.2850    1.1900   -0.5590 c3        1 1BG      0.074100
      3 C3         -0.2720    0.0470    1.0070 c3        1 1BG      0.062500
      4 C5          0.3170    0.2520    2.4000 c3        1 1BG     -0.161100
      5 C6         -1.7780   -0.2710    1.1070 c         1 1BG      0.514100
      6 O7         -2.6500    0.3450    0.5110 o         1 1BG     -0.390100
      7 N8         -2.1470   -1.4160    1.9830 n4        1 1BG     -0.664800
      8 C9         -3.6380   -1.7020    2.1020 c3        1 1BG      0.067500
      9 C17        -4.1850   -1.0000    3.3770 c         1 1BG      0.661100
     10 O18        -3.3480   -0.5090    4.1690 o         1 1BG     -0.617100
     11 C11        -3.8890   -3.2220    2.1730 c3        1 1BG     -0.100700
     12 C16        -3.1860   -3.8890    3.3470 c3        1 1BG     -0.086900
     13 C15        -3.5720   -5.3570    3.4160 c3        1 1BG     -0.079900
     14 C14        -3.2750   -6.0710    2.1140 c3        1 1BG     -0.092400
     15 C13        -3.9300   -5.3820    0.9360 c3        1 1BG     -0.079900
     16 C12        -3.5400   -3.9150    0.8630 c3        1 1BG     -0.086900
     17 N19        -5.5350   -0.9320    3.6200 n         1 1BG     -0.433800
     18 C20        -6.5720   -1.3490    2.6810 c3        1 1BG      0.084000
     19 C21        -7.7340   -0.3350    2.6280 c3        1 1BG      0.148500
     20 C23        -8.9930   -0.7840    1.8670 c3        1 1BG     -0.074400
     21 C24       -10.1310   -0.0320    2.5680 c3        1 1BG     -0.087400
     22 C25        -9.5340    0.5560    3.8670 c3        1 1BG      0.167800
     23 N26        -8.1990   -0.0260    3.9950 n3        1 1BG     -0.794600
     24 C27        -7.1540    0.6280    4.7370 c3        1 1BG      0.155800
     25 C28        -5.9850   -0.3940    4.9050 c3        1 1BG      0.038700
     26 C30        -6.3310   -1.5810    5.8390 c         1 1BG      0.518100
     27 O31        -5.5380   -2.4860    6.0640 o         1 1BG     -0.420100
     28 N32        -7.6790   -1.6350    6.4680 n4        1 1BG     -0.666800
     29 C33        -7.8110   -2.5740    7.6770 c3        1 1BG      0.204800
     30 C34        -9.0850   -3.4130    7.5200 c3        1 1BG     -0.101400
     31 C35        -9.4410   -4.0610    8.8410 c3        1 1BG     -0.074400
     32 C36        -9.7660   -3.0030    9.8720 c3        1 1BG     -0.060100
     33 C37        -8.6930   -1.9790    9.9720 ca        1 1BG     -0.014300
     34 C38        -8.5930   -1.2180   11.1490 ca        1 1BG     -0.113000
     35 C39        -7.5780   -0.2820   11.3070 ca        1 1BG     -0.070000
     36 C40        -6.6280   -0.1040   10.2940 ca        1 1BG     -0.115000
     37 C41        -6.7180   -0.8490    9.1260 ca        1 1BG     -0.146000
     38 C42        -7.7630   -1.7710    8.9420 ca        1 1BG     -0.182300
     39 H4         -0.7830    1.2970   -0.5980 hn        1 1BG      0.479800
     40 H1          1.3250    0.3120   -1.2600 hx        1 1BG      0.133033
     41 H2          2.1060    1.1080    0.2060 hx        1 1BG      0.133033
     42 H3          1.4200    2.1430   -1.1490 hx        1 1BG      0.133033
     43 H6          0.2350   -0.8400    0.5040 hx        1 1BG      0.155700
     44 H7          0.4070   -0.7340    2.9250 hc        1 1BG      0.111033
     45 H8          1.3570    0.6720    2.3420 hc        1 1BG      0.111033
     46 H9         -0.3050    0.9470    3.0180 hc        1 1BG      0.111033
     47 H10        -1.7920   -1.2190    2.9470 hn        1 1BG      0.499300
     48 H11        -4.1370   -1.2770    1.1790 hx        1 1BG      0.141700
     49 H12        -5.0040   -3.3380    2.3260 hc        1 1BG      0.109700
     50 H21        -2.0720   -3.8190    3.2350 hc        1 1BG      0.042200
     51 H22        -3.4710   -3.3770    4.3040 hc        1 1BG      0.042200
     52 H19        -4.6640   -5.4460    3.6570 hc        1 1BG      0.073200
     53 H20        -3.0040   -5.8450    4.2520 hc        1 1BG      0.073200
     54 H17        -2.1660   -6.1220    1.9550 hc        1 1BG      0.073200
     55 H18        -3.6480   -7.1280    2.1780 hc        1 1BG      0.073200
     56 H15        -3.6230   -5.8900   -0.0180 hc        1 1BG      0.073200
     57 H16        -5.0460   -5.4690    1.0150 hc        1 1BG      0.073200
     58 H13        -4.0810   -3.4250    0.0110 hc        1 1BG      0.042200
     59 H14        -2.4390   -3.8530    0.6550 hc        1 1BG      0.042200
     60 H23        -6.1460   -1.4380    1.6450 h1        1 1BG      0.069700
     61 H24        -6.9580   -2.3610    2.9990 h1        1 1BG      0.069700
     62 H25        -7.3390    0.6000    2.1210 h1        1 1BG      0.054700
     63 H26        -8.9220   -0.5050    0.7880 hc        1 1BG      0.072200
     64 H27        -9.1370   -1.8890    1.9370 hc        1 1BG      0.072200
     65 H28       -10.5250    0.7910    1.9230 hc        1 1BG      0.084700
     66 H29       -10.9790   -0.7210    2.8020 hc        1 1BG      0.084700
     67 H30        -9.5120    1.6790    3.8190 h1        1 1BG      0.064200
     68 H31       -10.1340    0.2530    4.7660 h1        1 1BG      0.064200
     69 H33        -6.7310    1.5410    4.2190 h1        1 1BG      0.080200
     70 H34        -7.5240    0.9780    5.7390 h1        1 1BG      0.080200
     71 H35        -5.1240    0.1450    5.4170 h1        1 1BG      0.149700
     72 H36        -7.9430   -0.6900    6.7800 hn        1 1BG      0.472300
     73 H37        -6.9130   -3.2680    7.6530 hx        1 1BG      0.125700
     74 H38        -8.9190   -4.2030    6.7420 hc        1 1BG      0.063700
     75 H39        -9.9520   -2.7760    7.1930 hc        1 1BG      0.063700
     76 H40       -10.3300   -4.7320    8.6920 hc        1 1BG      0.080700
     77 H41        -8.5920   -4.7020    9.1970 hc        1 1BG      0.080700
     78 H42       -10.7350   -2.4950    9.6120 hc        1 1BG      0.086700
     79 H43        -9.9140   -3.4960   10.8730 hc        1 1BG      0.086700
     80 H44        -9.3260   -1.3790   11.9570 ha        1 1BG      0.171000
     81 H45        -7.5090    0.3090   12.2360 ha        1 1BG      0.172000
     82 H46        -5.8060    0.6150   10.4330 ha        1 1BG      0.156000
     83 H47        -5.9380   -0.7360    8.3580 ha        1 1BG      0.100000
     84 H221       -0.0900    2.0990    0.6920 hn        1 1BG      0.479800
     85 H82        -1.6890   -2.2750    1.6330 hn        1 1BG      0.499300
     86 H322       -8.3490   -1.9280    5.7410 hn        1 1BG      0.472300
@<TRIPOS>BOND
     1    1    2 1   
     2    1    3 1   
     3    1   39 1   
     4    1   84 1   
     5    2   40 1   
     6    2   41 1   
     7    2   42 1   
     8    3    4 1   
     9    3    5 1   
    10    3   43 1   
    11    4   44 1   
    12    4   45 1   
    13    4   46 1   
    14    5    6 2   
    15    5    7 1   
    16    7    8 1   
    17    7   47 1   
    18    7   85 1   
    19    8    9 1   
    20    8   11 1   
    21    8   48 1   
    22    9   10 2   
    23    9   17 1   
    24   11   12 1   
    25   11   16 1   
    26   11   49 1   
    27   12   13 1   
    28   12   50 1   
    29   12   51 1   
    30   13   14 1   
    31   13   52 1   
    32   13   53 1   
    33   14   15 1   
    34   14   54 1   
    35   14   55 1   
    36   15   16 1   
    37   15   56 1   
    38   15   57 1   
    39   16   58 1   
    40   16   59 1   
    41   17   18 1   
    42   17   25 1   
    43   18   19 1   
    44   18   60 1   
    45   18   61 1   
    46   19   20 1   
    47   19   23 1   
    48   19   62 1   
    49   20   21 1   
    50   20   63 1   
    51   20   64 1   
    52   21   22 1   
    53   21   65 1   
    54   21   66 1   
    55   22   23 1   
    56   22   67 1   
    57   22   68 1   
    58   23   24 1   
    59   24   25 1   
    60   24   69 1   
    61   24   70 1   
    62   25   26 1   
    63   25   71 1   
    64   26   27 2   
    65   26   28 1   
    66   28   29 1   
    67   28   72 1   
    68   28   86 1   
    69   29   30 1   
    70   29   38 1   
    71   29   73 1   
    72   30   31 1   
    73   30   74 1   
    74   30   75 1   
    75   31   32 1   
    76   31   76 1   
    77   31   77 1   
    78   32   33 1   
    79   32   78 1   
    80   32   79 1   
    81   33   34 ar  
    82   33   38 ar  
    83   34   35 ar  
    84   34   80 1   
    85   35   36 ar  
    86   35   81 1   
    87   36   37 ar  
    88   36   82 1   
    89   37   38 ar  
    90   37   83 1   
@<TRIPOS>SUBSTRUCTURE
     1 1BG         1 TEMP              0 ****  ****    0 ROOT
