@<TRIPOS>MOLECULE
1BH
   67    69     1     0     0
SMALL
bcc


@<TRIPOS>ATOM
      1 C1         -1.1820    0.1680   -5.2700 c3        1 1BH      0.197700
      2 C3         -0.2250   -0.4290   -3.1800 c         1 1BH      0.734100
      3 O4         -2.1320   -0.0670    3.9480 o         1 1BH     -0.624100
      4 O5          0.9130    2.0300    6.5720 oh        1 1BH     -0.599800
      5 C7         -1.3830    0.2960    3.0180 c         1 1BH      0.659100
      6 C8          0.4830    0.7380    4.5670 c3        1 1BH      0.076700
      7 C9          0.4720    2.1500    5.2280 c3        1 1BH      0.122100
      8 C21        -0.9790    1.1670   -6.3590 ca        1 1BH     -0.099300
      9 C22        -1.1600    0.7680   -7.6880 ca        1 1BH     -0.110500
     10 C24        -0.6900    3.0190   -8.4310 ca        1 1BH     -0.122000
     11 N1          0.8180   -0.2190   -2.2960 n         1 1BH     -0.519900
     12 C4          0.7960   -0.8700   -1.0060 c3        1 1BH      0.050700
     13 C41         2.2040   -1.1070   -0.4580 c3        1 1BH     -0.108100
     14 C5          0.0460   -0.0020    0.0400 c         1 1BH      0.626100
     15 O3          0.5080    1.1210    0.3440 o         1 1BH     -0.634100
     16 N2         -1.0780   -0.4960    0.6600 n         1 1BH     -0.445800
     17 CD         -1.8480   -1.6230    0.1510 c3        1 1BH      0.071000
     18 C6         -1.8820    0.3340    1.5530 c3        1 1BH      0.030700
     19 C61        -3.3370   -0.1740    1.4550 c3        1 1BH     -0.087400
     20 CG         -3.2900   -1.4740    0.6610 c3        1 1BH     -0.088400
     21 C81         1.9370    0.2320    4.5760 c3        1 1BH     -0.054100
     22 C82         2.0560   -1.2070    4.2220 ca        1 1BH     -0.071300
     23 C83         2.7730   -1.5990    3.0860 ca        1 1BH     -0.127000
     24 C87         1.4780   -2.1890    5.0370 ca        1 1BH     -0.127000
     25 C84         2.9060   -2.9500    2.7680 ca        1 1BH     -0.130500
     26 C86         1.6110   -3.5380    4.7160 ca        1 1BH     -0.130500
     27 C85         2.3250   -3.9220    3.5810 ca        1 1BH     -0.132000
     28 CC         -0.8940    2.8020    5.1630 c3        1 1BH     -0.133100
     29 O1         -0.2200    0.4590   -4.2330 os        1 1BH     -0.433900
     30 C26        -0.6480    2.4940   -6.0720 ca        1 1BH     -0.110500
     31 C23        -1.0200    1.6950   -8.7190 ca        1 1BH     -0.131500
     32 C25        -0.5010    3.4170   -7.1070 ca        1 1BH     -0.131500
     33 O2         -1.0900   -1.3220   -3.1430 o         1 1BH     -0.598000
     34 H11        -1.0200   -0.8830   -5.6270 h1        1 1BH      0.065200
     35 H12        -2.2110    0.2550   -4.8280 h1        1 1BH      0.065200
     36 H8         -0.1370    0.0550    5.2250 h1        1 1BH      0.081700
     37 H9          1.2510    2.8050    4.7470 h1        1 1BH      0.074700
     38 H22        -1.4140   -0.2780   -7.9200 ha        1 1BH      0.138500
     39 H24        -0.5770    3.7480   -9.2460 ha        1 1BH      0.133000
     40 HN1         1.3120    0.6440   -2.3580 hn        1 1BH      0.334500
     41 H4          0.2880   -1.8730   -1.1380 h1        1 1BH      0.099700
     42 H411        2.7270   -0.1370   -0.2730 hc        1 1BH      0.060033
     43 H412        2.1240   -1.6590    0.5120 hc        1 1BH      0.060033
     44 H413        2.8040   -1.7160   -1.1750 hc        1 1BH      0.060033
     45 HD1        -1.3900   -2.5760    0.5320 h1        1 1BH      0.066200
     46 HD2        -1.8310   -1.6420   -0.9760 h1        1 1BH      0.066200
     47 H6         -1.8210    1.4130    1.2200 h1        1 1BH      0.083700
     48 H611       -3.7710   -0.3380    2.4740 hc        1 1BH      0.074700
     49 H612       -3.9590    0.5910    0.9300 hc        1 1BH      0.074700
     50 HG1        -3.5600   -2.3440    1.3080 hc        1 1BH      0.059200
     51 HG2        -4.0040   -1.4470   -0.1980 hc        1 1BH      0.059200
     52 H811        2.5600    0.8570    3.8830 hc        1 1BH      0.066200
     53 H812        2.3340    0.3920    5.6170 hc        1 1BH      0.066200
     54 H83         3.2360   -0.8370    2.4410 ha        1 1BH      0.131500
     55 H87         0.9150   -1.8910    5.9340 ha        1 1BH      0.131500
     56 H84         3.4750   -3.2490    1.8750 ha        1 1BH      0.129500
     57 H86         1.1510   -4.3020    5.3610 ha        1 1BH      0.129500
     58 H85         2.4310   -4.9870    3.3300 ha        1 1BH      0.130000
     59 HC1        -0.9560    3.6230    5.9180 hc        1 1BH      0.050700
     60 HC2        -1.0670    3.2360    4.1500 hc        1 1BH      0.050700
     61 HC3        -1.6980    2.0550    5.3710 hc        1 1BH      0.050700
     62 H26        -0.4950    2.8020   -5.0260 ha        1 1BH      0.138500
     63 H23        -1.1670    1.3790   -9.7630 ha        1 1BH      0.134000
     64 H25        -0.2370    4.4600   -6.8770 ha        1 1BH      0.134000
     65 N3         -0.1010    0.7300    3.2480 n         1 1BH     -0.554900
     66 HO5         0.2240    1.5630    7.0610 ho        1 1BH      0.401000
     67 HN3         0.4640    1.0440    2.4910 hn        1 1BH      0.337500
@<TRIPOS>BOND
     1    1    8 1   
     2    1   29 1   
     3    1   34 1   
     4    1   35 1   
     5    2   11 1   
     6    2   29 1   
     7    2   33 2   
     8    3    5 2   
     9    4    7 1   
    10    4   66 1   
    11    5   18 1   
    12    5   65 1   
    13    6    7 1   
    14    6   21 1   
    15    6   36 1   
    16    6   65 1   
    17    7   28 1   
    18    7   37 1   
    19    8    9 ar  
    20    8   30 ar  
    21    9   31 ar  
    22    9   38 1   
    23   10   31 ar  
    24   10   32 ar  
    25   10   39 1   
    26   11   12 1   
    27   11   40 1   
    28   12   13 1   
    29   12   14 1   
    30   12   41 1   
    31   13   42 1   
    32   13   43 1   
    33   13   44 1   
    34   14   15 2   
    35   14   16 1   
    36   16   17 1   
    37   16   18 1   
    38   17   20 1   
    39   17   45 1   
    40   17   46 1   
    41   18   19 1   
    42   18   47 1   
    43   19   20 1   
    44   19   48 1   
    45   19   49 1   
    46   20   50 1   
    47   20   51 1   
    48   21   22 1   
    49   21   52 1   
    50   21   53 1   
    51   22   23 ar  
    52   22   24 ar  
    53   23   25 ar  
    54   23   54 1   
    55   24   26 ar  
    56   24   55 1   
    57   25   27 ar  
    58   25   56 1   
    59   26   27 ar  
    60   26   57 1   
    61   27   58 1   
    62   28   59 1   
    63   28   60 1   
    64   28   61 1   
    65   30   32 ar  
    66   30   62 1   
    67   31   63 1   
    68   32   64 1   
    69   65   67 1   
@<TRIPOS>SUBSTRUCTURE
     1 1BH         1 TEMP              0 ****  ****    0 ROOT
