@<TRIPOS>MOLECULE
1BH
   67    63     1     0     0
SMALL
bcc


@<TRIPOS>ATOM
      1 C1          1.2880   -3.7830    3.8770 c3        1 1BH      0.038000
      2 C3          1.1130   -3.1090    1.5810 c1        1 1BH      0.389000
      3 O4         -0.5100   -0.2290   -0.6190 o         1 1BH     -0.388000
      4 O5         -1.8970    3.3580   -1.1340 oh        1 1BH     -0.341000
      5 C7         -0.9680   -0.1830   -1.7380 c1        1 1BH      0.281000
      6 C8         -0.0780    2.1570   -2.0170 c3        1 1BH      0.034000
      7 C9         -0.8280    2.5670   -0.7810 c3        1 1BH      0.017000
      8 C21         0.9470   -3.0550    5.1550 c2        1 1BH     -0.086000
      9 C22        -0.0740   -2.1630    5.1720 c2        1 1BH     -0.103000
     10 C24         0.3210   -1.7470    7.5080 c1        1 1BH     -0.131000
     11 N1          1.2850   -2.1760    0.5160 n2        1 1BH     -0.310000
     12 C4          0.5610   -2.3310   -0.6920 c3        1 1BH      0.035000
     13 C41         1.1950   -3.4630   -1.5330 c3        1 1BH     -0.220000
     14 C5         -0.8890   -2.6780   -0.3800 c2        1 1BH      0.278000
     15 O3         -1.1390   -3.5590    0.4290 o         1 1BH     -0.343000
     16 N2         -1.9950   -2.1300   -1.2560 n         1 1BH     -0.318000
     17 CD         -3.4990   -2.5740   -1.2570 c3        1 1BH     -0.029000
     18 C6         -1.8910   -1.1820   -2.1740 c2        1 1BH      0.017000
     19 C61        -3.4410   -0.5360   -2.2110 c3        1 1BH     -0.163000
     20 CG         -4.2600   -1.5190   -2.0630 c3        1 1BH     -0.169000
     21 N3         -0.6970    0.9650   -2.5840 n3        1 1BH     -0.372000
     22 C81        -0.1150    3.2790   -3.0240 c3        1 1BH     -0.137000
     23 C82         1.2640    4.0060   -3.0370 c2        1 1BH     -0.083000
     24 C83         2.1770    3.7460   -4.0660 c2        1 1BH     -0.126000
     25 C87         1.5020    5.0330   -2.1550 c1        1 1BH     -0.133000
     26 C84         3.3140    4.5210   -4.1930 c1        1 1BH     -0.123000
     27 C86         2.6580    5.8190   -2.2860 c1        1 1BH     -0.131000
     28 C85         3.5530    5.5600   -3.3000 c1        1 1BH     -0.131000
     29 CC          0.1030    3.3530    0.1430 c3        1 1BH     -0.252000
     30 O1          1.6450   -2.8230    2.8610 os        1 1BH     -0.285000
     31 C26         1.6780   -3.3080    6.3290 c1        1 1BH     -0.122000
     32 C23        -0.3980   -1.4980    6.3530 c1        1 1BH     -0.134000
     33 C25         1.3580   -2.6520    7.4920 c1        1 1BH     -0.131000
     34 O2          0.5280   -4.1380    1.3900 o         1 1BH     -0.388000
     35 H11         2.0340   -4.3780    4.0330 h1        1 1BH      0.103500
     36 H12         0.5090   -4.3040    3.5800 h1        1 1BH      0.103500
     37 HO5        -2.4440    3.4730   -0.4070 ho        1 1BH      0.207000
     38 H8          0.8540    1.9600   -1.7810 h1        1 1BH      0.135000
     39 H9         -1.1570    1.7590   -0.3120 h1        1 1BH      0.079000
     40 H22        -0.5990   -1.9810    4.3290 ha        1 1BH      0.148000
     41 H24         0.0910   -1.2770    8.3430 ha        1 1BH      0.130500
     42 HN1         1.8530   -1.4470    0.6260 hn        1 1BH      0.250000
     43 H4          0.5930   -1.5020   -1.1930 h1        1 1BH      0.101000
     44 H411        1.0820   -4.3260   -1.0640 hc        1 1BH      0.102667
     45 H412        0.7490   -3.5070   -2.4170 hc        1 1BH      0.102667
     46 H413        2.1520   -3.2820   -1.6590 hc        1 1BH      0.102667
     47 HD1        -3.5920   -3.4650   -1.6890 h1        1 1BH      0.102000
     48 HD2        -3.8400   -2.6060   -0.3440 h1        1 1BH      0.102000
     49 H6         -1.4830   -1.4430   -3.0580 h4        1 1BH      0.110000
     50 H611       -3.5530    0.1040   -1.4780 hc        1 1BH      0.098500
     51 H612       -3.6030   -0.0890   -3.0790 hc        1 1BH      0.098500
     52 HG1        -5.0690   -1.2190   -1.5620 hc        1 1BH      0.097000
     53 HG2        -4.5170   -1.8810   -2.9390 hc        1 1BH      0.097000
     54 HN3        -0.8870    0.9250   -3.5010 hn        1 1BH      0.237000
     55 H811       -0.3020    2.9160   -3.9120 hc        1 1BH      0.102500
     56 H812       -0.8120    3.9130   -2.7790 hc        1 1BH      0.102500
     57 H83         2.0120    3.0130   -4.6960 ha        1 1BH      0.150000
     58 H87         0.8550    5.2180   -1.4250 ha        1 1BH      0.127000
     59 H84         3.9740    4.3320   -4.9370 ha        1 1BH      0.140000
     60 H86         2.8290    6.5550   -1.6540 ha        1 1BH      0.130500
     61 H85         4.3640    6.1110   -3.3930 ha        1 1BH      0.130500
     62 HC1        -0.1490    3.1820    1.0890 hc        1 1BH      0.091000
     63 HC2         0.0240    4.3080   -0.0480 hc        1 1BH      0.091000
     64 HC3         1.0300    3.0650   -0.0060 hc        1 1BH      0.091000
     65 H26         2.4240   -3.9600    6.3170 ha        1 1BH      0.133000
     66 H23        -1.1250   -0.8640    6.3660 ha        1 1BH      0.132000
     67 H25         1.8860   -2.8340    8.3430 ha        1 1BH      0.130500
@<TRIPOS>BOND
     1    1    8 1   
     2    1   30 1   
     3    1   35 1   
     4    1   36 1   
     5    2   30 1   
     6    2   34 1   
     7    3    5 1   
     8    4    7 1   
     9    4   37 1   
    10    5   21 1   
    11    6    7 1   
    12    6   21 1   
    13    6   22 1   
    14    6   38 1   
    15    7   29 1   
    16    7   39 1   
    17    8    9 1   
    18    8   31 1   
    19    9   32 1   
    20    9   40 1   
    21   10   33 1   
    22   10   41 1   
    23   11   12 1   
    24   11   42 1   
    25   12   13 1   
    26   12   14 1   
    27   12   43 1   
    28   13   44 1   
    29   13   45 1   
    30   13   46 1   
    31   14   15 1   
    32   14   16 1   
    33   16   17 1   
    34   16   18 1   
    35   17   20 1   
    36   17   47 1   
    37   17   48 1   
    38   18   19 1   
    39   18   49 1   
    40   19   20 1   
    41   19   50 1   
    42   19   51 1   
    43   20   52 1   
    44   20   53 1   
    45   21   54 1   
    46   22   23 1   
    47   22   55 1   
    48   22   56 1   
    49   23   24 1   
    50   23   25 1   
    51   24   26 1   
    52   24   57 1   
    53   25   58 1   
    54   26   59 1   
    55   27   28 1   
    56   27   60 1   
    57   28   61 1   
    58   29   62 1   
    59   29   63 1   
    60   29   64 1   
    61   31   65 1   
    62   32   66 1   
    63   33   67 1   
@<TRIPOS>SUBSTRUCTURE
     1 1BH         1 TEMP              0 ****  ****    0 ROOT
