@<TRIPOS>MOLECULE
1BH
   69    66     1     0     0
SMALL
bcc


@<TRIPOS>ATOM
      1 C1        135.9540  -79.1850  -19.0410 c3        1 1BH      0.050000
      2 C3        137.6200  -80.6510  -18.0360 c2        1 1BH      0.438000
      3 O4        -85.1670   56.0500   10.4380 o         1 1BH     -0.361000
      4 O5        -91.3080   59.2340   12.5110 oh        1 1BH     -0.172000
      5 C7        -85.5050   56.4370    9.3000 c2        1 1BH      0.300000
      6 C8        -83.2500   56.1630    8.3420 c3        1 1BH     -0.035000
      7 C9        -90.9230   58.1530   11.8740 c1        1 1BH     -0.063000
      8 C21       134.7300  -79.3550  -18.2170 c2        1 1BH     -0.244000
      9 C22       134.5800  -78.4180  -17.0670 c3        1 1BH     -0.218000
     10 C24       131.6110  -81.3620  -18.2030 c1        1 1BH      0.314000
     11 N1        138.6400  -80.8620  -17.2100 n8        1 1BH     -0.271000
     12 C4        -86.5950   57.8820   12.1120 c2        1 1BH     -0.243000
     13 C41       -85.8380   57.8330   13.2160 c2        1 1BH     -0.045000
     14 C5        -87.2240   56.6680   11.5940 c2        1 1BH      0.344000
     15 O3        -87.3750   55.5820   12.1390 o         1 1BH     -0.211000
     16 N2        -87.8930   56.7560   10.2200 nx        1 1BH     -0.041000
     17 CD        -88.7220   57.9750   10.1190 c2        1 1BH     -0.246000
     18 C6        -86.9730   56.7930    9.0080 c3        1 1BH     -0.103000
     19 C61       -87.1420   58.2010    8.3820 c3        1 1BH     -0.163000
     20 CG        -88.3180   58.7750    9.1130 c2        1 1BH     -0.136000
     21 C81       -82.2890   57.3280    8.1240 c3        1 1BH     -0.178000
     22 C82       -82.4320   57.9960    6.7680 c3        1 1BH     -0.053000
     23 C83       137.4700  -82.8890  -18.6070 c1        1 1BH      0.081000
     24 C87       -82.3510   57.0780    5.6710 c1        1 1BH     -0.204000
     25 C84       136.7990  -83.8740  -19.3940 c2        1 1BH     -0.311000
     26 C86       -82.2670   56.3370    4.7350 c1        1 1BH     -0.178000
     27 C85       135.7910  -83.6920  -20.2660 c2        1 1BH     -0.006000
     28 CC        -91.8050   56.9930   12.0820 c3        1 1BH     -0.297000
     29 O1        137.1590  -79.4150  -18.2300 os        1 1BH     -0.189000
     30 C26       133.8080  -80.2750  -18.5670 c2        1 1BH      0.010000
     31 C23       133.7500  -77.2420  -17.2240 c1        1 1BH     -0.022000
     32 C25       132.5580  -80.4900  -17.8940 c2        1 1BH     -0.503000
     33 O2        136.9740  -81.6040  -18.7730 os        1 1BH     -0.204000
     34 H11       135.9860  -79.8410  -19.9460 h1        1 1BH      0.140500
     35 H12       136.1250  -78.1040  -19.3180 h1        1 1BH      0.140500
     36 H8        -83.0450   55.3730    7.5610 h1        1 1BH      0.121500
     37 H9        -83.0580   55.7170    9.3610 h1        1 1BH      0.121500
     38 H22       135.5950  -78.0320  -16.7450 hc        1 1BH      0.158500
     39 H24       133.2690  -77.0740  -18.1990 ha        1 1BH      0.055000
     40 HN1       139.0600  -80.0990  -16.7180 hn        1 1BH      0.307000
     41 H4        138.9940  -81.7980  -17.1030 hn        1 1BH      0.307000
     42 H411      -86.7650   58.8170   11.5540 ha        1 1BH      0.158000
     43 H412      -85.6510   56.8980   13.7690 ha        1 1BH      0.155000
     44 H413      -85.3580   58.7370   13.6230 ha        1 1BH      0.155000
     45 HD1       -89.4410   54.2000   11.8470 ha        1 1BH      0.002000
     46 HD2       -89.6950   54.6860   11.4490 ha        1 1BH      0.002000
     47 H6        -88.5000   55.9260   10.1400 hn        1 1BH      0.257000
     48 H611      -87.3670   56.0120    8.2900 hx        1 1BH      0.156000
     49 H612      -86.2320   58.8360    8.5330 hc        1 1BH      0.139000
     50 HG1       -87.3400   58.1190    7.2840 hc        1 1BH      0.139000
     51 HG2       -88.7630   59.7310    8.8210 ha        1 1BH      0.193000
     52 H811      -82.4270   58.1020    8.9230 hc        1 1BH      0.105500
     53 H812      -81.2500   56.9160    8.2280 hc        1 1BH      0.105500
     54 H83       -81.6140   58.7660    6.6610 hc        1 1BH      0.099000
     55 H87       -83.4080   58.5550    6.7150 hc        1 1BH      0.099000
     56 H84       137.2130  -84.8910  -19.2200 ha        1 1BH      0.195000
     57 H86       135.3470  -84.5280  -20.8320 ha        1 1BH      0.141000
     58 H85       -82.1860   55.6820    3.9030 ha        1 1BH      0.233000
     59 HC1       -91.1750   56.1170   12.3890 hc        1 1BH      0.128000
     60 HC2       -92.2890   56.7470   11.1000 hc        1 1BH      0.128000
     61 HC3       -92.6080   57.1500   12.8450 hc        1 1BH      0.128000
     62 H26       133.9930  -80.9250  -19.4450 ha        1 1BH      0.120000
     63 H23       134.1700  -78.9690  -16.1660 hc        1 1BH      0.158500
     64 H25       132.3390  -79.8420  -17.0110 ha        1 1BH      0.210000
     65 H121      135.3530  -82.7010  -20.4680 ha        1 1BH      0.141000
     66 N3        -84.6490   56.5110    8.2420 ns        1 1BH     -0.341000
     67 HO5       -90.6830   59.9590   12.3190 ho        1 1BH      0.257000
     68 HN3       -84.9630   56.8800    7.3740 hn        1 1BH      0.239000
     69 H32       -89.6110   58.0800   10.8750 hx        1 1BH      0.305000
@<TRIPOS>BOND
     1    1    8 1   
     2    1   29 1   
     3    1   34 1   
     4    1   35 1   
     5    2   11 1   
     6    2   29 1   
     7    2   33 1   
     8    3    5 1   
     9    4    7 1   
    10    4   67 1   
    11    5   18 1   
    12    5   66 1   
    13    6   21 1   
    14    6   36 1   
    15    6   37 1   
    16    6   66 1   
    17    7   28 1   
    18    8    9 1   
    19    8   30 1   
    20    9   31 1   
    21    9   38 1   
    22    9   63 1   
    23   10   32 1   
    24   11   40 1   
    25   11   41 1   
    26   12   13 1   
    27   12   14 1   
    28   12   42 1   
    29   13   43 1   
    30   13   44 1   
    31   14   15 1   
    32   14   16 1   
    33   16   17 1   
    34   16   18 1   
    35   16   47 1   
    36   17   20 1   
    37   17   69 1   
    38   18   19 1   
    39   18   48 1   
    40   19   20 1   
    41   19   49 1   
    42   19   50 1   
    43   20   51 1   
    44   21   22 1   
    45   21   52 1   
    46   21   53 1   
    47   22   24 1   
    48   22   54 1   
    49   22   55 1   
    50   23   25 1   
    51   23   33 1   
    52   24   26 1   
    53   25   27 1   
    54   25   56 1   
    55   26   58 1   
    56   27   57 1   
    57   27   65 1   
    58   28   59 1   
    59   28   60 1   
    60   28   61 1   
    61   30   32 1   
    62   30   62 1   
    63   31   39 1   
    64   32   64 1   
    65   45   46 1   
    66   66   68 1   
@<TRIPOS>SUBSTRUCTURE
     1 1BH         1 TEMP              0 ****  ****    0 ROOT
