@<TRIPOS>MOLECULE
1BH
   69    65     1     0     0
SMALL
bcc


@<TRIPOS>ATOM
      1 C1          0.5630   -0.7410    0.5350 c3        1 1BH      0.057000
      2 C3         -0.5740    1.3510    0.3050 c2        1 1BH      0.338000
      3 O4         -5.1350    8.0630   -1.7480 o         1 1BH     -0.438000
      4 O5         -7.6780   12.4910   -2.2900 os        1 1BH     -0.104000
      5 C7         -4.3810    7.0970   -1.4920 c2        1 1BH      0.302000
      6 C8         -2.5070    8.5520   -0.7940 c3        1 1BH     -0.003000
      7 C9         -7.0310   11.4430   -2.6910 c2        1 1BH      0.278000
      8 C21         1.9790   -1.1750    0.4270 c2        1 1BH     -0.223000
      9 C22         2.8670   -0.7040    1.5240 c3        1 1BH     -0.212000
     10 C24         4.0610   -3.2540   -1.8390 c1        1 1BH      0.326000
     11 N1         -0.4640    2.7630   -0.1600 n4        1 1BH     -0.110000
     12 C4         -4.0910    3.3630    1.2520 c2        1 1BH     -0.249000
     13 C41        -4.9070    3.6690    2.2590 c2        1 1BH     -0.111000
     14 C5         -3.8730    4.2050    0.0520 c2        1 1BH      0.368000
     15 O3         -2.7270    4.2740   -0.4840 o         1 1BH     -0.514000
     16 N2         -4.9280    4.9000   -0.4750 n         1 1BH     -0.333000
     17 CD         -7.8960    3.8670   -2.6290 c2        1 1BH     -0.182000
     18 C6         -4.8520    5.6330   -1.7170 c3        1 1BH      0.010000
     19 C61        -6.1920    5.6650   -2.4680 c3        1 1BH     -0.132000
     20 CG         -6.6540    4.3040   -2.8280 c2        1 1BH     -0.204000
     21 C81        -1.3470    8.8280   -1.6970 c2        1 1BH     -0.208000
     22 C82        -0.1800    9.3370   -1.2780 c2        1 1BH     -0.017000
     23 C83        -8.1420   13.5370   -3.2290 c3        1 1BH      0.104000
     24 C87         0.1430    9.6420    0.0530 c1        1 1BH     -0.182000
     25 C84        -7.9000   13.2370   -4.5990 c1        1 1BH     -0.339000
     26 C86         0.4600    9.9240    1.1750 c1        1 1BH     -0.147000
     27 C85        -7.7610   13.1060   -5.7830 c1        1 1BH     -0.006000
     28 CC         -6.6190   10.4780   -1.6740 c3        1 1BH     -0.294000
     29 O1          0.5590    0.6740    0.0860 os        1 1BH     -0.244000
     30 C26         2.3500   -1.9600   -0.6060 c2        1 1BH      0.031000
     31 C23         2.6850   -1.2470    2.8530 c1        1 1BH     -0.033000
     32 C25         3.6550   -2.5210   -0.8120 c2        1 1BH     -0.505000
     33 O2         -1.6010    0.9280    0.8210 o         1 1BH     -0.248000
     34 H11         0.1890   -0.7570    1.5930 h1        1 1BH      0.122500
     35 H12        -0.1390   -1.2890   -0.1440 h1        1 1BH      0.122500
     36 H8         -2.1760    8.6140    0.2860 h1        1 1BH      0.108000
     37 H9         -3.2880    9.3520   -0.9630 h1        1 1BH      0.108000
     38 H22         2.7860    0.4220    1.6020 hc        1 1BH      0.154500
     39 H24         2.0050   -2.1040    2.9680 ha        1 1BH      0.053000
     40 HN1         0.4870    3.1150   -0.0170 hn        1 1BH      0.285667
     41 H4         -1.1580    3.3470    0.3520 hn        1 1BH      0.285667
     42 H411       -3.4910    2.4350    1.2430 ha        1 1BH      0.163000
     43 H412       -5.5100    4.5870    2.3030 ha        1 1BH      0.141000
     44 H413       -5.0130    3.0070    3.1340 ha        1 1BH      0.141000
     45 HD1        -8.6770    4.4780   -2.1560 ha        1 1BH      0.126500
     46 HD2        -8.2190    2.8630   -2.9390 ha        1 1BH      0.126500
     47 H6         -5.8310    4.7920   -0.0700 hn        1 1BH      0.253000
     48 H611       -4.0780    5.1310   -2.3790 h1        1 1BH      0.129000
     49 H612       -6.0320    6.2660   -3.4050 hc        1 1BH      0.110000
     50 HG1        -6.9580    6.2110   -1.8550 hc        1 1BH      0.110000
     51 HG2        -5.8980    3.6670   -3.3170 ha        1 1BH      0.128000
     52 H811       -7.5870   14.4540   -2.8730 h1        1 1BH      0.177000
     53 H812       -1.5060    8.6230   -2.7680 ha        1 1BH      0.135000
     54 H83        -9.2430   13.6070   -2.9820 h1        1 1BH      0.177000
     55 H87        -1.5220    4.7860   -2.4240 ha        1 1BH      0.003000
     56 H84        -0.9010    4.7200   -2.1610 ha        1 1BH      0.003000
     57 H86        -7.6330   12.9820   -6.8360 ha        1 1BH      0.262000
     58 H85         0.7480   10.1820    2.1640 ha        1 1BH      0.238000
     59 HC1        -5.4960   10.3480   -1.7050 hc        1 1BH      0.182667
     60 HC2        -7.0380    9.4600   -1.9250 hc        1 1BH      0.182667
     61 HC3        -6.9310   10.7660   -0.6380 hc        1 1BH      0.182667
     62 H26         1.5990   -2.2300   -1.3750 ha        1 1BH      0.132000
     63 H23         3.9590   -0.9010    1.2860 hc        1 1BH      0.154500
     64 H25         4.4290   -2.3450   -0.0290 ha        1 1BH      0.206000
     65 H121       -0.7040    2.8230   -1.1600 hn        1 1BH      0.285667
     66 N3         -3.1170    7.2610   -0.9930 n         1 1BH     -0.357000
     67 HO5         0.6210    9.5630   -2.0100 ha        1 1BH      0.154000
     68 HN3        -2.5310    6.4600   -0.8960 hn        1 1BH      0.245000
     69 H32        -6.8000   11.2860   -3.7700 h4        1 1BH      0.194000
@<TRIPOS>BOND
     1    1    8 1   
     2    1   29 1   
     3    1   34 1   
     4    1   35 1   
     5    2   11 1   
     6    2   29 1   
     7    2   33 1   
     8    3    5 1   
     9    4    7 1   
    10    4   23 1   
    11    5   18 1   
    12    5   66 1   
    13    6   21 1   
    14    6   36 1   
    15    6   37 1   
    16    6   66 1   
    17    7   28 1   
    18    7   69 1   
    19    8    9 1   
    20    8   30 1   
    21    9   31 1   
    22    9   38 1   
    23    9   63 1   
    24   10   32 1   
    25   11   40 1   
    26   11   41 1   
    27   11   65 1   
    28   12   13 1   
    29   12   14 1   
    30   12   42 1   
    31   13   43 1   
    32   13   44 1   
    33   14   15 1   
    34   14   16 1   
    35   16   18 1   
    36   16   47 1   
    37   17   20 1   
    38   17   45 1   
    39   17   46 1   
    40   18   19 1   
    41   18   48 1   
    42   19   20 1   
    43   19   49 1   
    44   19   50 1   
    45   20   51 1   
    46   21   22 1   
    47   21   53 1   
    48   22   24 1   
    49   22   67 1   
    50   23   25 1   
    51   23   52 1   
    52   23   54 1   
    53   24   26 1   
    54   25   27 1   
    55   26   58 1   
    56   27   57 1   
    57   28   59 1   
    58   28   60 1   
    59   28   61 1   
    60   30   32 1   
    61   30   62 1   
    62   31   39 1   
    63   32   64 1   
    64   55   56 1   
    65   66   68 1   
@<TRIPOS>SUBSTRUCTURE
     1 1BH         1 TEMP              0 ****  ****    0 ROOT
