@<TRIPOS>MOLECULE
1BH
   67    63     1     0     0
SMALL
bcc


@<TRIPOS>ATOM
      1 C1         -0.2420   -0.3080   -0.9680 c3        1 1BH      0.023000
      2 C3         -0.2190    1.2260   -2.8190 c2        1 1BH      0.389000
      3 O4         -5.7790    7.3240    0.2560 o         1 1BH     -0.400000
      4 O5         -5.8450   11.2250    3.0460 oh        1 1BH     -0.234000
      5 C7         -5.0730    7.1770   -0.7650 c2        1 1BH      0.285000
      6 C8         -4.3380    9.5330   -0.8150 c3        1 1BH     -0.040000
      7 C9         -6.1910   10.8150    1.8370 c1        1 1BH     -0.037000
      8 C21         0.8090   -0.0190    0.0580 c2        1 1BH     -0.149000
      9 C22         0.5110    1.0950    0.9990 c3        1 1BH     -0.220000
     10 C24         3.8450   -0.4860    1.8460 c1        1 1BH     -0.184000
     11 N1         -0.5110    2.5080   -3.1990 n         1 1BH     -0.398000
     12 C4         -2.3730    3.4170    0.0020 c2        1 1BH     -0.232000
     13 C41        -2.3810    3.5480    1.3260 c2        1 1BH     -0.157000
     14 C5         -3.0260    4.3480   -0.9520 c2        1 1BH      0.363000
     15 O3         -2.4780    4.6090   -2.0570 o         1 1BH     -0.456000
     16 N2         -4.2420    4.8810   -0.6060 n         1 1BH     -0.345000
     17 CD         -7.3450    3.0570   -2.1200 c2        1 1BH     -0.214000
     18 C6         -4.9900    5.7810   -1.4470 c3        1 1BH      0.005000
     19 C61        -6.4390    5.3270   -1.6950 c3        1 1BH     -0.145000
     20 CG         -6.5010    4.0400   -2.4260 c2        1 1BH     -0.167000
     21 C81        -4.5970   10.6020   -1.8750 c3        1 1BH     -0.170000
     22 C82        -3.4400   10.7890   -2.8400 c3        1 1BH     -0.060000
     23 C83        -2.4350    6.5930   -3.4020 c1        1 1BH      0.355000
     24 C87        -2.2510   11.2760   -2.2060 c1        1 1BH     -0.164000
     25 C84        -1.3310    6.2050   -4.0330 c2        1 1BH     -0.529000
     26 C86        -1.2500   11.6880   -1.6950 c1        1 1BH     -0.220000
     27 C85        -0.8160    6.9840   -5.0960 c1        1 1BH     -0.055000
     28 CC         -7.3090    9.8500    1.8530 c3        1 1BH     -0.316000
     29 O1          0.4250    0.3700   -3.4490 o         1 1BH     -0.398000
     30 C26         1.9330   -0.7570    0.1030 c2        1 1BH     -0.034000
     31 C23        -0.5560    0.9220    1.9550 c1        1 1BH     -0.066000
     32 C25         2.9540   -0.5980    1.0520 c1        1 1BH     -0.149000
     33 O2         -0.7140    0.9070   -1.5620 os        1 1BH     -0.302000
     34 H11         0.1220   -1.0240   -1.7520 h1        1 1BH      0.118500
     35 H12        -1.1610   -0.7230   -0.4650 h1        1 1BH      0.118500
     36 H8         -3.3320    9.7370   -0.3430 h1        1 1BH      0.112000
     37 H9         -5.1270    9.6280   -0.0090 h1        1 1BH      0.112000
     38 H22         0.2590    2.0230    0.3950 hc        1 1BH      0.165500
     39 H24        -1.0390   -0.0660    2.0050 ha        1 1BH      0.045000
     40 HN1        -0.3780    2.7360   -4.1530 hn        1 1BH      0.248000
     41 H4         -1.1430    3.0530   -2.6570 hn        1 1BH      0.248000
     42 H411       -1.8310    2.5960   -0.5040 ha        1 1BH      0.165000
     43 H412       -1.8390    2.8320    1.9760 ha        1 1BH      0.144500
     44 H413       -2.8940    4.3620    1.8570 ha        1 1BH      0.144500
     45 HD1        -8.0530    3.1180   -1.2830 ha        1 1BH      0.114500
     46 HD2        -7.3860    2.1220   -2.6940 ha        1 1BH      0.114500
     47 H6         -4.6410    4.6600    0.2770 hn        1 1BH      0.244000
     48 H611       -4.4580    5.8530   -2.4460 h1        1 1BH      0.144000
     49 H612       -6.9360    6.1240   -2.3120 hc        1 1BH      0.110000
     50 HG1        -6.9890    5.2720   -0.7170 hc        1 1BH      0.110000
     51 HG2        -5.8000    3.9470   -3.2730 ha        1 1BH      0.123000
     52 H811       -5.5190   10.3540   -2.4630 hc        1 1BH      0.098000
     53 H812       -4.7920   11.5650   -1.3320 hc        1 1BH      0.098000
     54 H83        -3.7510   11.5210   -3.6390 hc        1 1BH      0.100000
     55 H87        -3.2100    9.8170   -3.3610 hc        1 1BH      0.100000
     56 H84        -0.8450    5.2650   -3.6870 ha        1 1BH      0.171000
     57 H86         0.1130    6.6100   -5.5540 ha        1 1BH      0.044000
     58 H85        -0.3630   12.0530   -1.2450 ha        1 1BH      0.220000
     59 HC1        -6.9170    8.8820    1.4350 hc        1 1BH      0.114667
     60 HC2        -8.1010   10.2290    1.1600 hc        1 1BH      0.114667
     61 HC3        -7.7600    9.6570    2.8570 hc        1 1BH      0.114667
     62 H26         2.1100   -1.5590   -0.6410 ha        1 1BH      0.150000
     63 H23         1.4300    1.3650    1.6060 hc        1 1BH      0.165500
     64 H25         4.6360   -0.3900    2.5460 ha        1 1BH      0.227000
     65 N3         -4.3360    8.1850   -1.3190 n         1 1BH     -0.365000
     66 HO5        -5.1020   11.8440    2.9430 ho        1 1BH      0.244000
     67 HN3        -3.7700    7.9900   -2.1160 hn        1 1BH      0.245000
@<TRIPOS>BOND
     1    1    8 1   
     2    1   33 1   
     3    1   34 1   
     4    1   35 1   
     5    2   11 1   
     6    2   29 1   
     7    2   33 1   
     8    3    5 1   
     9    4    7 1   
    10    4   66 1   
    11    5   18 1   
    12    5   65 1   
    13    6   21 1   
    14    6   36 1   
    15    6   37 1   
    16    6   65 1   
    17    7   28 1   
    18    8    9 1   
    19    8   30 1   
    20    9   31 1   
    21    9   38 1   
    22    9   63 1   
    23   10   32 1   
    24   10   64 1   
    25   11   40 1   
    26   11   41 1   
    27   12   13 1   
    28   12   14 1   
    29   12   42 1   
    30   13   43 1   
    31   13   44 1   
    32   14   15 1   
    33   14   16 1   
    34   16   18 1   
    35   16   47 1   
    36   17   20 1   
    37   17   45 1   
    38   17   46 1   
    39   18   19 1   
    40   18   48 1   
    41   19   20 1   
    42   19   49 1   
    43   19   50 1   
    44   20   51 1   
    45   21   22 1   
    46   21   52 1   
    47   21   53 1   
    48   22   24 1   
    49   22   54 1   
    50   22   55 1   
    51   23   25 1   
    52   24   26 1   
    53   25   27 1   
    54   25   56 1   
    55   26   58 1   
    56   27   57 1   
    57   28   59 1   
    58   28   60 1   
    59   28   61 1   
    60   30   32 1   
    61   30   62 1   
    62   31   39 1   
    63   65   67 1   
@<TRIPOS>SUBSTRUCTURE
     1 1BH         1 TEMP              0 ****  ****    0 ROOT
