@<TRIPOS>MOLECULE
1BI
   74    62     1     0     0
SMALL
bcc


@<TRIPOS>ATOM
      1 C1         -1.8420    0.4640   -0.9720 c1        1 1BI     -0.120000
      2 C2         -0.4540    0.3900   -0.9900 c2        1 1BI     -0.081000
      3 C3          0.2710    0.4380    0.2170 c1        1 1BI     -0.005000
      4 C4         -0.3960    0.5580    1.4160 c1        1 1BI     -0.443500
      5 C5         -1.8010    0.6330    1.4340 c1        1 1BI     -0.043500
      6 C6         -2.5160    0.5850    0.2400 c1        1 1BI     -0.132000
      7 N7          1.6320    0.3790    0.4870 n1        1 1BI     -0.153000
      8 C8          1.8000    0.4630    1.8440 c1        1 1BI      0.081000
      9 C9          0.5450    0.5740    2.4260 c1        1 1BI     -0.126000
     10 C10         0.4290    0.6340    3.7740 c2        1 1BI     -0.038000
     11 C11        -0.3840    1.9160    4.2440 c3        1 1BI     -0.150000
     12 C12        -0.5550    1.9940    5.7570 c3        1 1BI     -0.154500
     13 C13        -0.3580    0.7900    6.3410 c3        1 1BI     -0.155000
     14 C14        -0.7730   -0.4020    5.8380 c3        1 1BI     -0.154500
     15 C15        -0.6060   -0.4610    4.3370 c3        1 1BI     -0.150000
     16 C16         3.0570    0.5290    2.6890 c1        1 1BI     -0.153500
     17 C17         3.6980   -0.5360    3.2630 c1        1 1BI     -0.153500
     18 C18         4.8310   -0.0620    3.8930 c1        1 1BI     -0.078500
     19 O19         4.8850    1.2960    3.7050 os        1 1BI     -0.101000
     20 C20         3.7930    1.6660    2.9630 c1        1 1BI     -0.078500
     21 C21        -2.3320    0.2780   -2.4070 c1        1 1BI      0.386000
     22 O22        -1.5340    0.0980   -3.3020 o         1 1BI     -0.353000
     23 N23        -3.7400    0.3090   -2.6940 n2        1 1BI     -0.849000
     24 C24         2.2820    0.0370   -0.7610 c2        1 1BI     -0.028000
     25 C25         3.6390   -0.5970   -0.4710 c1        1 1BI      0.284000
     26 O26         4.0570   -0.6410    0.6680 o         1 1BI     -0.359000
     27 N27         4.4470   -1.0860   -1.5490 n2        1 1BI     -0.321000
     28 C28         4.1620   -1.1440   -3.0340 c3        1 1BI     -0.062000
     29 C29         4.1620   -2.5620   -3.5640 c3        1 1BI     -0.036000
     30 O30         4.7680   -3.3630   -2.7420 os        1 1BI     -0.271000
     31 C31         5.8410   -3.1150   -2.0550 c3        1 1BI     -0.036000
     32 C32         5.8310   -1.6940   -1.5330 c3        1 1BI     -0.062000
     33 S36        -4.3510   -0.5910   -3.9480 s4        1 1BI      2.065800
     34 O37        -3.3340   -0.8870   -4.9240 o         1 1BI     -0.530400
     35 O38        -4.7140   -1.9120   -3.5130 o         1 1BI     -0.530400
     36 C39        -5.7430    0.2510   -4.6960 c1        1 1BI     -0.443500
     37 C40        -7.0390   -0.0670   -4.3020 c1        1 1BI     -0.099500
     38 C41        -8.1230    0.5050   -4.9550 c1        1 1BI     -0.099500
     39 C42        -7.9140    1.3940   -6.0010 c1        1 1BI     -0.099500
     40 C43        -6.6210    1.7110   -6.3950 c1        1 1BI     -0.099500
     41 C44        -5.5340    1.1390   -5.7410 c1        1 1BI     -0.043500
     42 H1          0.0200    0.3040   -1.8430 ha        1 1BI      0.152000
     43 H2         -2.2750    0.7180    2.2840 ha        1 1BI      0.158000
     44 H3         -3.4930    0.6370    0.2530 ha        1 1BI      0.133000
     45 H4          1.2980    0.5740    4.2220 ha        1 1BI      0.094000
     46 H5          0.0880    2.7170    3.9400 hc        1 1BI      0.083250
     47 H6         -1.2670    1.8960    3.8300 hc        1 1BI      0.083250
     48 H7          0.0920    2.6350    6.1200 hc        1 1BI      0.076750
     49 H8         -1.4600    2.3030    5.9610 hc        1 1BI      0.076750
     50 H9          0.6110    0.7060    6.4650 hc        1 1BI      0.079500
     51 H10        -0.7540    0.8570    7.2370 hc        1 1BI      0.079500
     52 H11        -1.7200   -0.5320    6.0600 hc        1 1BI      0.076750
     53 H12        -0.2480   -1.1200    6.2450 hc        1 1BI      0.076750
     54 H13        -0.2850   -1.3510    4.0920 hc        1 1BI      0.083250
     55 H14        -1.4780   -0.3140    3.9180 hc        1 1BI      0.083250
     56 H15         3.4050   -1.4660    3.2320 DU        1 1BI      0.196667
     57 H16         5.4790   -0.5990    4.3850 DU        1 1BI      0.196667
     58 H17         3.5730    2.5750    2.6770 DU        1 1BI      0.196667
     59 H18        -4.2940    0.8410   -2.2030 hn        1 1BI      0.253000
     60 H19         1.7250   -0.5980   -1.2560 ha        1 1BI      0.126500
     61 H20         2.4090    0.8480   -1.2970 ha        1 1BI      0.126500
     62 H21         4.8450   -0.6280   -3.5070 h1        1 1BI      0.102500
     63 H22         3.2890   -0.7440   -3.2040 h1        1 1BI      0.102500
     64 H23         4.6200   -2.5810   -4.4270 h1        1 1BI      0.099250
     65 H24         3.2390   -2.8610   -3.6830 h1        1 1BI      0.099250
     66 H25         5.8900   -3.7360   -1.2970 h1        1 1BI      0.099250
     67 H26         6.6260   -3.2420   -2.6280 h1        1 1BI      0.099250
     68 H27         6.1680   -1.6910   -0.6140 h1        1 1BI      0.102500
     69 H28         6.4230   -1.1470   -2.0900 h1        1 1BI      0.102500
     70 H29        -7.1850   -0.6890   -3.5700 ha        1 1BI      0.145250
     71 H30        -9.0300    0.2830   -4.6790 ha        1 1BI      0.145250
     72 H31        -8.6780    1.7960   -6.4610 ha        1 1BI      0.145250
     73 H32        -6.4730    2.3390   -7.1340 ha        1 1BI      0.145250
     74 H33        -4.6260    1.3620   -6.0180 ha        1 1BI      0.158000
@<TRIPOS>BOND
     1    1    2 1   
     2    1    6 1   
     3    2    3 1   
     4    2   42 1   
     5    4    5 1   
     6    5   43 1   
     7    6   44 1   
     8    7    8 1   
     9    8    9 1   
    10   10   11 1   
    11   10   15 1   
    12   10   45 1   
    13   11   12 1   
    14   11   46 1   
    15   11   47 1   
    16   12   13 1   
    17   12   48 1   
    18   12   49 1   
    19   13   14 1   
    20   13   50 1   
    21   13   51 1   
    22   14   15 1   
    23   14   52 1   
    24   14   53 1   
    25   15   54 1   
    26   15   55 1   
    27   16   17 1   
    28   16   20 1   
    29   17   18 1   
    30   18   19 1   
    31   19   20 1   
    32   21   22 1   
    33   23   33 1   
    34   23   59 1   
    35   24   25 1   
    36   24   60 1   
    37   24   61 1   
    38   25   26 1   
    39   27   28 1   
    40   27   32 1   
    41   28   29 1   
    42   28   62 1   
    43   28   63 1   
    44   29   30 1   
    45   29   64 1   
    46   29   65 1   
    47   30   31 1   
    48   31   32 1   
    49   31   66 1   
    50   31   67 1   
    51   32   68 1   
    52   32   69 1   
    53   33   34 1   
    54   33   35 1   
    55   36   41 1   
    56   37   38 1   
    57   37   70 1   
    58   38   71 1   
    59   39   40 1   
    60   39   72 1   
    61   40   73 1   
    62   41   74 1   
@<TRIPOS>SUBSTRUCTURE
     1 1BI         1 TEMP              0 ****  ****    0 ROOT
