@<TRIPOS>MOLECULE
1BI
   75    80     1     0     0
SMALL
bcc


@<TRIPOS>ATOM
      1 C1          0.3940   -1.3530    0.2480 ca        1 1BI     -0.206600
      2 C2          1.7710   -1.0930    0.2630 ca        1 1BI     -0.024000
      3 C3          2.3510   -0.7250    1.4790 ca        1 1BI     -0.054200
      4 C4          1.5580   -0.6330    2.6920 ca        1 1BI     -0.016800
      5 C5          0.1930   -0.9380    2.6380 ca        1 1BI     -0.077000
      6 C6         -0.3810   -1.2870    1.4300 ca        1 1BI     -0.133000
      7 N7          3.6840   -0.4280    1.8010 na        1 1BI     -0.041400
      8 C8          3.7280   -0.0800    3.1700 cc        1 1BI      0.091700
      9 C9          2.4520   -0.2240    3.7450 cd        1 1BI     -0.112400
     10 C10         2.1240   -0.0030    5.1700 c3        1 1BI     -0.003500
     11 C11         1.1040    1.1190    5.3380 c3        1 1BI     -0.068900
     12 C12         0.7810    1.3460    6.8000 c3        1 1BI     -0.079400
     13 C13         0.2980    0.0730    7.4640 c3        1 1BI     -0.078400
     14 C14         1.3000   -1.0500    7.2920 c3        1 1BI     -0.079400
     15 C15         1.6250   -1.2850    5.8320 c3        1 1BI     -0.068900
     16 C16         4.9450    0.3070    3.8330 cc        1 1BI     -0.228100
     17 C17         6.1820   -0.4540    3.8780 cc        1 1BI     -0.260300
     18 C18         7.0590    0.2730    4.6540 cd        1 1BI      0.254600
     19 O19         6.4480    1.4500    5.0940 os        1 1BI     -0.344800
     20 C20         5.1580    1.4530    4.5860 cd        1 1BI      0.301600
     21 C21        -0.1940   -1.7170   -1.0360 c         1 1BI      0.595700
     22 O22         0.3220   -2.3480   -1.9570 o         1 1BI     -0.483100
     23 N23        -1.5870   -1.2380   -1.3100 ny        1 1BI     -0.608700
     24 C24         4.7250   -0.1820    0.8490 c3        1 1BI     -0.034700
     25 C25         4.6150    1.1480    0.0760 c         1 1BI      0.630100
     26 O26         3.6760    1.9410    0.2800 o         1 1BI     -0.590100
     27 N27         5.5520    1.4030   -0.9100 n         1 1BI     -0.462800
     28 C28         5.5410    2.6750   -1.6100 c3        1 1BI      0.049000
     29 C29         6.8430    3.4690   -1.4380 c3        1 1BI      0.103400
     30 O30         7.9860    2.6690   -1.7250 os        1 1BI     -0.400600
     31 C31         8.0400    1.4940   -0.9270 c3        1 1BI      0.103400
     32 C32         6.7690    0.6440   -1.0930 c3        1 1BI      0.049000
     33 S36        -1.7400    0.0320   -2.7630 sy        1 1BI      1.489200
     34 O37        -2.6520    0.9040   -2.2000 o         1 1BI     -0.567300
     35 O38        -0.4340    0.4050   -2.9750 o         1 1BI     -0.567300
     36 C39        -2.3630   -0.9690   -3.8500 ca        1 1BI     -0.543500
     37 C40        -3.7420   -0.9430   -4.1580 ca        1 1BI      0.013500
     38 C41        -4.2680   -1.7490   -5.1560 ca        1 1BI     -0.150000
     39 C42        -3.4300   -2.6080   -5.8760 ca        1 1BI      0.001000
     40 C43        -2.0640   -2.6570   -5.5850 ca        1 1BI     -0.150000
     41 C44        -1.5380   -1.8490   -4.5850 ca        1 1BI      0.013500
     42 H1          2.3640   -1.1630   -0.6620 ha        1 1BI      0.161000
     43 H2         -0.4150   -0.8990    3.5560 ha        1 1BI      0.162000
     44 H3         -1.4480   -1.5530    1.4150 ha        1 1BI      0.121000
     45 H4          3.0720    0.3110    5.7030 hc        1 1BI      0.063700
     46 H5          1.5120    2.0630    4.8900 hc        1 1BI      0.040700
     47 H6          0.1670    0.8590    4.7790 hc        1 1BI      0.040700
     48 H7         -0.0070    2.1390    6.8870 hc        1 1BI      0.046700
     49 H8          1.6950    1.7200    7.3320 hc        1 1BI      0.046700
     50 H9          0.1290    0.2620    8.5570 hc        1 1BI      0.043200
     51 H10        -0.6860   -0.2310    7.0200 hc        1 1BI      0.043200
     52 H11         2.2410   -0.7990    7.8490 hc        1 1BI      0.046700
     53 H12         0.8880   -1.9930    7.7370 hc        1 1BI      0.046700
     54 H13         2.4090   -2.0800    5.7440 hc        1 1BI      0.040700
     55 H14         0.7100   -1.6510    5.2960 hc        1 1BI      0.040700
     56 H15         6.3490   -1.4220    3.4120 ha        1 1BI      0.169000
     57 H16         8.0830    0.1440    4.9960 h4        1 1BI      0.069100
     58 H17         4.5580    2.3220    4.8500 h4        1 1BI      0.072100
     59 H18        -2.1630   -2.0490   -1.5240 hn        1 1BI      0.455300
     60 H19         4.7160   -1.0280    0.1000 h1        1 1BI      0.092700
     61 H20         5.7050   -0.1860    1.4110 h1        1 1BI      0.092700
     62 H21         5.3930    2.4530   -2.7050 h1        1 1BI      0.067950
     63 H22         4.6780    3.3040   -1.2500 h1        1 1BI      0.067950
     64 H23         6.9260    3.8840   -0.3990 h1        1 1BI      0.063950
     65 H24         6.8890    4.2990   -2.1910 h1        1 1BI      0.063950
     66 H25         8.1960    1.7730    0.1480 h1        1 1BI      0.063950
     67 H26         8.9300    0.9320   -1.3150 h1        1 1BI      0.063950
     68 H27         6.8270   -0.2220   -0.3800 h1        1 1BI      0.067950
     69 H28         6.7520    0.2320   -2.1440 h1        1 1BI      0.067950
     70 H29        -4.4060   -0.2530   -3.6020 ha        1 1BI      0.173000
     71 H30        -5.3460   -1.7080   -5.3870 ha        1 1BI      0.173500
     72 H31        -3.8480   -3.2460   -6.6740 ha        1 1BI      0.170000
     73 H32        -1.4010   -3.3330   -6.1510 ha        1 1BI      0.173500
     74 H33        -0.4550   -1.8910   -4.3560 ha        1 1BI      0.173000
     75 H232       -1.9610   -0.7980   -0.4690 hn        1 1BI      0.455300
@<TRIPOS>BOND
     1    1    2 ar  
     2    1    6 ar  
     3    1   21 1   
     4    2    3 ar  
     5    2   42 1   
     6    3    4 ar  
     7    3    7 1   
     8    4    5 ar  
     9    4    9 1   
    10    5    6 ar  
    11    5   43 1   
    12    6   44 1   
    13    7    8 1   
    14    7   24 1   
    15    8    9 2   
    16    8   16 1   
    17    9   10 1   
    18   10   11 1   
    19   10   15 1   
    20   10   45 1   
    21   11   12 1   
    22   11   46 1   
    23   11   47 1   
    24   12   13 1   
    25   12   48 1   
    26   12   49 1   
    27   13   14 1   
    28   13   50 1   
    29   13   51 1   
    30   14   15 1   
    31   14   52 1   
    32   14   53 1   
    33   15   54 1   
    34   15   55 1   
    35   16   17 1   
    36   16   20 2   
    37   17   18 2   
    38   17   56 1   
    39   18   19 1   
    40   18   57 1   
    41   19   20 1   
    42   20   58 1   
    43   21   22 2   
    44   21   23 1   
    45   23   33 1   
    46   23   59 1   
    47   23   75 1   
    48   24   25 1   
    49   24   60 1   
    50   24   61 1   
    51   25   26 2   
    52   25   27 1   
    53   27   28 1   
    54   27   32 1   
    55   28   29 1   
    56   28   62 1   
    57   28   63 1   
    58   29   30 1   
    59   29   64 1   
    60   29   65 1   
    61   30   31 1   
    62   31   32 1   
    63   31   66 1   
    64   31   67 1   
    65   32   68 1   
    66   32   69 1   
    67   33   34 2   
    68   33   35 2   
    69   33   36 1   
    70   36   37 ar  
    71   36   41 ar  
    72   37   38 ar  
    73   37   70 1   
    74   38   39 ar  
    75   38   71 1   
    76   39   40 ar  
    77   39   72 1   
    78   40   41 ar  
    79   40   73 1   
    80   41   74 1   
@<TRIPOS>SUBSTRUCTURE
     1 1BI         1 TEMP              0 ****  ****    0 ROOT
