@<TRIPOS>MOLECULE
1BI
   74    79     1     0     0
SMALL
bcc


@<TRIPOS>ATOM
      1 C1          1.6690    0.7660    0.4710 ca        1 1BI     -0.139600
      2 C2          0.6300   -0.0250   -0.0210 ca        1 1BI     -0.080000
      3 C3         -0.6250    0.5700   -0.1890 ca        1 1BI     -0.047200
      4 C4         -0.8420    1.9590    0.1460 ca        1 1BI     -0.047800
      5 C5          0.2180    2.7120    0.6500 ca        1 1BI     -0.093000
      6 C6          1.4620    2.1160    0.8120 ca        1 1BI     -0.126000
      7 N7         -1.8160    0.0460   -0.7290 na        1 1BI     -0.056400
      8 C8         -2.8010    1.0670   -0.6460 cc        1 1BI      0.052700
      9 C9         -2.2320    2.2470   -0.1540 cd        1 1BI     -0.104400
     10 C10        -2.9320    3.5390    0.0060 c3        1 1BI      0.002500
     11 C11        -2.9630    3.9710    1.4700 c3        1 1BI     -0.070900
     12 C12        -3.6840    5.2930    1.6320 c3        1 1BI     -0.077400
     13 C13        -3.0670    6.3710    0.7640 c3        1 1BI     -0.077400
     14 C14        -3.0240    5.9460   -0.6890 c3        1 1BI     -0.077400
     15 C15        -2.3000    4.6260   -0.8590 c3        1 1BI     -0.070900
     16 C16        -4.1550    0.8630   -1.0880 cc        1 1BI     -0.196100
     17 C17        -4.5700    0.3580   -2.3860 cc        1 1BI     -0.256300
     18 C18        -5.9480    0.3610   -2.3850 cd        1 1BI      0.237600
     19 O19        -6.4280    0.8350   -1.1620 os        1 1BI     -0.357800
     20 C20        -5.3160    1.1360   -0.3830 cd        1 1BI      0.286600
     21 C21         2.9940    0.1130    0.6440 c         1 1BI      0.711700
     22 O22         3.1040   -1.0960    0.9230 o         1 1BI     -0.587100
     23 N23         4.1440    0.8810    0.4510 n         1 1BI     -0.672300
     24 C24        -2.0990   -1.3500   -0.8350 c3        1 1BI     -0.024700
     25 C25        -2.5220   -2.0590    0.4650 c         1 1BI      0.632100
     26 O26        -2.7850   -1.4340    1.5080 o         1 1BI     -0.578100
     27 N27        -2.6590   -3.4410    0.4280 n         1 1BI     -0.473800
     28 C28        -2.8700   -4.1620    1.6680 c3        1 1BI      0.057000
     29 C29        -3.6190   -5.4830    1.4650 c3        1 1BI      0.116400
     30 O30        -3.0310   -6.2670    0.4310 os        1 1BI     -0.407600
     31 C31        -2.9860   -5.5720   -0.8060 c3        1 1BI      0.116400
     32 C32        -2.2310   -4.2370   -0.6960 c3        1 1BI      0.057000
     33 S36         5.7270    0.4660    0.7020 sy        1 1BI      1.512900
     34 O37         6.4670    1.6430    0.4390 o         1 1BI     -0.642800
     35 O38         5.9040   -0.1100    1.9660 o         1 1BI     -0.642800
     36 C39         6.0430   -0.6600   -0.4970 ca        1 1BI     -0.398500
     37 C40         6.7280   -0.2850   -1.6620 ca        1 1BI     -0.005000
     38 C41         7.0410   -1.2240   -2.6390 ca        1 1BI     -0.162500
     39 C42         6.6710   -2.5590   -2.4650 ca        1 1BI     -0.061000
     40 C43         5.9890   -2.9480   -1.3120 ca        1 1BI     -0.162500
     41 C44         5.6760   -2.0030   -0.3380 ca        1 1BI     -0.005000
     42 H1          0.8070   -1.0860   -0.2530 ha        1 1BI      0.152000
     43 H2          0.0690    3.7680    0.9210 ha        1 1BI      0.145000
     44 H3          2.2830    2.7120    1.2380 ha        1 1BI      0.136000
     45 H4         -4.0010    3.4050   -0.3360 hc        1 1BI      0.054700
     46 H5         -3.4780    3.1830    2.0790 hc        1 1BI      0.044450
     47 H6         -1.9140    4.0620    1.8550 hc        1 1BI      0.044450
     48 H7         -4.7640    5.1670    1.3570 hc        1 1BI      0.039700
     49 H8         -3.6450    5.6080    2.7070 hc        1 1BI      0.039700
     50 H9         -3.6590    7.3180    0.8620 hc        1 1BI      0.039200
     51 H10        -2.0260    6.5870    1.1220 hc        1 1BI      0.039200
     52 H11        -4.0710    5.8510   -1.0810 hc        1 1BI      0.039700
     53 H12        -2.5070    6.7340   -1.2960 hc        1 1BI      0.039700
     54 H13        -1.2210    4.7470   -0.5780 hc        1 1BI      0.044450
     55 H14        -2.3360    4.3130   -1.9340 hc        1 1BI      0.044450
     56 H15        -3.9030    0.0650   -3.1920 ha        1 1BI      0.165000
     57 H16        -6.7240    0.0920   -3.0960 h4        1 1BI      0.057100
     58 H17        -5.5380    1.5120    0.6130 h4        1 1BI      0.068100
     59 H18         3.9600    1.8100    0.1330 hn        1 1BI      0.338500
     60 H19        -2.9420   -1.4740   -1.5780 h1        1 1BI      0.084200
     61 H20        -1.1680   -1.8530   -1.2310 h1        1 1BI      0.084200
     62 H21        -1.8690   -4.3810    2.1420 h1        1 1BI      0.057950
     63 H22        -3.4590   -3.5100    2.3740 h1        1 1BI      0.057950
     64 H23        -3.5270   -6.1200    2.3840 h1        1 1BI      0.058200
     65 H24        -4.7000   -5.3000    1.2280 h1        1 1BI      0.058200
     66 H25        -2.4360   -6.2620   -1.4980 h1        1 1BI      0.058200
     67 H26        -4.0310   -5.4010   -1.1800 h1        1 1BI      0.058200
     68 H27        -2.4040   -3.6730   -1.6550 h1        1 1BI      0.057950
     69 H28        -1.1270   -4.4550   -0.6070 h1        1 1BI      0.057950
     70 H29         7.0340    0.7690   -1.7920 ha        1 1BI      0.164500
     71 H30         7.5820   -0.9160   -3.5460 ha        1 1BI      0.142000
     72 H31         6.9200   -3.3040   -3.2360 ha        1 1BI      0.136000
     73 H32         5.6970   -3.9990   -1.1690 ha        1 1BI      0.142000
     74 H33         5.1270   -2.3060    0.5740 ha        1 1BI      0.164500
@<TRIPOS>BOND
     1    1    2 ar  
     2    1    6 ar  
     3    1   21 1   
     4    2    3 ar  
     5    2   42 1   
     6    3    4 ar  
     7    3    7 1   
     8    4    5 ar  
     9    4    9 1   
    10    5    6 ar  
    11    5   43 1   
    12    6   44 1   
    13    7    8 1   
    14    7   24 1   
    15    8    9 2   
    16    8   16 1   
    17    9   10 1   
    18   10   11 1   
    19   10   15 1   
    20   10   45 1   
    21   11   12 1   
    22   11   46 1   
    23   11   47 1   
    24   12   13 1   
    25   12   48 1   
    26   12   49 1   
    27   13   14 1   
    28   13   50 1   
    29   13   51 1   
    30   14   15 1   
    31   14   52 1   
    32   14   53 1   
    33   15   54 1   
    34   15   55 1   
    35   16   17 1   
    36   16   20 2   
    37   17   18 2   
    38   17   56 1   
    39   18   19 1   
    40   18   57 1   
    41   19   20 1   
    42   20   58 1   
    43   21   22 2   
    44   21   23 1   
    45   23   33 1   
    46   23   59 1   
    47   24   25 1   
    48   24   60 1   
    49   24   61 1   
    50   25   26 2   
    51   25   27 1   
    52   27   28 1   
    53   27   32 1   
    54   28   29 1   
    55   28   62 1   
    56   28   63 1   
    57   29   30 1   
    58   29   64 1   
    59   29   65 1   
    60   30   31 1   
    61   31   32 1   
    62   31   66 1   
    63   31   67 1   
    64   32   68 1   
    65   32   69 1   
    66   33   34 2   
    67   33   35 2   
    68   33   36 1   
    69   36   37 ar  
    70   36   41 ar  
    71   37   38 ar  
    72   37   70 1   
    73   38   39 ar  
    74   38   71 1   
    75   39   40 ar  
    76   39   72 1   
    77   40   41 ar  
    78   40   73 1   
    79   41   74 1   
@<TRIPOS>SUBSTRUCTURE
     1 1BI         1 TEMP              0 ****  ****    0 ROOT
