@<TRIPOS>MOLECULE
1BI
   75    80     1     0     0
SMALL
bcc


@<TRIPOS>ATOM
      1 C1          0.4030   -1.3590    0.2550 ca        1 1BI     -0.206600
      2 C2          1.7790   -1.0990    0.2780 ca        1 1BI     -0.024000
      3 C3          2.3510   -0.7230    1.4950 ca        1 1BI     -0.054200
      4 C4          1.5500   -0.6230    2.7020 ca        1 1BI     -0.016800
      5 C5          0.1860   -0.9270    2.6410 ca        1 1BI     -0.077000
      6 C6         -0.3800   -1.2840    1.4310 ca        1 1BI     -0.133000
      7 N7          3.6820   -0.4240    1.8240 na        1 1BI     -0.041400
      8 C8          3.7170   -0.0670    3.1910 cc        1 1BI      0.091700
      9 C9          2.4370   -0.2070    3.7590 cd        1 1BI     -0.112400
     10 C10         2.0990    0.0240    5.1800 c3        1 1BI     -0.003500
     11 C11         1.0790    1.1480    5.3320 c3        1 1BI     -0.068900
     12 C12         0.7450    1.3850    6.7900 c3        1 1BI     -0.079400
     13 C13         0.2570    0.1170    7.4600 c3        1 1BI     -0.078400
     14 C14         1.2600   -1.0070    7.3030 c3        1 1BI     -0.079400
     15 C15         1.5950   -1.2530    5.8470 c3        1 1BI     -0.068900
     16 C16         4.9290    0.3250    3.8590 cc        1 1BI     -0.228100
     17 C17         6.1660   -0.4370    3.9190 cc        1 1BI     -0.260300
     18 C18         7.0380    0.2950    4.6960 cd        1 1BI      0.254600
     19 O19         6.4240    1.4750    5.1230 os        1 1BI     -0.344800
     20 C20         5.1370    1.4750    4.6060 cd        1 1BI      0.301600
     21 C21        -0.1770   -1.7310   -1.0300 c         1 1BI      0.595700
     22 O22         0.3450   -2.3690   -1.9430 o         1 1BI     -0.483100
     23 N23        -1.5670   -1.2530   -1.3180 n4        1 1BI     -0.608700
     24 C24         4.7290   -0.1850    0.8770 c3        1 1BI     -0.034700
     25 C25         4.6250    1.1390    0.0950 c         1 1BI      0.630100
     26 O26         3.6850    1.9340    0.2880 o         1 1BI     -0.590100
     27 N27         5.5690    1.3870   -0.8870 n         1 1BI     -0.462800
     28 C28         5.5620    2.6550   -1.5960 c3        1 1BI      0.049000
     29 C29         6.8640    3.4490   -1.4210 c3        1 1BI      0.103400
     30 O30         8.0080    2.6460   -1.6950 os        1 1BI     -0.400600
     31 C31         8.0570    1.4780   -0.8890 c3        1 1BI      0.103400
     32 C32         6.7860    0.6260   -1.0560 c3        1 1BI      0.049000
     33 S36        -1.7100    0.0070   -2.7790 sy        1 1BI      1.489200
     34 O37        -2.6250    0.8840   -2.2290 o         1 1BI     -0.567300
     35 O38        -0.4020    0.3780   -2.9850 o         1 1BI     -0.567300
     36 C39        -2.3250   -1.0000   -3.8640 ca        1 1BI     -0.543500
     37 C40        -3.7020   -0.9750   -4.1830 ca        1 1BI      0.013500
     38 C41        -4.2210   -1.7880   -5.1790 ca        1 1BI     -0.150000
     39 C42        -3.3790   -2.6520   -5.8870 ca        1 1BI      0.001000
     40 C43        -2.0150   -2.6990   -5.5860 ca        1 1BI     -0.150000
     41 C44        -1.4960   -1.8860   -4.5890 ca        1 1BI      0.013500
     42 H1          2.3790   -1.1760   -0.6430 ha        1 1BI      0.161000
     43 H2         -0.4290   -0.8820    3.5540 ha        1 1BI      0.162000
     44 H3         -1.4470   -1.5510    1.4100 ha        1 1BI      0.121000
     45 H4          3.0430    0.3420    5.7170 hc        1 1BI      0.063700
     46 H5          1.4890    2.0890    4.8810 hc        1 1BI      0.040700
     47 H6          0.1450    0.8840    4.7690 hc        1 1BI      0.040700
     48 H7          1.6560    1.7630    7.3260 hc        1 1BI      0.046700
     49 H8         -0.0430    2.1790    6.8670 hc        1 1BI      0.046700
     50 H9          0.0810    0.3130    8.5500 hc        1 1BI      0.043200
     51 H10        -0.7240   -0.1900    7.0110 hc        1 1BI      0.043200
     52 H11         2.1970   -0.7530    7.8650 hc        1 1BI      0.046700
     53 H12         0.8450   -1.9470    7.7520 hc        1 1BI      0.046700
     54 H13         0.6840   -1.6220    5.3070 hc        1 1BI      0.040700
     55 H14         2.3800   -2.0490    5.7700 hc        1 1BI      0.040700
     56 H15         6.3360   -1.4070    3.4610 ha        1 1BI      0.169000
     57 H16         8.0590    0.1690    5.0460 h4        1 1BI      0.069100
     58 H17         4.5360    2.3460    4.8600 h4        1 1BI      0.072100
     59 H18        -1.9470   -0.8080   -0.4820 hn        1 1BI      0.455300
     60 H19         5.7060   -0.1860    1.4470 h1        1 1BI      0.092700
     61 H20         4.7260   -1.0360    0.1350 h1        1 1BI      0.092700
     62 H21         4.6980    3.2870   -1.2460 h1        1 1BI      0.067950
     63 H22         5.4210    2.4250   -2.6910 h1        1 1BI      0.067950
     64 H23         6.9150    4.2740   -2.1790 h1        1 1BI      0.063700
     65 H24         6.9410    3.8710   -0.3850 h1        1 1BI      0.063700
     66 H25         8.9490    0.9120   -1.2670 h1        1 1BI      0.063700
     67 H26         8.2060    1.7640    0.1850 h1        1 1BI      0.063700
     68 H27         6.8400   -0.2340   -0.3380 h1        1 1BI      0.067950
     69 H28         6.7760    0.2070   -2.1050 h1        1 1BI      0.067950
     70 H29        -4.3690   -0.2820   -3.6350 ha        1 1BI      0.173000
     71 H30        -5.2980   -1.7480   -5.4180 ha        1 1BI      0.173500
     72 H31        -3.7920   -3.2950   -6.6840 ha        1 1BI      0.170000
     73 H32        -1.3490   -3.3800   -6.1430 ha        1 1BI      0.173500
     74 H33        -0.4140   -1.9260   -4.3510 ha        1 1BI      0.173000
     75 H232       -2.1430   -2.0650   -1.5300 hn        1 1BI      0.455300
@<TRIPOS>BOND
     1    1    2 ar  
     2    1    6 ar  
     3    1   21 1   
     4    2    3 ar  
     5    2   42 1   
     6    3    4 ar  
     7    3    7 1   
     8    4    5 ar  
     9    4    9 1   
    10    5    6 ar  
    11    5   43 1   
    12    6   44 1   
    13    7    8 1   
    14    7   24 1   
    15    8    9 2   
    16    8   16 1   
    17    9   10 1   
    18   10   11 1   
    19   10   15 1   
    20   10   45 1   
    21   11   12 1   
    22   11   46 1   
    23   11   47 1   
    24   12   13 1   
    25   12   48 1   
    26   12   49 1   
    27   13   14 1   
    28   13   50 1   
    29   13   51 1   
    30   14   15 1   
    31   14   52 1   
    32   14   53 1   
    33   15   54 1   
    34   15   55 1   
    35   16   17 1   
    36   16   20 2   
    37   17   18 2   
    38   17   56 1   
    39   18   19 1   
    40   18   57 1   
    41   19   20 1   
    42   20   58 1   
    43   21   22 2   
    44   21   23 1   
    45   23   33 1   
    46   23   59 1   
    47   23   75 1   
    48   24   25 1   
    49   24   60 1   
    50   24   61 1   
    51   25   26 2   
    52   25   27 1   
    53   27   28 1   
    54   27   32 1   
    55   28   29 1   
    56   28   62 1   
    57   28   63 1   
    58   29   30 1   
    59   29   64 1   
    60   29   65 1   
    61   30   31 1   
    62   31   32 1   
    63   31   66 1   
    64   31   67 1   
    65   32   68 1   
    66   32   69 1   
    67   33   34 2   
    68   33   35 2   
    69   33   36 1   
    70   36   37 ar  
    71   36   41 ar  
    72   37   38 ar  
    73   37   70 1   
    74   38   39 ar  
    75   38   71 1   
    76   39   40 ar  
    77   39   72 1   
    78   40   41 ar  
    79   40   73 1   
    80   41   74 1   
@<TRIPOS>SUBSTRUCTURE
     1 1BI         1 TEMP              0 ****  ****    0 ROOT
