@<TRIPOS>MOLECULE
1BJ
   42    45     1     0     0
SMALL
bcc


@<TRIPOS>ATOM
      1 N1         -0.2660   -0.2200   -0.0320 nb        1 1BJ     -0.749000
      2 C2          1.1190   -0.3390   -0.0320 ca        1 1BJ      0.886900
      3 N3          1.9150   -0.2990    1.1050 nb        1 1BJ     -0.795000
      4 C4         -0.8450   -0.1060    1.1720 ca        1 1BJ      0.467200
      5 C5         -0.1460   -0.0910    2.3870 ca        1 1BJ     -0.408600
      6 C6          1.2720   -0.1920    2.3010 ca        1 1BJ      0.603800
      7 N7          2.0560   -0.1950    3.4890 na        1 1BJ      0.035100
      8 N8          1.7900   -0.5970   -1.2430 nh        1 1BJ     -0.814900
      9 C9          1.1900   -0.2160   -2.5110 c3        1 1BJ      0.205500
     10 C10         1.9700   -0.8470   -3.6800 c3        1 1BJ     -0.092400
     11 C11         1.2780   -0.5510   -4.9920 c3        1 1BJ     -0.092900
     12 C12         1.1530    0.9530   -5.2120 c3        1 1BJ      0.139100
     13 C13         0.4240    1.6130   -4.0450 c3        1 1BJ     -0.092900
     14 C14         1.1090    1.3050   -2.7330 c3        1 1BJ     -0.092400
     15 O15         0.4360    1.1240   -6.4280 oh        1 1BJ     -0.598800
     16 C16         2.6070    0.4340    5.5180 cc        1 1BJ      0.373800
     17 N17         1.6020    0.3860    4.6360 nd        1 1BJ     -0.501100
     18 C18         3.8280   -0.1160    4.9360 ca        1 1BJ     -0.220900
     19 C19         3.4410   -0.5020    3.5980 ca        1 1BJ     -0.015200
     20 C20         4.3660   -1.1050    2.7390 ca        1 1BJ     -0.114000
     21 C21         5.6580   -1.2950    3.2190 ca        1 1BJ     -0.106000
     22 C22         6.0370   -0.9110    4.5150 ca        1 1BJ     -0.154000
     23 C23         5.1270   -0.3230    5.3850 ca        1 1BJ     -0.067000
     24 H1         -1.9480   -0.0190    1.1590 h4        1 1BJ      0.030100
     25 H2         -0.6740   -0.0010    3.3430 ha        1 1BJ      0.176000
     26 H3          2.7800   -0.4530   -1.2050 hn        1 1BJ      0.419800
     27 H4          0.1380   -0.6320   -2.5360 h1        1 1BJ      0.091700
     28 H5          2.0330   -1.9580   -3.5410 hc        1 1BJ      0.050200
     29 H6          3.0160   -0.4450   -3.7040 hc        1 1BJ      0.050200
     30 H7          1.8610   -0.9980   -5.8390 hc        1 1BJ      0.055950
     31 H8          0.2560   -1.0100   -5.0080 hc        1 1BJ      0.055950
     32 H9          2.1780    1.4100   -5.3230 h1        1 1BJ      0.031700
     33 H10         0.3950    2.7230   -4.2020 hc        1 1BJ      0.055950
     34 H11        -0.6360    1.2480   -4.0220 hc        1 1BJ      0.055950
     35 H12         0.5340    1.7810   -1.8970 hc        1 1BJ      0.050200
     36 H13         2.1410    1.7450   -2.7330 hc        1 1BJ      0.050200
     37 H14         0.2820    2.0710   -6.5290 ho        1 1BJ      0.400000
     38 H15         2.4800    0.8340    6.5260 h4        1 1BJ      0.058800
     39 H16         4.0970   -1.4240    1.7220 ha        1 1BJ      0.163000
     40 H17         6.4070   -1.7630    2.5610 ha        1 1BJ      0.135000
     41 H18         7.0730   -1.0830    4.8440 ha        1 1BJ      0.135000
     42 H19         5.4200   -0.0310    6.4030 ha        1 1BJ      0.139000
@<TRIPOS>BOND
     1    1    2 ar  
     2    1    4 ar  
     3    2    3 ar  
     4    2    8 1   
     5    3    6 ar  
     6    4    5 ar  
     7    4   24 1   
     8    5    6 ar  
     9    5   25 1   
    10    6    7 1   
    11    7   17 1   
    12    7   19 1   
    13    8    9 1   
    14    8   26 1   
    15    9   10 1   
    16    9   14 1   
    17    9   27 1   
    18   10   11 1   
    19   10   28 1   
    20   10   29 1   
    21   11   12 1   
    22   11   30 1   
    23   11   31 1   
    24   12   13 1   
    25   12   15 1   
    26   12   32 1   
    27   13   14 1   
    28   13   33 1   
    29   13   34 1   
    30   14   35 1   
    31   14   36 1   
    32   15   37 1   
    33   16   17 2   
    34   16   18 1   
    35   16   38 1   
    36   18   19 ar  
    37   18   23 ar  
    38   19   20 ar  
    39   20   21 ar  
    40   20   39 1   
    41   21   22 ar  
    42   21   40 1   
    43   22   23 ar  
    44   22   41 1   
    45   23   42 1   
@<TRIPOS>SUBSTRUCTURE
     1 1BJ         1 TEMP              0 ****  ****    0 ROOT
