@<TRIPOS>MOLECULE
1BJ
   42    37     1     0     0
SMALL
bcc


@<TRIPOS>ATOM
      1 N1         -2.0020   -0.1600   -0.4130 n1        1 1BJ     -0.222000
      2 C2         -0.6440   -0.2580   -0.3610 c1        1 1BJ      0.167000
      3 N3         -0.0170   -0.4220    0.8390 n1        1 1BJ     -0.268000
      4 C4         -2.7240   -0.2260    0.7160 c1        1 1BJ      0.002000
      5 C5         -2.0980   -0.3910    1.9170 c1        1 1BJ     -0.195500
      6 C6         -0.7370   -0.4880    1.9680 c1        1 1BJ      0.121000
      7 N7         -0.0850   -0.6680    3.2150 n3        1 1BJ     -0.126000
      8 N8          0.1140   -0.2490   -1.5610 n2        1 1BJ     -0.258000
      9 C9         -0.1160    0.7640   -2.5450 c3        1 1BJ      0.007000
     10 C10        -1.1820    0.2740   -3.5160 c3        1 1BJ     -0.171000
     11 C11        -1.3610    1.2040   -4.6950 c3        1 1BJ     -0.171500
     12 C12        -0.0480    1.5210   -5.3880 c3        1 1BJ      0.028000
     13 C13         1.0180    2.0110   -4.4180 c3        1 1BJ     -0.171500
     14 C14         1.1970    1.0810   -3.2380 c3        1 1BJ     -0.171000
     15 O15        -0.2750    2.5240   -6.3630 oh        1 1BJ     -0.325000
     16 C16         0.7370    0.7690    4.6760 c1        1 1BJ     -0.127000
     17 N17         0.0560    0.6680    3.5110 n2        1 1BJ     -0.034000
     18 C18         1.0270   -0.5110    5.1150 c1        1 1BJ     -0.137000
     19 C19         0.5160   -1.3900    4.2090 c1        1 1BJ      0.121000
     20 C20         0.6710   -2.7760    4.4090 c1        1 1BJ     -0.195500
     21 C21         1.3420   -3.2440    5.5270 c1        1 1BJ     -0.130500
     22 C22         1.8610   -2.3510    6.4480 c1        1 1BJ     -0.130500
     23 C23         1.7090   -0.9870    6.2520 c1        1 1BJ     -0.067000
     24 H1         -3.6980   -0.1560    0.6780 ha        1 1BJ      0.168000
     25 H2         -2.6220   -0.4390    2.7390 ha        1 1BJ      0.169500
     26 H3          0.7480   -0.8880   -1.7040 hn        1 1BJ      0.214000
     27 H4         -0.4410    1.5710   -2.0990 h1        1 1BJ      0.131000
     28 H5         -0.9260   -0.6110   -3.8460 hc        1 1BJ      0.089250
     29 H6         -2.0330    0.2000   -3.0390 hc        1 1BJ      0.089250
     30 H7         -1.7630    2.0380   -4.3820 hc        1 1BJ      0.095000
     31 H8         -1.9650    0.7840   -5.3400 hc        1 1BJ      0.095000
     32 H9          0.2770    0.7140   -5.8340 h1        1 1BJ      0.071000
     33 H10         0.7630    2.8960   -4.0870 hc        1 1BJ      0.095000
     34 H11         1.8690    2.0850   -4.8940 hc        1 1BJ      0.095000
     35 H12         1.8020    1.5020   -2.5930 hc        1 1BJ      0.089250
     36 H13         1.5990    0.2470   -3.5510 hc        1 1BJ      0.089250
     37 H14         0.2860    2.4100   -7.0420 ho        1 1BJ      0.198000
     38 H15         0.9820    1.6010    5.1280 DU        1 1BJ      0.188000
     39 H16         0.3050   -3.4060    3.7600 ha        1 1BJ      0.169500
     40 H17         1.4490   -4.2050    5.6650 ha        1 1BJ      0.135000
     41 H18         2.3340   -2.6810    7.2360 ha        1 1BJ      0.135000
     42 H19         2.0740   -0.3580    6.9010 ha        1 1BJ      0.139000
@<TRIPOS>BOND
     1    1    4 1   
     2    2    3 1   
     3    4   24 1   
     4    5    6 1   
     5    5   25 1   
     6    6    7 1   
     7    7   17 1   
     8    7   19 1   
     9    8    9 1   
    10    8   26 1   
    11    9   10 1   
    12    9   14 1   
    13    9   27 1   
    14   10   11 1   
    15   10   28 1   
    16   10   29 1   
    17   11   12 1   
    18   11   30 1   
    19   11   31 1   
    20   12   13 1   
    21   12   15 1   
    22   12   32 1   
    23   13   14 1   
    24   13   33 1   
    25   13   34 1   
    26   14   35 1   
    27   14   36 1   
    28   15   37 1   
    29   16   17 1   
    30   16   18 1   
    31   18   23 1   
    32   19   20 1   
    33   20   39 1   
    34   21   22 1   
    35   21   40 1   
    36   22   41 1   
    37   23   42 1   
@<TRIPOS>SUBSTRUCTURE
     1 1BJ         1 TEMP              0 ****  ****    0 ROOT
