@<TRIPOS>MOLECULE
1BJ
   43    46     1     0     0
SMALL
bcc


@<TRIPOS>ATOM
      1 N1         -0.7160   -1.2560    0.0730 nb        1 1BJ     -0.698000
      2 C2          0.6450   -1.1990   -0.0290 ca        1 1BJ      0.738900
      3 N3          1.5570   -0.8600    0.9320 nb        1 1BJ     -0.750000
      4 C4         -1.2020   -0.9300    1.2970 ca        1 1BJ      0.462200
      5 C5         -0.3940   -0.5650    2.3720 ca        1 1BJ     -0.321600
      6 C6          1.0310   -0.5360    2.1640 ca        1 1BJ      0.625800
      7 N7          1.8990   -0.1850    3.1980 na        1 1BJ      0.027100
      8 N8          1.2220   -1.5650   -1.3610 n4        1 1BJ     -0.745700
      9 C9          1.0200   -0.4730   -2.3900 c3        1 1BJ      0.126500
     10 C10         1.2420   -1.0330   -3.8010 c3        1 1BJ     -0.096900
     11 C11         0.9530    0.0500   -4.8190 c3        1 1BJ     -0.100900
     12 C12         1.8210    1.2850   -4.5830 c3        1 1BJ      0.141100
     13 C13         1.6650    1.8020   -3.1550 c3        1 1BJ     -0.100900
     14 C14         1.9570    0.7140   -2.1440 c3        1 1BJ     -0.096900
     15 O15         1.4050    2.3470   -5.4260 oh        1 1BJ     -0.580800
     16 C16         2.4510    0.4950    5.2160 cc        1 1BJ      0.435800
     17 N17         1.4170    0.1980    4.4320 nd        1 1BJ     -0.512100
     18 C18         3.7170    0.3130    4.5000 ca        1 1BJ     -0.215900
     19 C19         3.3300   -0.1310    3.1820 ca        1 1BJ     -0.022200
     20 C20         4.2960   -0.4130    2.2180 ca        1 1BJ     -0.125000
     21 C21         5.6350   -0.2440    2.5820 ca        1 1BJ     -0.088000
     22 C22         6.0110    0.1890    3.8570 ca        1 1BJ     -0.135000
     23 C23         5.0530    0.4710    4.8320 ca        1 1BJ     -0.044000
     24 H1         -2.3070   -0.9750    1.3890 h4        1 1BJ      0.070100
     25 H2         -0.8410   -0.3100    3.3460 ha        1 1BJ      0.210000
     26 H3          2.2280   -1.7490   -1.2560 hn        1 1BJ      0.466800
     27 H4         -0.0550   -0.1280   -2.2970 hx        1 1BJ      0.127700
     28 H5          2.3020   -1.3840   -3.9160 hc        1 1BJ      0.066700
     29 H6          0.5620   -1.9050   -3.9910 hc        1 1BJ      0.066700
     30 H7         -0.1280    0.3470   -4.7750 hc        1 1BJ      0.078950
     31 H8          1.1480   -0.3550   -5.8470 hc        1 1BJ      0.078950
     32 H9          2.9000    1.0330   -4.7840 h1        1 1BJ      0.042700
     33 H10         0.6250    2.2000   -3.0180 hc        1 1BJ      0.078950
     34 H11         2.3730    2.6580   -2.9950 hc        1 1BJ      0.078950
     35 H12         3.0260    0.3860   -2.2380 hc        1 1BJ      0.066700
     36 H13         1.8090    1.1230   -1.1100 hc        1 1BJ      0.066700
     37 H14         1.6000    2.0820   -6.3340 ho        1 1BJ      0.416000
     38 H15         2.3250    0.8260    6.2530 h4        1 1BJ      0.080800
     39 H16         4.0460   -0.7570    1.2080 ha        1 1BJ      0.145000
     40 H17         6.4180   -0.4610    1.8360 ha        1 1BJ      0.147000
     41 H18         7.0800    0.3070    4.0960 ha        1 1BJ      0.156000
     42 H19         5.3500    0.8100    5.8370 ha        1 1BJ      0.160000
     43 H82         0.7560   -2.4210   -1.6900 hn        1 1BJ      0.466800
@<TRIPOS>BOND
     1    1    2 ar  
     2    1    4 ar  
     3    2    3 ar  
     4    2    8 1   
     5    3    6 ar  
     6    4    5 ar  
     7    4   24 1   
     8    5    6 ar  
     9    5   25 1   
    10    6    7 1   
    11    7   17 1   
    12    7   19 1   
    13    8    9 1   
    14    8   26 1   
    15    8   43 1   
    16    9   10 1   
    17    9   14 1   
    18    9   27 1   
    19   10   11 1   
    20   10   28 1   
    21   10   29 1   
    22   11   12 1   
    23   11   30 1   
    24   11   31 1   
    25   12   13 1   
    26   12   15 1   
    27   12   32 1   
    28   13   14 1   
    29   13   33 1   
    30   13   34 1   
    31   14   35 1   
    32   14   36 1   
    33   15   37 1   
    34   16   17 2   
    35   16   18 1   
    36   16   38 1   
    37   18   19 ar  
    38   18   23 ar  
    39   19   20 ar  
    40   20   21 ar  
    41   20   39 1   
    42   21   22 ar  
    43   21   40 1   
    44   22   23 ar  
    45   22   41 1   
    46   23   42 1   
@<TRIPOS>SUBSTRUCTURE
     1 1BJ         1 TEMP              0 ****  ****    0 ROOT
