@<TRIPOS>MOLECULE
1BJ
   42    45     1     0     0
SMALL
bcc


@<TRIPOS>ATOM
      1 N1         -0.2780   -0.2320   -0.0170 nb        1 1BJ     -0.748000
      2 C2          1.1090   -0.3330   -0.0230 ca        1 1BJ      0.885900
      3 N3          1.9080   -0.2990    1.1120 nb        1 1BJ     -0.794000
      4 C4         -0.8540   -0.1420    1.1910 ca        1 1BJ      0.467200
      5 C5         -0.1520   -0.1370    2.4040 ca        1 1BJ     -0.407600
      6 C6          1.2680   -0.2190    2.3120 ca        1 1BJ      0.603800
      7 N7          2.0550   -0.2290    3.4970 na        1 1BJ      0.035100
      8 N8          1.7790   -0.5640   -1.2400 nu        1 1BJ     -0.813900
      9 C9          1.1710   -0.1620   -2.4980 c3        1 1BJ      0.204500
     10 C10         1.9470   -0.7750   -3.6810 c3        1 1BJ     -0.092400
     11 C11         1.2510   -0.4510   -4.9840 c3        1 1BJ     -0.092900
     12 C12         1.1200    1.0580   -5.1760 c3        1 1BJ      0.139100
     13 C13         0.3930    1.6940   -3.9960 c3        1 1BJ     -0.092900
     14 C14         1.0880    1.3620   -2.6960 c3        1 1BJ     -0.092400
     15 O15         0.3530    1.3600   -6.3350 oh        1 1BJ     -0.597800
     16 C16         2.6040    0.3770    5.5340 cc        1 1BJ      0.373800
     17 N17         1.5970    0.3280    4.6550 nd        1 1BJ     -0.501100
     18 C18         3.8310   -0.1470    4.9390 ca        1 1BJ     -0.220900
     19 C19         3.4450   -0.5180    3.5970 ca        1 1BJ     -0.015200
     20 C20         4.3750   -1.0960    2.7260 ca        1 1BJ     -0.114000
     21 C21         5.6710   -1.2750    3.1990 ca        1 1BJ     -0.106000
     22 C22         6.0500   -0.9050    4.4990 ca        1 1BJ     -0.155000
     23 C23         5.1340   -0.3430    5.3810 ca        1 1BJ     -0.067000
     24 H1         -1.9580   -0.0690    1.1820 h4        1 1BJ      0.031100
     25 H2         -0.6770   -0.0670    3.3620 ha        1 1BJ      0.176000
     26 H3          2.7660   -0.4050   -1.2010 hn        1 1BJ      0.418800
     27 H4          0.1200   -0.5790   -2.5250 h1        1 1BJ      0.091700
     28 H5          2.9940   -0.3730   -3.7010 hc        1 1BJ      0.049950
     29 H6          2.0090   -1.8880   -3.5610 hc        1 1BJ      0.049950
     30 H7          1.8340   -0.8880   -5.8360 hc        1 1BJ      0.055700
     31 H8          0.2290   -0.9110   -5.0020 hc        1 1BJ      0.055700
     32 H9          2.1460    1.5140   -5.2850 h1        1 1BJ      0.031700
     33 H10         0.3610    2.8050   -4.1410 hc        1 1BJ      0.055700
     34 H11        -0.6660    1.3270   -3.9770 hc        1 1BJ      0.055700
     35 H12         0.5180    1.8230   -1.8480 hc        1 1BJ      0.049950
     36 H13         2.1200    1.8020   -2.6940 hc        1 1BJ      0.049950
     37 H14         0.7750    0.9070   -7.0740 ho        1 1BJ      0.399000
     38 H15         2.4760    0.7600    6.5480 h4        1 1BJ      0.058800
     39 H16         4.1070   -1.4030    1.7060 ha        1 1BJ      0.163000
     40 H17         6.4240   -1.7230    2.5320 ha        1 1BJ      0.135000
     41 H18         7.0880   -1.0680    4.8220 ha        1 1BJ      0.135000
     42 H19         5.4270   -0.0620    6.4020 ha        1 1BJ      0.139000
@<TRIPOS>BOND
     1    1    2 ar  
     2    1    4 ar  
     3    2    3 ar  
     4    2    8 1   
     5    3    6 ar  
     6    4    5 ar  
     7    4   24 1   
     8    5    6 ar  
     9    5   25 1   
    10    6    7 1   
    11    7   17 1   
    12    7   19 1   
    13    8    9 1   
    14    8   26 1   
    15    9   10 1   
    16    9   14 1   
    17    9   27 1   
    18   10   11 1   
    19   10   28 1   
    20   10   29 1   
    21   11   12 1   
    22   11   30 1   
    23   11   31 1   
    24   12   13 1   
    25   12   15 1   
    26   12   32 1   
    27   13   14 1   
    28   13   33 1   
    29   13   34 1   
    30   14   35 1   
    31   14   36 1   
    32   15   37 1   
    33   16   17 2   
    34   16   18 1   
    35   16   38 1   
    36   18   19 ar  
    37   18   23 ar  
    38   19   20 ar  
    39   20   21 ar  
    40   20   39 1   
    41   21   22 ar  
    42   21   40 1   
    43   22   23 ar  
    44   22   41 1   
    45   23   42 1   
@<TRIPOS>SUBSTRUCTURE
     1 1BJ         1 TEMP              0 ****  ****    0 ROOT
