@<TRIPOS>MOLECULE
1BJ
   42    45     1     0     0
SMALL
bcc


@<TRIPOS>ATOM
      1 N1         -1.1490    1.8530    0.8860 nb        1 1BJ     -0.749000
      2 C2         -0.7100    0.5710    0.5760 ca        1 1BJ      0.886900
      3 N3          0.6070    0.2340    0.2920 nb        1 1BJ     -0.795000
      4 C4         -0.2000    2.7980    0.9520 ca        1 1BJ      0.467200
      5 C5          1.1640    2.5670    0.7220 ca        1 1BJ     -0.408600
      6 C6          1.5300    1.2320    0.3850 ca        1 1BJ      0.603800
      7 N7          2.8950    0.9100    0.1460 na        1 1BJ      0.035100
      8 N8         -1.6230   -0.5000    0.6180 nh        1 1BJ     -0.814900
      9 C9         -3.0460   -0.2600    0.4410 c3        1 1BJ      0.205500
     10 C10        -3.8480   -1.5250    0.8050 c3        1 1BJ     -0.092400
     11 C11        -5.3320   -1.2420    0.7380 c3        1 1BJ     -0.092900
     12 C12        -5.7300   -0.7650   -0.6560 c3        1 1BJ      0.139100
     13 C13        -4.9180    0.4600   -1.0630 c3        1 1BJ     -0.092900
     14 C14        -3.4350    0.1800   -0.9820 c3        1 1BJ     -0.092400
     15 O15        -7.1180   -0.4650   -0.5970 oh        1 1BJ     -0.598800
     16 C16         4.9200    1.2530   -0.6270 cc        1 1BJ      0.373800
     17 N17         3.7820    1.8590   -0.2720 nd        1 1BJ     -0.501100
     18 C18         4.8010   -0.1940   -0.4750 ca        1 1BJ     -0.220900
     19 C19         3.4560   -0.3910    0.0140 ca        1 1BJ     -0.015200
     20 C20         2.9890   -1.6770    0.3090 ca        1 1BJ     -0.114000
     21 C21         3.8600   -2.7390    0.0940 ca        1 1BJ     -0.106000
     22 C22         5.1640   -2.5500   -0.3910 ca        1 1BJ     -0.154000
     23 C23         5.6470   -1.2780   -0.6750 ca        1 1BJ     -0.067000
     24 H1         -0.5610    3.8130    1.2070 h4        1 1BJ      0.030100
     25 H2          1.8960    3.3780    0.7960 ha        1 1BJ      0.176000
     26 H3         -1.2970   -1.3380    0.1790 hn        1 1BJ      0.419800
     27 H4         -3.3510    0.5590    1.1590 h1        1 1BJ      0.091700
     28 H5         -3.5880   -2.3580    0.1020 hc        1 1BJ      0.050200
     29 H6         -3.5840   -1.8570    1.8430 hc        1 1BJ      0.050200
     30 H7         -5.9080   -2.1700    0.9870 hc        1 1BJ      0.055950
     31 H8         -5.6150   -0.4580    1.4880 hc        1 1BJ      0.055950
     32 H9         -5.5650   -1.5930   -1.4040 h1        1 1BJ      0.031700
     33 H10        -5.1870    0.7560   -2.1100 hc        1 1BJ      0.055950
     34 H11        -5.1850    1.3170   -0.3910 hc        1 1BJ      0.055950
     35 H12        -2.8680    1.1070   -1.2600 hc        1 1BJ      0.050200
     36 H13        -3.1600   -0.6220   -1.7160 hc        1 1BJ      0.050200
     37 H14        -7.3570   -0.0850   -1.4500 ho        1 1BJ      0.400000
     38 H15         5.7940    1.8100   -0.9720 h4        1 1BJ      0.058800
     39 H16         1.9770   -1.8550    0.6980 ha        1 1BJ      0.163000
     40 H17         3.5170   -3.7620    0.3130 ha        1 1BJ      0.135000
     41 H18         5.8120   -3.4260   -0.5440 ha        1 1BJ      0.135000
     42 H19         6.6710   -1.1280   -1.0450 ha        1 1BJ      0.139000
@<TRIPOS>BOND
     1    1    2 ar  
     2    1    4 ar  
     3    2    3 ar  
     4    2    8 1   
     5    3    6 ar  
     6    4    5 ar  
     7    4   24 1   
     8    5    6 ar  
     9    5   25 1   
    10    6    7 1   
    11    7   17 1   
    12    7   19 1   
    13    8    9 1   
    14    8   26 1   
    15    9   10 1   
    16    9   14 1   
    17    9   27 1   
    18   10   11 1   
    19   10   28 1   
    20   10   29 1   
    21   11   12 1   
    22   11   30 1   
    23   11   31 1   
    24   12   13 1   
    25   12   15 1   
    26   12   32 1   
    27   13   14 1   
    28   13   33 1   
    29   13   34 1   
    30   14   35 1   
    31   14   36 1   
    32   15   37 1   
    33   16   17 2   
    34   16   18 1   
    35   16   38 1   
    36   18   19 ar  
    37   18   23 ar  
    38   19   20 ar  
    39   20   21 ar  
    40   20   39 1   
    41   21   22 ar  
    42   21   40 1   
    43   22   23 ar  
    44   22   41 1   
    45   23   42 1   
@<TRIPOS>SUBSTRUCTURE
     1 1BJ         1 TEMP              0 ****  ****    0 ROOT
