@<TRIPOS>MOLECULE
1BK
   58    61     1     0     0
SMALL
bcc


@<TRIPOS>ATOM
      1 N1         -4.9180   -0.4930    0.6810 nh        1 1BK     -0.814900
      2 C2         -4.1670    0.6930    0.5670 ca        1 1BK      0.885900
      3 N3         -4.8190    1.9200    0.6100 nb        1 1BK     -0.749000
      4 C4         -4.0290    3.0030    0.6270 ca        1 1BK      0.467200
      5 C5         -2.6280    2.9620    0.5970 ca        1 1BK     -0.405600
      6 C6         -2.0370    1.6670    0.5280 ca        1 1BK      0.603800
      7 N7         -2.7890    0.5320    0.4960 nb        1 1BK     -0.794000
      8 N8         -0.6200    1.5380    0.5010 na        1 1BK      0.034100
      9 N9          0.1730    2.5440    0.0230 nc        1 1BK     -0.511100
     10 C10         1.4240    2.0830   -0.0850 cd        1 1BK      0.402800
     11 C11         0.1310    0.3440    0.6720 ca        1 1BK      0.017800
     12 C12         1.4870    0.6820    0.3110 ca        1 1BK     -0.251900
     13 C13         2.4960   -0.2830    0.4130 ca        1 1BK      0.195100
     14 C14         2.1650   -1.5620    0.8690 ca        1 1BK     -0.238000
     15 C15         0.8420   -1.8630    1.2240 ca        1 1BK     -0.070000
     16 C16        -0.1900   -0.9370    1.1410 ca        1 1BK     -0.149000
     17 C17        -6.3210   -0.5110    0.3010 c3        1 1BK      0.205500
     18 C18        -6.9830   -1.8210    0.7720 c3        1 1BK     -0.092400
     19 C19        -8.4670   -1.7910    0.4860 c3        1 1BK     -0.092900
     20 C20        -8.7280   -1.5910   -1.0040 c3        1 1BK      0.139100
     21 C21        -8.0460   -0.3230   -1.5090 c3        1 1BK     -0.092900
     22 C22        -6.5640   -0.3490   -1.2100 c3        1 1BK     -0.092400
     23 O23       -10.1400   -1.5100   -1.1580 oh        1 1BK     -0.598800
     24 O24         3.7590    0.1290    0.0450 os        1 1BK     -0.322900
     25 C25         4.7970   -0.8510    0.1790 c3        1 1BK      0.136400
     26 C26         6.0720   -0.1540   -0.2630 c3        1 1BK     -0.065400
     27 C27         7.2480   -1.0970   -0.1640 c3        1 1BK     -0.317600
     28 S28         8.7020   -0.3340   -0.6530 s6        1 1BK      1.344000
     29 C29         9.7640   -1.6160   -0.3680 c3        1 1BK     -0.371300
     30 O30         8.6520   -0.0610   -2.0240 o         1 1BK     -0.648300
     31 O31         8.9980    0.7210    0.2160 o         1 1BK     -0.648300
     32 H1         -4.4200   -1.3220    0.4240 hn        1 1BK      0.419800
     33 H2         -4.5600    3.9740    0.6680 h4        1 1BK      0.031100
     34 H3         -2.0330    3.8810    0.6180 ha        1 1BK      0.177000
     35 H4          2.2580    2.7030   -0.4230 h4        1 1BK      0.066800
     36 H5          2.9300   -2.3440    0.9580 ha        1 1BK      0.137000
     37 H6          0.6160   -2.8800    1.5850 ha        1 1BK      0.135000
     38 H7         -1.2120   -1.2100    1.4350 ha        1 1BK      0.165000
     39 H8         -6.8350    0.3440    0.8350 h1        1 1BK      0.091700
     40 H9         -6.5140   -2.6960    0.2500 hc        1 1BK      0.049700
     41 H10        -6.8240   -1.9540    1.8740 hc        1 1BK      0.049700
     42 H11        -8.9380   -2.7530    0.8150 hc        1 1BK      0.055950
     43 H12        -8.9600   -0.9620    1.0590 hc        1 1BK      0.055950
     44 H13        -8.3460   -2.4810   -1.5810 h1        1 1BK      0.031700
     45 H14        -8.2040   -0.2280   -2.6150 hc        1 1BK      0.055950
     46 H15        -8.5220    0.5680   -1.0220 hc        1 1BK      0.055950
     47 H16        -6.0990    0.6060   -1.5680 hc        1 1BK      0.049700
     48 H17        -6.0810   -1.1950   -1.7650 hc        1 1BK      0.049700
     49 H18       -10.3070   -1.2980   -2.0830 ho        1 1BK      0.400000
     50 H19         4.8660   -1.1830    1.2480 h1        1 1BK      0.043700
     51 H20         4.5690   -1.7310   -0.4780 h1        1 1BK      0.043700
     52 H21         5.9510    0.2030   -1.3220 hc        1 1BK      0.080200
     53 H22         6.2440    0.7490    0.3840 hc        1 1BK      0.080200
     54 H23         7.3190   -1.4690    0.8930 h1        1 1BK      0.109200
     55 H24         7.0340   -2.0020   -0.7910 h1        1 1BK      0.109200
     56 H25         9.5040   -2.5440   -0.9330 h1        1 1BK      0.117700
     57 H26        10.8080   -1.3510   -0.6810 h1        1 1BK      0.117700
     58 H27         9.8320   -1.9030    0.7090 h1        1 1BK      0.117700
@<TRIPOS>BOND
     1    1    2 1   
     2    1   17 1   
     3    1   32 1   
     4    2    3 ar  
     5    2    7 ar  
     6    3    4 ar  
     7    4    5 ar  
     8    4   33 1   
     9    5    6 ar  
    10    5   34 1   
    11    6    7 ar  
    12    6    8 1   
    13    8    9 1   
    14    8   11 1   
    15    9   10 2   
    16   10   12 1   
    17   10   35 1   
    18   11   12 ar  
    19   11   16 ar  
    20   12   13 ar  
    21   13   14 ar  
    22   13   24 1   
    23   14   15 ar  
    24   14   36 1   
    25   15   16 ar  
    26   15   37 1   
    27   16   38 1   
    28   17   18 1   
    29   17   22 1   
    30   17   39 1   
    31   18   19 1   
    32   18   40 1   
    33   18   41 1   
    34   19   20 1   
    35   19   42 1   
    36   19   43 1   
    37   20   21 1   
    38   20   23 1   
    39   20   44 1   
    40   21   22 1   
    41   21   45 1   
    42   21   46 1   
    43   22   47 1   
    44   22   48 1   
    45   23   49 1   
    46   24   25 1   
    47   25   26 1   
    48   25   50 1   
    49   25   51 1   
    50   26   27 1   
    51   26   52 1   
    52   26   53 1   
    53   27   28 1   
    54   27   54 1   
    55   27   55 1   
    56   28   29 1   
    57   28   30 2   
    58   28   31 2   
    59   29   56 1   
    60   29   57 1   
    61   29   58 1   
@<TRIPOS>SUBSTRUCTURE
     1 1BK         1 TEMP              0 ****  ****    0 ROOT
