@<TRIPOS>MOLECULE
1BK
   58    54     1     0     0
SMALL
bcc


@<TRIPOS>ATOM
      1 N1         -2.4310    2.0060    3.4750 n3        1 1BK     -0.261000
      2 C2         -1.6600    0.8590    3.0340 c2        1 1BK      0.166000
      3 N3         -1.6000   -0.2600    3.8120 n2        1 1BK     -0.219000
      4 C4         -0.9050   -1.3120    3.4090 c1        1 1BK      0.004000
      5 C5         -0.2450   -1.2770    2.2100 c1        1 1BK     -0.232000
      6 C6         -0.3050   -0.1610    1.4340 c1        1 1BK      0.118500
      7 N7         -1.0060    0.8960    1.8430 n1        1 1BK     -0.225000
      8 N8          0.3110   -0.1530    0.1430 n3        1 1BK     -0.122000
      9 N9          1.5470    0.4900    0.0600 n2        1 1BK     -0.015000
     10 C10         2.0360    0.3070   -1.2010 c1        1 1BK     -0.110000
     11 C11         0.0510   -0.7270   -1.0710 c1        1 1BK      0.118500
     12 C12         1.1160   -0.4470   -1.9130 c1        1 1BK     -0.157000
     13 C13         1.0980   -0.9030   -3.2570 c1        1 1BK      0.153000
     14 C14         0.0230   -1.6230   -3.7250 c1        1 1BK     -0.150000
     15 C15        -1.0590   -1.9080   -2.8710 c1        1 1BK     -0.150000
     16 C16        -1.0420   -1.4600   -1.5470 c1        1 1BK     -0.232000
     17 C17        -3.0530    1.9920    4.7690 c3        1 1BK      0.011000
     18 C18        -4.4960    2.3590    4.6200 c3        1 1BK     -0.171500
     19 C19        -5.1900    2.5460    5.9630 c3        1 1BK     -0.171000
     20 C20        -4.4350    3.5040    6.8810 c3        1 1BK      0.028000
     21 C21        -2.9850    3.1360    7.0270 c3        1 1BK     -0.171000
     22 C22        -2.2960    2.9520    5.6920 c3        1 1BK     -0.171500
     23 O23        -5.0390    3.4860    8.1570 oh        1 1BK     -0.326000
     24 O24         2.1160   -0.6310   -4.2010 os        1 1BK     -0.204000
     25 C25         2.6880   -1.8140   -4.8020 c3        1 1BK     -0.014000
     26 C26         3.8510   -1.4010   -5.7640 c3        1 1BK     -0.144000
     27 C27         4.3610   -2.6330   -6.5040 c3        1 1BK     -0.857000
     28 S28         5.7520   -2.1830   -7.5310 s4        1 1BK      2.040800
     29 C29         6.3380   -3.5860   -8.4060 c2        1 1BK     -0.950000
     30 O30         5.4200   -1.1250   -8.4190 o         1 1BK     -0.535400
     31 O31         6.8140   -1.5700   -6.7430 o         1 1BK     -0.535400
     32 H1         -2.6290    2.6750    2.8850 hn        1 1BK      0.224000
     33 H2         -0.8610   -2.1520    3.9940 ha        1 1BK      0.167000
     34 H3          0.2710   -2.0580    1.9100 ha        1 1BK      0.156500
     35 H4          2.8760    0.6440   -1.5400 DU        1 1BK      0.196000
     36 H5          0.0110   -1.9390   -4.6600 ha        1 1BK      0.137000
     37 H6         -1.7900   -2.3980   -3.1900 ha        1 1BK      0.137000
     38 H7         -1.8020   -1.6610   -0.9460 ha        1 1BK      0.156500
     39 H8         -2.9930    1.0650    5.1480 h1        1 1BK      0.129000
     40 H9         -4.5600    3.2130    4.1020 hc        1 1BK      0.090750
     41 H10        -4.9500    1.6570    4.1250 hc        1 1BK      0.090750
     42 H11        -6.0840    2.8970    5.8100 hc        1 1BK      0.094750
     43 H12        -5.2640    1.6670    6.4100 hc        1 1BK      0.094750
     44 H13        -4.4980    4.4270    6.5060 h1        1 1BK      0.072000
     45 H14        -2.9210    2.2950    7.5360 hc        1 1BK      0.094750
     46 H15        -2.5170    3.8590    7.5350 hc        1 1BK      0.094750
     47 H16        -2.2240    3.8390    5.2430 hc        1 1BK      0.090750
     48 H17        -1.4070    2.6050    5.8440 hc        1 1BK      0.090750
     49 H18        -5.1820    4.2980    8.4200 ho        1 1BK      0.199000
     50 H19         3.0420   -2.4040   -4.0940 h1        1 1BK      0.083000
     51 H20         2.0190   -2.2750   -5.2940 h1        1 1BK      0.083000
     52 H21         3.5240   -0.7470   -6.4080 hc        1 1BK      0.119500
     53 H22         4.5580   -1.0200   -5.2600 hc        1 1BK      0.119500
     54 H23         4.6410   -3.3090   -5.8550 h1        1 1BK      0.148000
     55 H24         3.6440   -2.9960   -7.0650 h1        1 1BK      0.148000
     56 H25         6.7170   -4.2220   -7.7820 ha        1 1BK      0.157000
     57 H26         5.5770   -4.0140   -8.8990 ha        1 1BK      0.157000
     58 H27         7.0270   -3.3060   -9.0480 ha        1 1BK      0.157000
@<TRIPOS>BOND
     1    1    2 1   
     2    1   17 1   
     3    1   32 1   
     4    2    3 1   
     5    2    7 1   
     6    3    4 1   
     7    4   33 1   
     8    5    6 1   
     9    5   34 1   
    10    6    8 1   
    11    8    9 1   
    12    8   11 1   
    13    9   10 1   
    14   10   12 1   
    15   11   16 1   
    16   12   13 1   
    17   13   24 1   
    18   14   15 1   
    19   14   36 1   
    20   15   37 1   
    21   16   38 1   
    22   17   18 1   
    23   17   22 1   
    24   17   39 1   
    25   18   19 1   
    26   18   40 1   
    27   18   41 1   
    28   19   20 1   
    29   19   42 1   
    30   19   43 1   
    31   20   21 1   
    32   20   23 1   
    33   20   44 1   
    34   21   22 1   
    35   21   45 1   
    36   21   46 1   
    37   22   47 1   
    38   22   48 1   
    39   23   49 1   
    40   24   25 1   
    41   25   26 1   
    42   25   50 1   
    43   25   51 1   
    44   26   27 1   
    45   26   52 1   
    46   26   53 1   
    47   27   28 1   
    48   27   54 1   
    49   27   55 1   
    50   28   30 1   
    51   28   31 1   
    52   29   56 1   
    53   29   57 1   
    54   29   58 1   
@<TRIPOS>SUBSTRUCTURE
     1 1BK         1 TEMP              0 ****  ****    0 ROOT
