@<TRIPOS>MOLECULE
1BK
   58    61     1     0     0
SMALL
bcc


@<TRIPOS>ATOM
      1 N1          0.0760   -0.6160    0.2260 nh        1 1BK     -0.814900
      2 C2          1.4620   -0.3680    0.1790 ca        1 1BK      0.885900
      3 N3          2.1570   -0.1570    1.3650 nb        1 1BK     -0.749000
      4 C4          3.4900   -0.0580    1.2540 ca        1 1BK      0.467200
      5 C5          4.1910   -0.1450    0.0430 ca        1 1BK     -0.405600
      6 C6          3.4050   -0.3360   -1.1290 ca        1 1BK      0.603800
      7 N7          2.0470   -0.4320   -1.0780 nb        1 1BK     -0.794000
      8 N8          4.0410   -0.4420   -2.3980 na        1 1BK      0.034100
      9 N9          5.2610    0.1330   -2.6270 nc        1 1BK     -0.511100
     10 C10         5.5220    0.0660   -3.9370 cd        1 1BK      0.402800
     11 C11         3.4470   -0.8650   -3.6170 ca        1 1BK      0.017800
     12 C12         4.4120   -0.5600   -4.6460 ca        1 1BK     -0.251900
     13 C13         4.1410   -0.8970   -5.9780 ca        1 1BK      0.195100
     14 C14         2.9340   -1.5310   -6.2810 ca        1 1BK     -0.238000
     15 C15         2.0160   -1.8270   -5.2630 ca        1 1BK     -0.070000
     16 C16         2.2450   -1.5120   -3.9290 ca        1 1BK     -0.149000
     17 C17        -0.7170   -0.1360    1.3450 c3        1 1BK      0.205500
     18 C18        -2.1250   -0.7630    1.3070 c3        1 1BK     -0.092400
     19 C19        -2.9110   -0.3600    2.5340 c3        1 1BK     -0.092900
     20 C20        -3.0280    1.1580    2.6290 c3        1 1BK      0.139100
     21 C21        -1.6490    1.8100    2.6230 c3        1 1BK     -0.092900
     22 C22        -0.8580    1.3960    1.4030 c3        1 1BK     -0.092400
     23 O23        -3.7200    1.4330    3.8400 oh        1 1BK     -0.598800
     24 O24         5.1190   -0.5660   -6.8910 os        1 1BK     -0.322900
     25 C25         4.8530   -0.9380   -8.2500 c3        1 1BK      0.136400
     26 C26         6.0700   -0.4860   -9.0400 c3        1 1BK     -0.065400
     27 C27         5.9050   -0.8300  -10.5010 c3        1 1BK     -0.317600
     28 S28         7.2660   -0.3360  -11.4150 s6        1 1BK      1.344000
     29 C29         6.7790   -0.9190  -12.9240 c3        1 1BK     -0.371300
     30 O30         7.3290    1.0610  -11.4500 o         1 1BK     -0.648300
     31 O31         8.4010   -1.0330  -10.9880 o         1 1BK     -0.648300
     32 H1         -0.3850   -0.5380   -0.6580 hn        1 1BK      0.419800
     33 H2          4.0320    0.1020    2.2050 h4        1 1BK      0.031100
     34 H3          5.2830   -0.0610    0.0140 ha        1 1BK      0.177000
     35 H4          6.4510    0.4350   -4.3770 h4        1 1BK      0.066800
     36 H5          2.6870   -1.8070   -7.3150 ha        1 1BK      0.137000
     37 H6          1.0760   -2.3320   -5.5360 ha        1 1BK      0.135000
     38 H7          1.5040   -1.7670   -3.1600 ha        1 1BK      0.165000
     39 H8         -0.2140   -0.4790    2.2990 h1        1 1BK      0.091700
     40 H9         -2.0430   -1.8810    1.2730 hc        1 1BK      0.049700
     41 H10        -2.6660   -0.4300    0.3830 hc        1 1BK      0.049700
     42 H11        -3.9390   -0.8050    2.4900 hc        1 1BK      0.055950
     43 H12        -2.4160   -0.7480    3.4620 hc        1 1BK      0.055950
     44 H13        -3.6340    1.5500    1.7630 h1        1 1BK      0.031700
     45 H14        -1.7620    2.9250    2.6360 hc        1 1BK      0.055950
     46 H15        -1.1000    1.5150    3.5560 hc        1 1BK      0.055950
     47 H16         0.1570    1.8690    1.4430 hc        1 1BK      0.049700
     48 H17        -1.3710    1.7650    0.4760 hc        1 1BK      0.049700
     49 H18        -3.7210    2.3920    3.9490 ho        1 1BK      0.400000
     50 H19         3.9250   -0.4190   -8.6060 h1        1 1BK      0.043700
     51 H20         4.7170   -2.0490   -8.3160 h1        1 1BK      0.043700
     52 H21         6.2000    0.6230   -8.9150 hc        1 1BK      0.079700
     53 H22         6.9870   -0.9860   -8.6260 hc        1 1BK      0.079700
     54 H23         4.9660   -0.3450  -10.8780 h1        1 1BK      0.109200
     55 H24         5.7330   -1.9350  -10.5910 h1        1 1BK      0.109200
     56 H25         5.7960   -0.5120  -13.2630 h1        1 1BK      0.118033
     57 H26         7.5170   -0.6400  -13.7210 h1        1 1BK      0.118033
     58 H27         6.6970   -2.0330  -12.9610 h1        1 1BK      0.118033
@<TRIPOS>BOND
     1    1    2 1   
     2    1   17 1   
     3    1   32 1   
     4    2    3 ar  
     5    2    7 ar  
     6    3    4 ar  
     7    4    5 ar  
     8    4   33 1   
     9    5    6 ar  
    10    5   34 1   
    11    6    7 ar  
    12    6    8 1   
    13    8    9 1   
    14    8   11 1   
    15    9   10 2   
    16   10   12 1   
    17   10   35 1   
    18   11   12 ar  
    19   11   16 ar  
    20   12   13 ar  
    21   13   14 ar  
    22   13   24 1   
    23   14   15 ar  
    24   14   36 1   
    25   15   16 ar  
    26   15   37 1   
    27   16   38 1   
    28   17   18 1   
    29   17   22 1   
    30   17   39 1   
    31   18   19 1   
    32   18   40 1   
    33   18   41 1   
    34   19   20 1   
    35   19   42 1   
    36   19   43 1   
    37   20   21 1   
    38   20   23 1   
    39   20   44 1   
    40   21   22 1   
    41   21   45 1   
    42   21   46 1   
    43   22   47 1   
    44   22   48 1   
    45   23   49 1   
    46   24   25 1   
    47   25   26 1   
    48   25   50 1   
    49   25   51 1   
    50   26   27 1   
    51   26   52 1   
    52   26   53 1   
    53   27   28 1   
    54   27   54 1   
    55   27   55 1   
    56   28   29 1   
    57   28   30 2   
    58   28   31 2   
    59   29   56 1   
    60   29   57 1   
    61   29   58 1   
@<TRIPOS>SUBSTRUCTURE
     1 1BK         1 TEMP              0 ****  ****    0 ROOT
