@<TRIPOS>MOLECULE
1BK
   59    62     1     0     0
SMALL
bcc


@<TRIPOS>ATOM
      1 N1          0.3700   -1.4690    0.9370 n4        1 1BK     -0.745700
      2 C2          1.8090   -1.1160    0.7230 ca        1 1BK      0.738900
      3 N3          2.5520   -0.9070    1.8500 nb        1 1BK     -0.699000
      4 C4          3.8520   -0.6010    1.6170 ca        1 1BK      0.461200
      5 C5          4.4020   -0.5030    0.3400 ca        1 1BK     -0.320600
      6 C6          3.5360   -0.7430   -0.7860 ca        1 1BK      0.626800
      7 N7          2.2090   -1.0540   -0.5840 nb        1 1BK     -0.751000
      8 N8          4.0230   -0.6670   -2.0900 na        1 1BK      0.026100
      9 N9          5.3320   -0.2970   -2.3400 nc        1 1BK     -0.526100
     10 C10         5.5200   -0.2840   -3.6570 cd        1 1BK      0.464800
     11 C11         3.3240   -0.9030   -3.3170 ca        1 1BK      0.016800
     12 C12         4.2920   -0.6580   -4.3580 ca        1 1BK     -0.259900
     13 C13         3.9330   -0.8070   -5.7010 ca        1 1BK      0.224100
     14 C14         2.6180   -1.1990   -6.0040 ca        1 1BK     -0.222000
     15 C15         1.7010   -1.4330   -4.9800 ca        1 1BK     -0.049000
     16 C16         2.0240   -1.2940   -3.6260 ca        1 1BK     -0.168000
     17 C17        -0.4550   -0.2710    1.3550 c3        1 1BK      0.126500
     18 C18        -1.7890   -0.7350    1.9550 c3        1 1BK     -0.096400
     19 C19        -2.5620    0.4710    2.4430 c3        1 1BK     -0.100900
     20 C20        -2.7950    1.4790    1.3190 c3        1 1BK      0.141100
     21 C21        -1.4780    1.8870    0.6630 c3        1 1BK     -0.100900
     22 C22        -0.7110    0.6750    0.1780 c3        1 1BK     -0.096400
     23 O23        -3.3560    2.6740    1.8360 oh        1 1BK     -0.580800
     24 O24         4.9180   -0.5510   -6.6170 os        1 1BK     -0.315900
     25 C25         4.5620   -0.7100   -8.0030 c3        1 1BK      0.135400
     26 C26         5.8240   -0.3700   -8.7760 c3        1 1BK     -0.066400
     27 C27         5.5890   -0.5040  -10.2610 c3        1 1BK     -0.313600
     28 S28         7.0190   -0.1150  -11.1370 s6        1 1BK      1.345000
     29 C29         6.4430   -0.3760  -12.6960 c3        1 1BK     -0.378300
     30 O30         7.3090    1.2400  -10.9490 o         1 1BK     -0.644800
     31 O31         8.0090   -1.0510  -10.8250 o         1 1BK     -0.644800
     32 H1         -0.0170   -1.8600    0.0690 hn        1 1BK      0.466800
     33 H2          4.4630   -0.4310    2.5280 h4        1 1BK      0.070100
     34 H3          5.4670   -0.2510    0.2070 ha        1 1BK      0.211000
     35 H4          6.4790   -0.0240   -4.1210 h4        1 1BK      0.087800
     36 H5          2.3030   -1.3260   -7.0490 ha        1 1BK      0.155000
     37 H6          0.6770   -1.7420   -5.2480 ha        1 1BK      0.146000
     38 H7          1.2640   -1.4940   -2.8630 ha        1 1BK      0.147000
     39 H8          0.1370    0.2740    2.1530 hx        1 1BK      0.127700
     40 H9         -1.6130   -1.4300    2.8180 hc        1 1BK      0.066700
     41 H10        -2.3920   -1.2810    1.1820 hc        1 1BK      0.066700
     42 H11        -3.5500    0.1300    2.8520 hc        1 1BK      0.078950
     43 H12        -2.0110    0.9770    3.2800 hc        1 1BK      0.078950
     44 H13        -3.4850    1.0320    0.5480 h1        1 1BK      0.042700
     45 H14        -1.6940    2.5640   -0.2040 hc        1 1BK      0.078950
     46 H15        -0.8660    2.4730    1.3990 hc        1 1BK      0.078950
     47 H16         0.2590    1.0110   -0.2740 hc        1 1BK      0.066700
     48 H17        -1.3010    0.1480   -0.6190 hc        1 1BK      0.066700
     49 H18        -4.2390    2.4570    2.1610 ho        1 1BK      0.416000
     50 H19         4.2430   -1.7700   -8.1840 h1        1 1BK      0.050200
     51 H20         3.7260   -0.0070   -8.2550 h1        1 1BK      0.050200
     52 H21         6.6520   -1.0590   -8.4530 hc        1 1BK      0.083200
     53 H22         6.1370    0.6800   -8.5290 hc        1 1BK      0.083200
     54 H23         5.2500   -1.5490  -10.4840 h1        1 1BK      0.107700
     55 H24         4.7390    0.1650  -10.5570 h1        1 1BK      0.107700
     56 H25         6.1310   -1.4330  -12.8860 h1        1 1BK      0.123700
     57 H26         7.2320   -0.1520  -13.4620 h1        1 1BK      0.123700
     58 H27         5.5710    0.2690  -12.9660 h1        1 1BK      0.123700
     59 H121        0.3210   -2.1810    1.6780 hn        1 1BK      0.466800
@<TRIPOS>BOND
     1    1    2 1   
     2    1   17 1   
     3    1   32 1   
     4    1   59 1   
     5    2    3 ar  
     6    2    7 ar  
     7    3    4 ar  
     8    4    5 ar  
     9    4   33 1   
    10    5    6 ar  
    11    5   34 1   
    12    6    7 ar  
    13    6    8 1   
    14    8    9 1   
    15    8   11 1   
    16    9   10 2   
    17   10   12 1   
    18   10   35 1   
    19   11   12 ar  
    20   11   16 ar  
    21   12   13 ar  
    22   13   14 ar  
    23   13   24 1   
    24   14   15 ar  
    25   14   36 1   
    26   15   16 ar  
    27   15   37 1   
    28   16   38 1   
    29   17   18 1   
    30   17   22 1   
    31   17   39 1   
    32   18   19 1   
    33   18   40 1   
    34   18   41 1   
    35   19   20 1   
    36   19   42 1   
    37   19   43 1   
    38   20   21 1   
    39   20   23 1   
    40   20   44 1   
    41   21   22 1   
    42   21   45 1   
    43   21   46 1   
    44   22   47 1   
    45   22   48 1   
    46   23   49 1   
    47   24   25 1   
    48   25   26 1   
    49   25   50 1   
    50   25   51 1   
    51   26   27 1   
    52   26   52 1   
    53   26   53 1   
    54   27   28 1   
    55   27   54 1   
    56   27   55 1   
    57   28   29 1   
    58   28   30 2   
    59   28   31 2   
    60   29   56 1   
    61   29   57 1   
    62   29   58 1   
@<TRIPOS>SUBSTRUCTURE
     1 1BK         1 TEMP              0 ****  ****    0 ROOT
