@<TRIPOS>MOLECULE
1BL
   83    82     1     0     0
SMALL
bcc


@<TRIPOS>ATOM
      1 C2         -0.5760    0.6490    0.7540 c2        1 1BL     -0.143000
      2 C3          0.6630    0.1770    0.5660 c2        1 1BL     -0.147000
      3 C5         -1.2980    0.6670    4.5450 c2        1 1BL     -0.191000
      4 C4         -0.7530    0.0290    5.6090 c1        1 1BL      0.260000
      5 C10         2.2730    0.9600   -1.1720 c3        1 1BL      0.015000
      6 C11         2.9400    0.5760   -2.5260 c3        1 1BL     -0.015000
      7 C12         3.9690   -0.5470   -2.3060 c3        1 1BL     -0.133000
      8 C9          1.2110   -0.0840   -0.7870 c3        1 1BL     -0.139000
      9 C1         -1.1780    0.9220    2.0600 c2        1 1BL      0.109000
     10 C6         -0.7130    0.4150    3.2290 c2        1 1BL     -0.182000
     11 O24         3.8050    3.2770   -1.4250 o         1 1BL     -0.413000
     12 C18        -4.8810    4.9020    0.2180 c3        1 1BL     -0.226000
     13 C19        -3.7520    4.0100   -0.2200 c3        1 1BL     -0.201000
     14 C20        -2.4750    4.6820   -0.4860 c2        1 1BL      0.220000
     15 O41        -2.3490    5.9530   -0.2290 oh        1 1BL     -0.129000
     16 C21        -1.2160    3.9490   -1.0350 c2        1 1BL      0.324000
     17 O23        -0.1990    4.6870   -1.0350 o         1 1BL     -0.476500
     18 O22        -1.3280    2.7610   -1.3900 o         1 1BL     -0.476500
     19 N16         1.7460    2.2980   -1.2170 n         1 1BL     -0.400000
     20 F8         -2.3530    1.5210    4.6300 f         1 1BL     -0.080000
     21 F7         -2.2730    1.7240    2.0160 f         1 1BL     -0.110000
     22 O40         2.0250    0.0840   -3.4910 oh        1 1BL     -0.364000
     23 N13         4.6490   -0.9110   -3.5780 n4        1 1BL     -0.077000
     24 C14         7.3840    0.6230   -3.9510 c2        1 1BL     -0.078000
     25 C29         7.6340    1.5890   -2.8380 c3        1 1BL     -0.132000
     26 C28         6.8460    2.8740   -2.9910 c3        1 1BL     -0.167000
     27 C27         6.9520    3.4140   -4.4000 c3        1 1BL     -0.159000
     28 C26         6.4420    2.4130   -5.4170 c3        1 1BL     -0.135000
     29 C25         6.8570    1.0200   -5.1280 c2        1 1BL     -0.176000
     30 C30         7.8050   -0.7400   -3.6990 c2        1 1BL     -0.074000
     31 C35         7.3860   -1.8810   -4.5420 c2        1 1BL     -0.177000
     32 C34         7.1980   -3.0850   -3.9370 c2        1 1BL     -0.107000
     33 C36         6.5530   -4.2490   -4.6410 c3        1 1BL     -0.034000
     34 C39         5.5640   -4.9420   -3.7070 c3        1 1BL     -0.205000
     35 C38         5.7980   -3.8020   -5.8880 c3        1 1BL     -0.205000
     36 C37         7.6310   -5.2460   -5.0620 c3        1 1BL     -0.205000
     37 C33         7.6330   -3.3520   -2.5070 c3        1 1BL     -0.116000
     38 C32         8.7090   -2.3790   -2.1090 c2        1 1BL     -0.112000
     39 C31         8.5050   -1.1920   -2.6540 c1        1 1BL     -0.101000
     40 H1         -1.2270    0.8970   -0.1080 ha        1 1BL      0.173000
     41 H2          1.3470   -0.0380    1.4040 ha        1 1BL      0.129000
     42 H3          1.6920   -1.0980   -0.8020 hc        1 1BL      0.100500
     43 H4          3.1020    0.9390   -0.3980 h1        1 1BL      0.107000
     44 H5          3.4700    1.4840   -2.9470 h1        1 1BL      0.130000
     45 H6          4.7480   -0.1960   -1.5710 hx        1 1BL      0.150500
     46 H7          3.4570   -1.4700   -1.9120 hx        1 1BL      0.150500
     47 H8          0.3910   -0.0920   -1.5560 hc        1 1BL      0.100500
     48 H9          0.1690   -0.2450    3.2190 ha        1 1BL      0.156000
     49 H10        -5.7930    4.2870    0.4120 hc        1 1BL      0.101667
     50 H11        -4.6150    5.4500    1.1550 hc        1 1BL      0.101667
     51 H12        -5.1210    5.6550   -0.5720 hc        1 1BL      0.101667
     52 H13        -3.5290    3.2210    0.5670 hc        1 1BL      0.178500
     53 H14        -4.0190    3.4340   -1.1560 hc        1 1BL      0.178500
     54 H15        -1.4180    6.2580   -0.4350 ho        1 1BL      0.316000
     55 H17         2.0350    4.3740   -1.2260 h5        1 1BL      0.185000
     56 H18         1.2600    0.6770   -3.4980 ho        1 1BL      0.253000
     57 H19         3.9400   -1.1330   -4.2860 hn        1 1BL      0.263000
     58 H21         5.2200   -0.1160   -3.9160 hn        1 1BL      0.263000
     59 H22         8.7350    1.8210   -2.8250 hc        1 1BL      0.103500
     60 H23         7.3910    1.1090   -1.8530 hc        1 1BL      0.103500
     61 H24         7.2390    3.6340   -2.2660 hc        1 1BL      0.099000
     62 H25         5.7670    2.7030   -2.7280 hc        1 1BL      0.099000
     63 H26         6.3650    4.3650   -4.4860 hc        1 1BL      0.096500
     64 H27         8.0240    3.6590   -4.6240 hc        1 1BL      0.096500
     65 H28         5.3180    2.4500   -5.4540 hc        1 1BL      0.095500
     66 H29         6.8110    2.7000   -6.4390 hc        1 1BL      0.095500
     67 H30         6.7370    0.3160   -5.9680 ha        1 1BL      0.120000
     68 H31         7.1890   -1.7060   -5.6070 ha        1 1BL      0.153000
     69 H32         4.8180   -4.2080   -3.3170 hc        1 1BL      0.081778
     70 H33         5.0180   -5.7440   -4.2610 hc        1 1BL      0.081778
     71 H34         6.0900   -5.4130   -2.8430 hc        1 1BL      0.081778
     72 H35         5.0790   -2.9840   -5.6390 hc        1 1BL      0.081778
     73 H36         6.5040   -3.4380   -6.6730 hc        1 1BL      0.081778
     74 H37         5.2220   -4.6610   -6.3120 hc        1 1BL      0.081778
     75 H38         8.3850   -4.7470   -5.7160 hc        1 1BL      0.081778
     76 H39         7.1630   -6.0870   -5.6290 hc        1 1BL      0.081778
     77 H40         8.0850   -4.3800   -2.4460 hc        1 1BL      0.120000
     78 H41         8.1520   -5.6660   -4.1690 hc        1 1BL      0.081778
     79 H42         6.7370   -3.3350   -1.8330 hc        1 1BL      0.120000
     80 H43         9.5850   -2.7160   -1.5480 ha        1 1BL      0.179000
     81 C17         2.5710    3.3970   -1.2860 c2        1 1BL      0.265000
     82 H162        0.7570    2.4180   -1.1280 hn        1 1BL      0.275000
     83 H132        5.2710   -1.7220   -3.4460 hn        1 1BL      0.263000
@<TRIPOS>BOND
     1    1    2 1   
     2    1    9 1   
     3    1   40 1   
     4    2    8 1   
     5    2   41 1   
     6    3    4 1   
     7    3   10 1   
     8    3   20 1   
     9    5    6 1   
    10    5    8 1   
    11    5   19 1   
    12    5   43 1   
    13    6    7 1   
    14    6   22 1   
    15    6   44 1   
    16    7   23 1   
    17    7   45 1   
    18    7   46 1   
    19    8   42 1   
    20    8   47 1   
    21    9   10 1   
    22    9   21 1   
    23   10   48 1   
    24   11   81 1   
    25   12   13 1   
    26   12   49 1   
    27   12   50 1   
    28   12   51 1   
    29   13   14 1   
    30   13   52 1   
    31   13   53 1   
    32   14   15 1   
    33   14   16 1   
    34   15   54 1   
    35   16   17 1   
    36   16   18 1   
    37   19   81 1   
    38   19   82 1   
    39   22   56 1   
    40   23   57 1   
    41   23   58 1   
    42   23   83 1   
    43   24   25 1   
    44   24   29 1   
    45   24   30 1   
    46   25   26 1   
    47   25   59 1   
    48   25   60 1   
    49   26   27 1   
    50   26   61 1   
    51   26   62 1   
    52   27   28 1   
    53   27   63 1   
    54   27   64 1   
    55   28   29 1   
    56   28   65 1   
    57   28   66 1   
    58   29   67 1   
    59   30   31 1   
    60   30   39 1   
    61   31   32 1   
    62   31   68 1   
    63   32   33 1   
    64   32   37 1   
    65   33   34 1   
    66   33   35 1   
    67   33   36 1   
    68   34   69 1   
    69   34   70 1   
    70   34   71 1   
    71   35   72 1   
    72   35   73 1   
    73   35   74 1   
    74   36   75 1   
    75   36   76 1   
    76   36   78 1   
    77   37   38 1   
    78   37   77 1   
    79   37   79 1   
    80   38   39 1   
    81   38   80 1   
    82   55   81 1   
@<TRIPOS>SUBSTRUCTURE
     1 1BL         1 TEMP              0 ****  ****    0 ROOT
