@<TRIPOS>MOLECULE
1BL
   83    82     1     0     0
SMALL
bcc


@<TRIPOS>ATOM
      1 C2          0.5910   -2.3750    0.7260 c2        1 1BL     -0.145000
      2 C3          0.2420   -1.3730   -0.0900 c2        1 1BL     -0.146000
      3 C5         -2.1550   -2.7120    3.4120 c2        1 1BL     -0.189000
      4 C4         -3.4370   -2.2810    3.5020 c1        1 1BL      0.260000
      5 C10         1.2750    0.4590   -1.4190 c3        1 1BL     -0.031000
      6 C11         2.5070    0.7410   -2.3270 c3        1 1BL     -0.047000
      7 C12         3.8110    0.3760   -1.5860 c3        1 1BL     -0.171000
      8 C9          0.9960   -1.0540   -1.3270 c3        1 1BL     -0.137000
      9 C1         -0.1310   -2.7470    1.9450 c2        1 1BL      0.104000
     10 C6         -1.4030   -2.3560    2.2110 c2        1 1BL     -0.178000
     11 O24         1.6570    3.8920   -1.9950 o         1 1BL     -0.342000
     12 C18        -0.2590    5.2070   -1.3960 c3        1 1BL     -0.248000
     13 C19        -0.3970    6.2570   -0.3200 c3        1 1BL     -0.200000
     14 C20        -1.7700    6.5690    0.0970 c2        1 1BL      0.157000
     15 O41        -2.7780    6.0670   -0.5550 oh        1 1BL     -0.157000
     16 C21        -2.1190    7.5180    1.3600 c2        1 1BL      0.360000
     17 O23        -3.3570    7.6130    1.4580 o         1 1BL     -0.415000
     18 O22        -1.1340    7.9420    1.9650 o         1 1BL     -0.415000
     19 N16         0.0990    1.1980   -1.8050 n3        1 1BL     -0.339000
     20 F8         -1.5340   -3.4510    4.3700 f         1 1BL     -0.074000
     21 F7          0.5710   -3.5380    2.7930 f         1 1BL     -0.089000
     22 O40         2.4800    0.0910   -3.5800 oh        1 1BL     -0.337000
     23 N13         4.9980    0.5410   -2.4630 n4        1 1BL     -0.063000
     24 C14         7.6830    0.4730   -3.9730 c2        1 1BL     -0.160000
     25 C29         8.1890    1.4550   -2.9680 c3        1 1BL     -0.130000
     26 C28         7.9750    2.8860   -3.4200 c3        1 1BL     -0.154000
     27 C27         8.5140    3.0900   -4.8200 c3        1 1BL     -0.160000
     28 C26         7.8560    2.1550   -5.8150 c3        1 1BL     -0.146000
     29 C25         7.5820    0.8030   -5.2750 c2        1 1BL     -0.100000
     30 C30         7.3840   -0.8750   -3.4890 ca        1 1BL     -0.080000
     31 C35         6.3570   -1.6280   -4.0780 ca        1 1BL     -0.191000
     32 C34         6.0400   -2.9150   -3.6210 ca        1 1BL     -0.049000
     33 C36         4.9180   -3.6710   -4.2840 c3        1 1BL     -0.021000
     34 C39         3.6270   -2.8630   -4.1740 c3        1 1BL     -0.209000
     35 C38         5.2540   -3.8840   -5.7590 c3        1 1BL     -0.209000
     36 C37         4.6810   -5.0340   -3.6470 c3        1 1BL     -0.209000
     37 C33         6.7850   -3.4540   -2.5650 ca        1 1BL     -0.121000
     38 C32         7.8180   -2.7180   -1.9830 ca        1 1BL     -0.114000
     39 C31         8.1150   -1.4340   -2.4310 ca        1 1BL     -0.136000
     40 H1          1.4810   -2.9990    0.5240 ha        1 1BL      0.139000
     41 H2         -0.6340   -0.7310    0.1020 ha        1 1BL      0.155000
     42 H3          1.9680   -1.6150   -1.3570 hc        1 1BL      0.090000
     43 H4          1.5610    0.8240   -0.3850 h1        1 1BL      0.118000
     44 H5          2.5330    1.8450   -2.5870 h1        1 1BL      0.154000
     45 H6          3.9270    1.0390   -0.6840 hx        1 1BL      0.148500
     46 H7          3.7850   -0.7000   -1.2520 hx        1 1BL      0.148500
     47 H8          0.3880   -1.3980   -2.2110 hc        1 1BL      0.090000
     48 H9         -1.9410   -1.7280    1.4820 ha        1 1BL      0.155000
     49 H10         1.7940    5.9310   -1.8520 h4        1 1BL      0.113000
     50 H11        -0.8190    5.5240   -2.3200 hc        1 1BL      0.132500
     51 H12        -0.7140    4.2390   -1.0540 hc        1 1BL      0.132500
     52 H13         0.1540    5.9580    0.6210 hc        1 1BL      0.172500
     53 H14         0.0610    7.2410   -0.6420 hc        1 1BL      0.172500
     54 H15        -3.6360    6.3900   -0.1400 ho        1 1BL      0.326000
     55 H17        -0.2450    0.9040   -2.6970 hn        1 1BL      0.168500
     56 H18         2.0590   -0.7750   -3.4830 ho        1 1BL      0.228000
     57 H19         4.8200    0.0680   -3.3660 hn        1 1BL      0.263333
     58 H21         5.1840    1.5310   -2.6500 hn        1 1BL      0.263333
     59 H22         9.2910    1.2750   -2.8200 hc        1 1BL      0.085500
     60 H23         7.7010    1.2930   -1.9710 hc        1 1BL      0.085500
     61 H24         6.8800    3.1320   -3.3980 hc        1 1BL      0.077000
     62 H25         8.4910    3.5840   -2.7110 hc        1 1BL      0.077000
     63 H26         9.6220    2.9120   -4.8150 hc        1 1BL      0.101000
     64 H27         8.3490    4.1520   -5.1390 hc        1 1BL      0.101000
     65 H28         8.5130    2.0590   -6.7230 hc        1 1BL      0.106500
     66 H29         6.8820    2.5960   -6.1660 hc        1 1BL      0.106500
     67 H30         7.2760    0.0550   -6.0270 ha        1 1BL      0.138000
     68 H31         5.8220   -1.2200   -4.9520 ha        1 1BL      0.137000
     69 H32         3.3600   -2.6970   -3.1020 hc        1 1BL      0.081444
     70 H33         3.7330   -1.8690   -4.6740 hc        1 1BL      0.081444
     71 H34         2.7930   -3.4180   -4.6670 hc        1 1BL      0.081444
     72 H35         4.4370   -4.4630   -6.2530 hc        1 1BL      0.081444
     73 H36         6.2080   -4.4550   -5.8580 hc        1 1BL      0.081444
     74 H37         5.3650   -2.9060   -6.2860 hc        1 1BL      0.081444
     75 H38         5.5880   -5.6780   -3.7480 hc        1 1BL      0.081444
     76 H39         4.4250   -4.9290   -2.5660 hc        1 1BL      0.081444
     77 H40         3.8320   -5.5460   -4.1620 hc        1 1BL      0.081444
     78 H41         6.5810   -4.4690   -2.1900 ha        1 1BL      0.157000
     79 H42         8.4120   -3.1640   -1.1680 ha        1 1BL      0.155000
     80 H43         8.9460   -0.8700   -1.9770 ha        1 1BL      0.151000
     81 C17         1.1770    5.0080   -1.7720 c2        1 1BL      0.215000
     82 H162        0.2770    2.1840   -1.8110 hn        1 1BL      0.168500
     83 H132        5.8380    0.1180   -2.0410 hn        1 1BL      0.263333
@<TRIPOS>BOND
     1    1    2 1   
     2    1    9 1   
     3    1   40 1   
     4    2    8 1   
     5    2   41 1   
     6    3    4 1   
     7    3   10 1   
     8    3   20 1   
     9    5    6 1   
    10    5    8 1   
    11    5   19 1   
    12    5   43 1   
    13    6    7 1   
    14    6   22 1   
    15    6   44 1   
    16    7   23 1   
    17    7   45 1   
    18    7   46 1   
    19    8   42 1   
    20    8   47 1   
    21    9   10 1   
    22    9   21 1   
    23   10   48 1   
    24   11   81 1   
    25   12   13 1   
    26   12   50 1   
    27   12   51 1   
    28   12   81 1   
    29   13   14 1   
    30   13   52 1   
    31   13   53 1   
    32   14   15 1   
    33   14   16 1   
    34   15   54 1   
    35   16   17 1   
    36   16   18 1   
    37   19   55 1   
    38   19   82 1   
    39   22   56 1   
    40   23   57 1   
    41   23   58 1   
    42   23   83 1   
    43   24   25 1   
    44   24   29 1   
    45   24   30 1   
    46   25   26 1   
    47   25   59 1   
    48   25   60 1   
    49   26   27 1   
    50   26   61 1   
    51   26   62 1   
    52   27   28 1   
    53   27   63 1   
    54   27   64 1   
    55   28   29 1   
    56   28   65 1   
    57   28   66 1   
    58   29   67 1   
    59   30   31 1   
    60   30   39 1   
    61   31   32 1   
    62   31   68 1   
    63   32   33 1   
    64   32   37 1   
    65   33   34 1   
    66   33   35 1   
    67   33   36 1   
    68   34   69 1   
    69   34   70 1   
    70   34   71 1   
    71   35   72 1   
    72   35   73 1   
    73   35   74 1   
    74   36   75 1   
    75   36   76 1   
    76   36   77 1   
    77   37   38 1   
    78   37   78 1   
    79   38   39 1   
    80   38   79 1   
    81   39   80 1   
    82   49   81 1   
@<TRIPOS>SUBSTRUCTURE
     1 1BL         1 TEMP              0 ****  ****    0 ROOT
