@<TRIPOS>MOLECULE
1BL
   81    76     1     0     0
SMALL
bcc


@<TRIPOS>ATOM
      1 C2         -0.7130   -1.9520    4.7790 c1        1 1BL     -0.171000
      2 C3          0.1250   -1.1290    4.0160 c1        1 1BL     -0.013000
      3 C5         -0.2350    0.6640    5.5690 c1        1 1BL      0.114000
      4 C4          0.3590    0.1700    4.4130 c1        1 1BL     -0.189000
      5 C10         0.0050   -1.7010    1.5990 c3        1 1BL      0.017000
      6 C11         0.8030   -1.2660    0.3940 c3        1 1BL      0.019000
      7 C12        -0.0170   -0.2560   -0.4260 c3        1 1BL     -0.076000
      8 C9          0.8940   -1.7140    2.8210 c3        1 1BL     -0.157000
      9 C1         -1.3060   -1.4590    5.9320 c1        1 1BL      0.122000
     10 C6         -1.0690   -0.1540    6.3280 c2        1 1BL     -0.214000
     11 O24         1.5890   -4.0350    1.4380 o         1 1BL     -0.440000
     12 C17         0.3690   -4.1850    1.4510 c1        1 1BL      0.311000
     13 C18        -0.2290   -5.5930    1.5270 c2        1 1BL     -0.173000
     14 C19         0.9210   -6.6480    1.5770 c3        1 1BL     -0.175000
     15 C20         0.3410   -8.0490    1.3190 c3        1 1BL     -0.048000
     16 O41         0.1590   -8.2320   -0.0490 oh        1 1BL     -0.376000
     17 C21         1.3000   -9.1000    1.8480 c1        1 1BL      0.314000
     18 O23         0.9220   -9.9030    2.7780 o         1 1BL     -0.557000
     19 O22         2.4210   -9.2630    1.2940 os        1 1BL     -0.571000
     20 N16        -0.5190   -3.0120    1.3760 n3        1 1BL     -0.381000
     21 F8          0.0200    1.9140    5.9690 f         1 1BL     -0.109000
     22 F7         -2.0700   -2.2740    6.7050 f         1 1BL     -0.100000
     23 O40         1.9920   -0.6690    0.8140 oh        1 1BL     -0.364000
     24 N13         0.8640    0.7850   -0.9390 n3        1 1BL     -0.286000
     25 C14         0.2790    1.3590   -2.1760 c3        1 1BL      0.073000
     26 C29        -0.4880    0.2610   -2.9110 c3        1 1BL     -0.143000
     27 C28         0.4260   -0.7930   -3.4890 c3        1 1BL     -0.150500
     28 C27         1.5400   -0.1970   -4.3320 c3        1 1BL     -0.150000
     29 C26         2.3050    0.8970   -3.5980 c3        1 1BL     -0.150500
     30 C25         1.3900    1.9530   -3.0190 c3        1 1BL     -0.143000
     31 C30        -0.7000    2.4760   -1.7920 c2        1 1BL     -0.099000
     32 C35        -0.2850    3.8100   -1.8300 c2        1 1BL     -0.121000
     33 C34        -1.2090    4.8340   -1.6190 c1        1 1BL     -0.056000
     34 C36        -0.7630    6.3130   -1.7240 c3        1 1BL     -0.016000
     35 C39        -1.8560    7.1980   -1.2230 c3        1 1BL     -0.206333
     36 C38         0.4980    6.5260   -0.8760 c3        1 1BL     -0.206333
     37 C37        -0.4520    6.6580   -3.2140 c3        1 1BL     -0.206333
     38 C33        -2.5350    4.5290   -1.3720 c1        1 1BL     -0.134500
     39 C32        -2.9480    3.1980   -1.3340 c1        1 1BL     -0.134500
     40 C31        -2.0240    2.1740   -1.5450 c1        1 1BL     -0.129000
     41 H1         -0.8770   -2.8530    4.5040 ha        1 1BL      0.163000
     42 H2          0.9380    0.7380    3.8860 ha        1 1BL      0.150000
     43 H3         -0.7360   -1.0740    1.7420 h1        1 1BL      0.098000
     44 H4          1.0030   -2.0320   -0.1510 h1        1 1BL      0.100000
     45 H5         -0.4420   -0.7090   -1.1630 h1        1 1BL      0.081000
     46 H6         -0.6920    0.1430    0.1370 h1        1 1BL      0.081000
     47 H7          1.1550   -2.6180    3.0180 hc        1 1BL      0.119500
     48 H8          1.6960   -1.1710    2.6500 hc        1 1BL      0.119500
     49 H9         -1.4880    0.1940    7.1430 ha        1 1BL      0.160000
     50 H10        -0.7840   -5.7550    0.7380 ha        1 1BL      0.120500
     51 H11        -0.7730   -5.6690    2.3250 ha        1 1BL      0.120500
     52 H12         1.5960   -6.4360    0.8820 hc        1 1BL      0.091500
     53 H13         1.3490   -6.6280    2.4700 hc        1 1BL      0.091500
     54 H14        -0.5130   -8.1330    1.7740 h1        1 1BL      0.076000
     55 H15        -0.4720   -8.8580   -0.1880 ho        1 1BL      0.228000
     56 H17        -1.4270   -3.1280    1.2050 hn        1 1BL      0.246000
     57 H18         2.6970   -1.1220    0.4650 ho        1 1BL      0.245000
     58 H19         0.9610    1.4600   -0.2950 hn        1 1BL      0.168000
     59 H21        -1.1040   -0.1640   -2.2890 hc        1 1BL      0.080250
     60 H22        -0.9950    0.6620   -3.6280 hc        1 1BL      0.080250
     61 H23         0.8290   -1.3110   -2.7440 hc        1 1BL      0.083750
     62 H24        -0.1190   -1.4160   -4.0630 hc        1 1BL      0.083750
     63 H25         2.1550   -0.8980   -4.5750 hc        1 1BL      0.071000
     64 H26         1.1550    0.1780   -5.1430 hc        1 1BL      0.071000
     65 H27         2.9440    1.3370   -4.2410 hc        1 1BL      0.083750
     66 H28         2.8110    0.4950   -2.8800 hc        1 1BL      0.083750
     67 H29         0.9930    2.4610   -3.7500 hc        1 1BL      0.080250
     68 H30         1.9250    2.5660   -2.4580 hc        1 1BL      0.080250
     69 H31         0.6400    4.0200   -1.9670 ha        1 1BL      0.145000
     70 H32        -2.6530    7.0700   -1.7660 hc        1 1BL      0.077111
     71 H33        -2.0550    6.9740   -0.2910 hc        1 1BL      0.077111
     72 H34        -1.5660    8.1450   -1.2790 hc        1 1BL      0.077111
     73 H35         0.6760    7.5080   -0.7830 hc        1 1BL      0.077111
     74 H36         0.3610    6.1220    0.0350 hc        1 1BL      0.077111
     75 H37         1.2730    6.0900   -1.3200 hc        1 1BL      0.077111
     76 H38        -1.2120    6.3810   -3.7830 hc        1 1BL      0.077111
     77 H39         0.3450    6.1900   -3.4930 hc        1 1BL      0.077111
     78 H40        -0.3110    7.6240   -3.3040 hc        1 1BL      0.077111
     79 H41        -3.2000    5.2670   -1.2200 ha        1 1BL      0.127500
     80 H42        -3.8660    2.9870   -1.1630 ha        1 1BL      0.127500
     81 H43        -2.3200    1.2260   -1.5180 ha        1 1BL      0.131000
@<TRIPOS>BOND
     1    1    9 1   
     2    1   41 1   
     3    2    4 1   
     4    2    8 1   
     5    3   10 1   
     6    3   21 1   
     7    4   42 1   
     8    5    6 1   
     9    5    8 1   
    10    5   20 1   
    11    5   43 1   
    12    6    7 1   
    13    6   23 1   
    14    6   44 1   
    15    7   24 1   
    16    7   45 1   
    17    7   46 1   
    18    8   47 1   
    19    8   48 1   
    20    9   10 1   
    21   10   49 1   
    22   11   12 1   
    23   12   20 1   
    24   13   14 1   
    25   13   50 1   
    26   13   51 1   
    27   14   15 1   
    28   14   52 1   
    29   14   53 1   
    30   15   16 1   
    31   15   17 1   
    32   15   54 1   
    33   16   55 1   
    34   17   18 1   
    35   20   56 1   
    36   23   57 1   
    37   24   25 1   
    38   24   58 1   
    39   25   26 1   
    40   25   30 1   
    41   25   31 1   
    42   26   27 1   
    43   26   59 1   
    44   26   60 1   
    45   27   28 1   
    46   27   61 1   
    47   27   62 1   
    48   28   29 1   
    49   28   63 1   
    50   28   64 1   
    51   29   30 1   
    52   29   65 1   
    53   29   66 1   
    54   30   67 1   
    55   30   68 1   
    56   31   32 1   
    57   31   40 1   
    58   32   33 1   
    59   32   69 1   
    60   33   34 1   
    61   34   35 1   
    62   34   36 1   
    63   34   37 1   
    64   35   70 1   
    65   35   71 1   
    66   35   72 1   
    67   36   73 1   
    68   36   74 1   
    69   36   75 1   
    70   37   76 1   
    71   37   77 1   
    72   37   78 1   
    73   38   39 1   
    74   38   79 1   
    75   39   80 1   
    76   40   81 1   
@<TRIPOS>SUBSTRUCTURE
     1 1BL         1 TEMP              0 ****  ****    0 ROOT
