@<TRIPOS>MOLECULE
1BL
   83    83     1     0     0
SMALL
bcc


@<TRIPOS>ATOM
      1 C2         -0.7060   -0.8700    1.8540 c2        1 1BL     -0.223000
      2 C3          0.7260   -1.2890    1.5170 c3        1 1BL      0.043000
      3 C5          0.3060   -3.6830    2.5920 cu        1 1BL      0.099000
      4 C4          0.6130   -2.7490    1.6980 cu        1 1BL     -0.216000
      5 C10         1.8770    0.4650    0.0920 c3        1 1BL     -0.039000
      6 C11         2.4400    0.7230   -1.3390 c3        1 1BL     -0.038000
      7 C12         3.7360   -0.0840   -1.5370 c3        1 1BL     -0.134000
      8 C9          1.1390   -0.8820    0.1150 c3        1 1BL     -0.139000
      9 C1         -1.5420   -1.9310    2.0570 c2        1 1BL      0.063000
     10 C6         -0.8450   -3.2330    1.7570 cx        1 1BL     -0.133000
     11 O24        -1.8280    2.5830   -3.6010 o         1 1BL     -0.217000
     12 C18        -1.7610    6.8670   -2.2010 c3        1 1BL     -0.226000
     13 C19        -1.2980    5.4500   -2.0000 c3        1 1BL     -0.203000
     14 C20         0.1140    5.2880   -1.6380 c2        1 1BL      0.224000
     15 O41         0.8320    6.3400   -1.3570 oh        1 1BL     -0.125000
     16 C21         0.8280    3.9110   -1.5590 c2        1 1BL      0.324000
     17 O23         2.0210    4.0000   -1.1740 o         1 1BL     -0.487000
     18 O22         0.1860    2.8870   -1.8670 o         1 1BL     -0.487000
     19 N16         1.0620    1.5490    0.5890 n8        1 1BL     -0.332000
     20 F8          0.6830   -4.5480    3.4910 f         1 1BL     -0.014000
     21 F7         -2.8400   -1.8820    2.3750 f         1 1BL     -0.079000
     22 O40         1.5540    0.2980   -2.3610 oh        1 1BL     -0.373000
     23 N13         4.2240   -0.0200   -2.9400 nz        1 1BL     -0.074000
     24 C14         6.8180    1.1880   -4.1990 c2        1 1BL     -0.053000
     25 C29         7.4700    2.3770   -3.5710 c3        1 1BL     -0.135000
     26 C28         6.6470    3.6390   -3.7290 c3        1 1BL     -0.159000
     27 C27         6.1810    3.8070   -5.1580 c3        1 1BL     -0.161000
     28 C26         5.3360    2.6300   -5.6050 c3        1 1BL     -0.130000
     29 C25         5.8540    1.3240   -5.1340 c2        1 1BL     -0.210000
     30 C30         7.3190   -0.0990   -3.7680 c2        1 1BL     -0.076000
     31 C35         6.7880   -1.3790   -4.2830 c2        1 1BL     -0.181000
     32 C34         6.7350   -2.4350   -3.4280 c2        1 1BL     -0.092000
     33 C36         5.9900   -3.7010   -3.7550 c3        1 1BL     -0.034000
     34 C39         5.2050   -4.1760   -2.5360 c3        1 1BL     -0.205667
     35 C38         5.0070   -3.4880   -4.9020 c3        1 1BL     -0.205667
     36 C37         6.9860   -4.7830   -4.1660 c3        1 1BL     -0.205667
     37 C33         7.4270   -2.4200   -2.0760 c3        1 1BL     -0.119000
     38 C32         8.5320   -1.4000   -2.0760 c2        1 1BL     -0.106000
     39 C31         8.2070   -0.3410   -2.7970 c1        1 1BL     -0.108000
     40 H1         -0.9580    0.1880    1.9290 ha        1 1BL      0.170000
     41 H2          1.4350   -0.8540    2.2740 hc        1 1BL      0.128000
     42 H3          2.7710    0.3960    0.7840 h1        1 1BL      0.100000
     43 H4          4.5350    0.3220   -0.8570 hx        1 1BL      0.145500
     44 H5          2.6530    1.8270   -1.4700 h1        1 1BL      0.129000
     45 H6          3.5500   -1.1700   -1.2940 hx        1 1BL      0.145500
     46 H7          1.8250   -1.6640   -0.3040 hc        1 1BL      0.096500
     47 H8          0.2410   -0.8360   -0.5560 hc        1 1BL      0.096500
     48 H9         -1.3590   -3.9130    1.0640 hc        1 1BL      0.154000
     49 H10        -2.8500    6.8730   -2.4530 hc        1 1BL      0.103667
     50 H11        -1.6060    7.4720   -1.2750 hc        1 1BL      0.103667
     51 H12        -1.2000    7.3530   -3.0360 hc        1 1BL      0.103667
     52 H13        -1.8940    4.9420   -1.1800 hc        1 1BL      0.183000
     53 H14        -1.4770    4.8170   -2.9250 hc        1 1BL      0.183000
     54 H15         1.7650    6.0720   -1.1120 ho        1 1BL      0.316000
     55 H17         0.1950    1.6020    0.0870 hn        1 1BL      0.162500
     56 H18         0.7390    0.8250   -2.2830 ho        1 1BL      0.270000
     57 H19         3.4310   -0.1920   -3.5730 hn        1 1BL      0.262000
     58 H21         4.9550   -0.7290   -3.1060 hn        1 1BL      0.262000
     59 H22         8.4740    2.5180   -4.0590 hc        1 1BL      0.111000
     60 H23         7.6620    2.1780   -2.4820 hc        1 1BL      0.111000
     61 H24         5.7590    3.6030   -3.0440 hc        1 1BL      0.085000
     62 H25         7.2660    4.5240   -3.4260 hc        1 1BL      0.085000
     63 H26         7.0750    3.9010   -5.8300 hc        1 1BL      0.096500
     64 H27         5.5870    4.7520   -5.2580 hc        1 1BL      0.096500
     65 H28         5.2800    2.6190   -6.7280 hc        1 1BL      0.092500
     66 H29         4.2840    2.7560   -5.2280 hc        1 1BL      0.092500
     67 H30         5.4190    0.4450   -5.6380 ha        1 1BL      0.116000
     68 H31         6.4100   -1.4160   -5.3130 ha        1 1BL      0.157000
     69 H32         5.8910   -4.4850   -1.7120 hc        1 1BL      0.082222
     70 H33         4.5370   -3.3630   -2.1620 hc        1 1BL      0.082222
     71 H34         4.5740   -5.0570   -2.8100 hc        1 1BL      0.082222
     72 H35         4.3690   -4.3960   -5.0290 hc        1 1BL      0.082222
     73 H36         5.5480   -3.3090   -5.8620 hc        1 1BL      0.082222
     74 H37         4.3430   -2.6160   -4.6910 hc        1 1BL      0.082222
     75 H38         6.4340   -5.7090   -4.4570 hc        1 1BL      0.082222
     76 H39         7.5950   -4.4400   -5.0360 hc        1 1BL      0.082222
     77 H40         7.6730   -5.0300   -3.3220 hc        1 1BL      0.082222
     78 H41         6.6670   -2.2630   -1.2670 hc        1 1BL      0.123000
     79 H42         7.9090   -3.4220   -1.9000 hc        1 1BL      0.123000
     80 H43         9.5010   -1.6280   -1.6230 ha        1 1BL      0.179000
     81 C17        -1.3080    1.5440   -3.4420 c1        1 1BL      0.218000
     82 H162        1.5460    2.4240    0.4970 hn        1 1BL      0.162500
     83 H132        4.6150    0.9090   -3.1530 hn        1 1BL      0.262000
@<TRIPOS>BOND
     1    1    2 1   
     2    1    9 1   
     3    1   40 1   
     4    2    4 1   
     5    2    8 1   
     6    2   41 1   
     7    3    4 1   
     8    3   10 1   
     9    3   20 1   
    10    4   10 1   
    11    5    6 1   
    12    5    8 1   
    13    5   19 1   
    14    5   42 1   
    15    6    7 1   
    16    6   22 1   
    17    6   44 1   
    18    7   23 1   
    19    7   43 1   
    20    7   45 1   
    21    8   46 1   
    22    8   47 1   
    23    9   10 1   
    24    9   21 1   
    25   10   48 1   
    26   11   81 1   
    27   12   13 1   
    28   12   49 1   
    29   12   50 1   
    30   12   51 1   
    31   13   14 1   
    32   13   52 1   
    33   13   53 1   
    34   14   15 1   
    35   14   16 1   
    36   15   54 1   
    37   16   17 1   
    38   16   18 1   
    39   19   55 1   
    40   19   82 1   
    41   22   56 1   
    42   23   57 1   
    43   23   58 1   
    44   23   83 1   
    45   24   25 1   
    46   24   29 1   
    47   24   30 1   
    48   25   26 1   
    49   25   59 1   
    50   25   60 1   
    51   26   27 1   
    52   26   61 1   
    53   26   62 1   
    54   27   28 1   
    55   27   63 1   
    56   27   64 1   
    57   28   29 1   
    58   28   65 1   
    59   28   66 1   
    60   29   67 1   
    61   30   31 1   
    62   30   39 1   
    63   31   32 1   
    64   31   68 1   
    65   32   33 1   
    66   32   37 1   
    67   33   34 1   
    68   33   35 1   
    69   33   36 1   
    70   34   69 1   
    71   34   70 1   
    72   34   71 1   
    73   35   72 1   
    74   35   73 1   
    75   35   74 1   
    76   36   75 1   
    77   36   76 1   
    78   36   77 1   
    79   37   38 1   
    80   37   78 1   
    81   37   79 1   
    82   38   39 1   
    83   38   80 1   
@<TRIPOS>SUBSTRUCTURE
     1 1BL         1 TEMP              0 ****  ****    0 ROOT
