@<TRIPOS>MOLECULE
1BL
   81    83     1     0     0
SMALL
bcc


@<TRIPOS>ATOM
      1 C2          2.2840   -2.1480   -1.7860 ca        1 1BL     -0.171500
      2 C3          1.1400   -1.3930   -2.0510 ca        1 1BL     -0.015300
      3 C5          1.5240   -1.6420   -4.4320 ca        1 1BL      0.150400
      4 C4          0.7550   -1.1350   -3.3710 ca        1 1BL     -0.171500
      5 C10         0.7250    0.5580   -0.5190 c3        1 1BL      0.083700
      6 C11        -0.3990    1.2050    0.3400 c3        1 1BL      0.095100
      7 C12        -1.5490    1.6920   -0.5630 c3        1 1BL      0.126800
      8 C9          0.3110   -0.8720   -0.9300 c3        1 1BL     -0.059100
      9 C1          3.0470   -2.6520   -2.8560 ca        1 1BL      0.150400
     10 C6          2.6760   -2.4070   -4.1880 ca        1 1BL     -0.214000
     11 O24         2.8700    2.2380   -1.1290 o         1 1BL     -0.646100
     12 C18         4.2770    1.4500    0.6610 c3        1 1BL     -0.144400
     13 C19         4.2020    0.7560    2.0000 c3        1 1BL     -0.094400
     14 C20         5.5060    0.9060    2.7770 c3        1 1BL      0.013100
     15 O41         5.6950    2.2640    3.1360 oh        1 1BL     -0.647800
     16 C21         5.4740   -0.0290    4.0160 c         1 1BL      0.894600
     17 O23         5.5680    0.5300    5.1460 o         1 1BL     -0.831300
     18 O22         5.3540   -1.2680    3.8220 o         1 1BL     -0.831300
     19 N16         1.9940    0.5670    0.1590 n         1 1BL     -0.570900
     20 F8          1.1480   -1.3940   -5.7110 f         1 1BL     -0.139900
     21 F7          4.1540   -3.3900   -2.6030 f         1 1BL     -0.139900
     22 O40        -0.8590    0.3390    1.3600 oh        1 1BL     -0.601800
     23 N13        -2.6830    2.2200    0.1710 n3        1 1BL     -0.808200
     24 C14        -4.0030    1.7840   -0.3090 c3        1 1BL      0.236500
     25 C29        -4.2950    2.3860   -1.7040 c3        1 1BL     -0.063900
     26 C28        -4.3550    3.8990   -1.6760 c3        1 1BL     -0.071900
     27 C27        -5.4140    4.3880   -0.7100 c3        1 1BL     -0.072400
     28 C26        -5.1960    3.8130    0.6730 c3        1 1BL     -0.071900
     29 C25        -5.1160    2.3030    0.6430 c3        1 1BL     -0.063900
     30 C30        -4.1390    0.2620   -0.3420 ca        1 1BL     -0.110300
     31 C35        -3.9230   -0.4520    0.8440 ca        1 1BL     -0.139000
     32 C34        -4.0320   -1.8480    0.8950 ca        1 1BL     -0.063300
     33 C36        -3.7710   -2.5550    2.1990 c3        1 1BL     -0.012700
     34 C39        -2.3530   -2.2430    2.6720 c3        1 1BL     -0.088100
     35 C38        -4.7690   -2.0700    3.2480 c3        1 1BL     -0.088100
     36 C37        -3.9090   -4.0680    2.0760 c3        1 1BL     -0.088100
     37 C33        -4.3690   -2.5360   -0.2760 ca        1 1BL     -0.130000
     38 C32        -4.5790   -1.8370   -1.4620 ca        1 1BL     -0.134000
     39 C31        -4.4600   -0.4480   -1.5030 ca        1 1BL     -0.131000
     40 H1          2.6040   -2.3400   -0.7510 ha        1 1BL      0.157500
     41 H2         -0.1390   -0.5330   -3.5860 ha        1 1BL      0.157500
     42 H3          0.8280    1.1840   -1.4590 h1        1 1BL      0.096700
     43 H4          0.0210    2.0850    0.9120 h1        1 1BL      0.099700
     44 H5         -1.1550    2.5330   -1.2030 h1        1 1BL      0.047200
     45 H6         -1.8530    0.8550   -1.2560 h1        1 1BL      0.047200
     46 H7         -0.7660   -0.8520   -1.2480 hc        1 1BL      0.057200
     47 H8          0.3880   -1.5600   -0.0460 hc        1 1BL      0.057200
     48 H9          3.2760   -2.7980   -5.0190 ha        1 1BL      0.158000
     49 H10         5.0640    0.9650    0.0230 hc        1 1BL      0.079700
     50 H11         4.5830    2.5200    0.8200 hc        1 1BL      0.079700
     51 H12         3.3690    1.1880    2.6130 hc        1 1BL      0.051200
     52 H13         4.0220   -0.3460    1.8770 hc        1 1BL      0.051200
     53 H14         6.3760    0.6280    2.1220 h1        1 1BL      0.036700
     54 H15         5.6290    2.3110    4.1050 ho        1 1BL      0.428000
     55 H17         2.0420    0.0650    1.0160 hn        1 1BL      0.326500
     56 H18        -1.3230   -0.3980    0.9390 ho        1 1BL      0.400000
     57 H19        -2.5980    2.0000    1.1490 hn        1 1BL      0.371800
     58 H21        -3.5100    2.0560   -2.4330 hc        1 1BL      0.040950
     59 H22        -5.2870    1.9930   -2.0500 hc        1 1BL      0.040950
     60 H23        -3.3570    4.3170   -1.3830 hc        1 1BL      0.045700
     61 H24        -4.5880    4.2740   -2.7070 hc        1 1BL      0.045700
     62 H25        -5.3890    5.5070   -0.6600 hc        1 1BL      0.032200
     63 H26        -6.4290    4.0900   -1.0840 hc        1 1BL      0.032200
     64 H27        -4.2530    4.2360    1.1090 hc        1 1BL      0.045700
     65 H28        -6.0420    4.1200    1.3430 hc        1 1BL      0.045700
     66 H29        -6.0890    1.8800    0.2820 hc        1 1BL      0.040950
     67 H30        -4.9420    1.9160    1.6800 hc        1 1BL      0.040950
     68 H31        -3.6530    0.0940    1.7640 ha        1 1BL      0.141000
     69 H32        -2.2290   -1.1510    2.8710 hc        1 1BL      0.038922
     70 H33        -2.1340   -2.8010    3.6140 hc        1 1BL      0.038922
     71 H34        -1.6090   -2.5480    1.8970 hc        1 1BL      0.038922
     72 H35        -5.8120   -2.2920    2.9220 hc        1 1BL      0.038922
     73 H36        -4.5780   -2.5860    4.2200 hc        1 1BL      0.038922
     74 H37        -4.6700   -0.9690    3.4050 hc        1 1BL      0.038922
     75 H38        -3.1780   -4.4700    1.3340 hc        1 1BL      0.038922
     76 H39        -3.7040   -4.5450    3.0650 hc        1 1BL      0.038922
     77 H40        -4.9430   -4.3460    1.7590 hc        1 1BL      0.038922
     78 H41        -4.4680   -3.6310   -0.2800 ha        1 1BL      0.134000
     79 H42        -4.8370   -2.3870   -2.3800 ha        1 1BL      0.128000
     80 H43        -4.6180    0.0660   -2.4620 ha        1 1BL      0.134000
     81 C17         3.0030    1.4640   -0.1550 c         1 1BL      0.663100
@<TRIPOS>BOND
     1    1    2 ar  
     2    1    9 ar  
     3    1   40 1   
     4    2    4 ar  
     5    2    8 1   
     6    3    4 ar  
     7    3   10 ar  
     8    3   20 1   
     9    4   41 1   
    10    5    6 1   
    11    5    8 1   
    12    5   19 1   
    13    5   42 1   
    14    6    7 1   
    15    6   22 1   
    16    6   43 1   
    17    7   23 1   
    18    7   44 1   
    19    7   45 1   
    20    8   46 1   
    21    8   47 1   
    22    9   10 ar  
    23    9   21 1   
    24   10   48 1   
    25   11   81 2   
    26   12   13 1   
    27   12   49 1   
    28   12   50 1   
    29   12   81 1   
    30   13   14 1   
    31   13   51 1   
    32   13   52 1   
    33   14   15 1   
    34   14   16 1   
    35   14   53 1   
    36   15   54 1   
    37   16   17 1   
    38   16   18 1   
    39   19   55 1   
    40   19   81 1   
    41   22   56 1   
    42   23   24 1   
    43   23   57 1   
    44   24   25 1   
    45   24   29 1   
    46   24   30 1   
    47   25   26 1   
    48   25   58 1   
    49   25   59 1   
    50   26   27 1   
    51   26   60 1   
    52   26   61 1   
    53   27   28 1   
    54   27   62 1   
    55   27   63 1   
    56   28   29 1   
    57   28   64 1   
    58   28   65 1   
    59   29   66 1   
    60   29   67 1   
    61   30   31 ar  
    62   30   39 ar  
    63   31   32 ar  
    64   31   68 1   
    65   32   33 1   
    66   32   37 ar  
    67   33   34 1   
    68   33   35 1   
    69   33   36 1   
    70   34   69 1   
    71   34   70 1   
    72   34   71 1   
    73   35   72 1   
    74   35   73 1   
    75   35   74 1   
    76   36   75 1   
    77   36   76 1   
    78   36   77 1   
    79   37   38 ar  
    80   37   78 1   
    81   38   39 ar  
    82   38   79 1   
    83   39   80 1   
@<TRIPOS>SUBSTRUCTURE
     1 1BL         1 TEMP              0 ****  ****    0 ROOT
