@<TRIPOS>MOLECULE
1BM
   64    67     1     0     0
SMALL
bcc


@<TRIPOS>ATOM
      1 O21         2.9120   -3.4550   -0.9640 oh        1 1BM     -0.467100
      2 C17         3.7510   -2.5280   -0.4180 ca        1 1BM      0.173100
      3 C13         4.1290   -2.5130    0.9390 ca        1 1BM     -0.138000
      4 C16         4.9660   -1.5100    1.4060 ca        1 1BM     -0.059000
      5 C15         5.4550   -0.5020    0.5580 ca        1 1BM     -0.081300
      6 C19         6.3690    0.5290    1.1010 c3        1 1BM     -0.086800
      7 C14         4.2250   -1.5450   -1.3020 ca        1 1BM     -0.160000
      8 C11         5.0760   -0.5490   -0.7980 ca        1 1BM     -0.048400
      9 N3          5.6470    0.4190   -1.7520 n4        1 1BM     -0.627100
     10 C2          4.6100    1.2740   -2.3900 ca        1 1BM      0.632200
     11 N1          4.3140    1.0190   -3.6690 nb        1 1BM     -0.692000
     12 C9          4.0080    2.3150   -1.6170 ca        1 1BM     -0.422600
     13 C8          3.0590    3.0850   -2.3240 ca        1 1BM      0.590200
     14 N10         2.4210    4.2320   -1.6080 n4        1 1BM     -0.754700
     15 C27         0.9420    4.3670   -1.7990 c3        1 1BM      0.096800
     16 C30         0.5630    5.3390   -2.9400 c3        1 1BM      0.080800
     17 N34        -0.9010    5.6200   -3.0160 n4        1 1BM     -0.696400
     18 C36        -1.3290    6.6410   -1.9850 c3        1 1BM      0.113800
     19 C42        -2.8000    6.5520   -1.6400 c3        1 1BM     -0.143600
     20 C35        -1.2730    6.0950   -4.4060 c3        1 1BM      0.113800
     21 C38        -1.3800    4.9770   -5.4170 c3        1 1BM     -0.143600
     22 N6          2.7050    2.8940   -3.6070 nb        1 1BM     -0.779000
     23 C5          3.3500    1.8420   -4.2870 ca        1 1BM      0.860500
     24 N7          3.0250    1.6230   -5.5890 na        1 1BM     -0.163100
     25 C49         3.5010    0.6210   -6.5020 ca        1 1BM     -0.089200
     26 C54         4.3940   -0.4320   -6.3880 ca        1 1BM     -0.088000
     27 C53         2.8180    0.8870   -7.7580 ca        1 1BM      0.063400
     28 N51         1.9580    2.0180   -7.6110 nc        1 1BM     -0.428100
     29 C50         2.0840    2.4310   -6.3730 cd        1 1BM      0.412700
     30 C55         3.0520    0.0920   -8.8720 ca        1 1BM     -0.016000
     31 C56         3.9620   -0.9680   -8.7370 ca        1 1BM     -0.092000
     32 C58         4.6110   -1.2200   -7.5320 ca        1 1BM     -0.085000
     33 HO21        2.7320   -4.1510   -0.3060 ho        1 1BM      0.465000
     34 H13         3.7690   -3.3020    1.6230 ha        1 1BM      0.190000
     35 H16         5.2680   -1.5060    2.4700 ha        1 1BM      0.188000
     36 H191        6.4450    0.4460    2.2180 hc        1 1BM      0.069033
     37 H192        6.0060    1.5620    0.8680 hc        1 1BM      0.069033
     38 H193        7.4060    0.4020    0.6950 hc        1 1BM      0.069033
     39 H14         3.9330   -1.6030   -2.3630 ha        1 1BM      0.177000
     40 HN3         6.1580   -0.1200   -2.4770 hn        1 1BM      0.491300
     41 H9          4.2690    2.4750   -0.5620 ha        1 1BM      0.198000
     42 HN10        2.6060    4.1010   -0.6000 hn        1 1BM      0.486300
     43 H271        0.5240    4.7390   -0.8140 hx        1 1BM      0.131700
     44 H272        0.5110    3.3420   -2.0030 hx        1 1BM      0.131700
     45 H301        1.0930    6.3300   -2.8120 hx        1 1BM      0.127700
     46 H302        0.8840    4.8910   -3.9290 hx        1 1BM      0.127700
     47 H361       -0.7150    6.4700   -1.0560 hx        1 1BM      0.112700
     48 H362       -1.0840    7.6640   -2.3950 hx        1 1BM      0.112700
     49 H421       -3.0780    5.5510   -1.2290 hc        1 1BM      0.091867
     50 H422       -3.4570    6.7810   -2.5160 hc        1 1BM      0.091867
     51 H423       -3.0120    7.3220   -0.8500 hc        1 1BM      0.091867
     52 H351       -2.2760    6.6120   -4.3140 hx        1 1BM      0.112700
     53 H352       -0.5080    6.8580   -4.7270 hx        1 1BM      0.112700
     54 H381       -2.1400    4.2110   -5.1200 hc        1 1BM      0.091867
     55 H382       -0.4020    4.4720   -5.5990 hc        1 1BM      0.091867
     56 H383       -1.7200    5.4290   -6.3890 hc        1 1BM      0.091867
     57 H54         4.9310   -0.6720   -5.4620 ha        1 1BM      0.147000
     58 H50         1.5770    3.2900   -5.9200 h5        1 1BM      0.071800
     59 H55         2.5420    0.2850   -9.8310 ha        1 1BM      0.193000
     60 H56         4.1650   -1.6130   -9.6120 ha        1 1BM      0.186000
     61 H58         5.3210   -2.0630   -7.4630 ha        1 1BM      0.174000
     62 H32         6.3160    1.0360   -1.2640 hn        1 1BM      0.491300
     63 H102        2.8980    5.0960   -1.9170 hn        1 1BM      0.486300
     64 H341       -1.4210    4.7480   -2.8400 hn        1 1BM      0.452800
@<TRIPOS>BOND
     1    1    2 1   
     2    1   33 1   
     3    2    3 ar  
     4    2    7 ar  
     5    3    4 ar  
     6    3   34 1   
     7    4    5 ar  
     8    4   35 1   
     9    5    6 1   
    10    5    8 ar  
    11    6   36 1   
    12    6   37 1   
    13    6   38 1   
    14    7    8 ar  
    15    7   39 1   
    16    8    9 1   
    17    9   10 1   
    18    9   40 1   
    19    9   62 1   
    20   10   11 ar  
    21   10   12 ar  
    22   11   23 ar  
    23   12   13 ar  
    24   12   41 1   
    25   13   14 1   
    26   13   22 ar  
    27   14   15 1   
    28   14   42 1   
    29   14   63 1   
    30   15   16 1   
    31   15   43 1   
    32   15   44 1   
    33   16   17 1   
    34   16   45 1   
    35   16   46 1   
    36   17   18 1   
    37   17   20 1   
    38   17   64 1   
    39   18   19 1   
    40   18   47 1   
    41   18   48 1   
    42   19   49 1   
    43   19   50 1   
    44   19   51 1   
    45   20   21 1   
    46   20   52 1   
    47   20   53 1   
    48   21   54 1   
    49   21   55 1   
    50   21   56 1   
    51   22   23 ar  
    52   23   24 1   
    53   24   25 1   
    54   24   29 1   
    55   25   26 ar  
    56   25   27 ar  
    57   26   32 ar  
    58   26   57 1   
    59   27   28 1   
    60   27   30 ar  
    61   28   29 2   
    62   29   58 1   
    63   30   31 ar  
    64   30   59 1   
    65   31   32 ar  
    66   31   60 1   
    67   32   61 1   
@<TRIPOS>SUBSTRUCTURE
     1 1BM         1 TEMP              0 ****  ****    0 ROOT
