@<TRIPOS>MOLECULE
1BM
   61    64     1     0     0
SMALL
bcc


@<TRIPOS>ATOM
      1 O21         2.9990    3.1600   -2.9830 oh        1 1BM     -0.495100
      2 C17         2.3030    3.5270   -1.8550 ca        1 1BM      0.147100
      3 C13         2.6590    4.7500   -1.2680 ca        1 1BM     -0.173000
      4 C16         1.9760    5.1670   -0.1340 ca        1 1BM     -0.075000
      5 C15         0.9590    4.3980    0.4400 ca        1 1BM     -0.138300
      6 C19         0.2590    4.8920    1.6480 c3        1 1BM     -0.046800
      7 C14         1.2860    2.7320   -1.3160 ca        1 1BM     -0.255000
      8 C11         0.6120    3.1540   -0.1520 ca        1 1BM      0.178600
      9 N3         -0.4050    2.3840    0.4480 nh        1 1BM     -0.732300
     10 C2         -0.5940    1.0230    0.1650 ca        1 1BM      0.723200
     11 N1         -1.8890    0.5650    0.1190 nb        1 1BM     -0.810000
     12 C9          0.5150    0.1500    0.0280 ca        1 1BM     -0.478600
     13 C8          0.2440   -1.2360   -0.1590 ca        1 1BM      0.721200
     14 N10         1.2820   -2.1380   -0.3950 nh        1 1BM     -0.847900
     15 C27         2.6120   -1.8150    0.0680 c3        1 1BM      0.192800
     16 C30         3.5240   -3.0650    0.1190 c3        1 1BM      0.165800
     17 N34         4.8700   -2.7200    0.5450 n3        1 1BM     -0.747600
     18 C36         5.0030   -2.6530    1.9950 c3        1 1BM      0.175300
     19 C42         6.1340   -1.7530    2.4680 c3        1 1BM     -0.095100
     20 C35         5.9000   -3.5330   -0.0870 c3        1 1BM      0.175300
     21 C38         6.1490   -3.1890   -1.5470 c3        1 1BM     -0.095100
     22 N6         -1.0400   -1.7230   -0.1780 nb        1 1BM     -0.821000
     23 C5         -2.0480   -0.7910   -0.0430 ca        1 1BM      0.824500
     24 N7         -3.3680   -1.2950   -0.0780 na        1 1BM     -0.213100
     25 C49        -4.5910   -0.6000    0.0730 ca        1 1BM     -0.044200
     26 C54        -4.9270    0.7360    0.2960 ca        1 1BM     -0.107000
     27 C53        -5.6270   -1.6140   -0.0500 ca        1 1BM      0.064400
     28 N51        -5.0300   -2.8810   -0.2710 nc        1 1BM     -0.563100
     29 C50        -3.7180   -2.6650   -0.2820 cd        1 1BM      0.461700
     30 C55        -6.9730   -1.2550    0.0530 ca        1 1BM     -0.075000
     31 C56        -7.2820    0.0820    0.2750 ca        1 1BM     -0.147000
     32 C58        -6.2790    1.0530    0.3930 ca        1 1BM     -0.124000
     33 HO21        2.6460    2.3130   -3.2940 ho        1 1BM      0.422000
     34 H13         3.4610    5.3560   -1.7120 ha        1 1BM      0.154000
     35 H16         2.2440    6.1290    0.3310 ha        1 1BM      0.138000
     36 H191       -0.8250    5.0730    1.4300 hc        1 1BM      0.044700
     37 H192        0.3300    4.1470    2.4800 hc        1 1BM      0.044700
     38 H193        0.7040    5.8540    2.0040 hc        1 1BM      0.044700
     39 H14         1.0140    1.7880   -1.8120 ha        1 1BM      0.148000
     40 HN3        -1.2220    2.9060    0.6990 hn        1 1BM      0.444800
     41 H9          1.5410    0.5320    0.0780 ha        1 1BM      0.170000
     42 HN10        1.0400   -3.1070   -0.3800 hn        1 1BM      0.427800
     43 H271        2.5740   -1.3340    1.0880 h1        1 1BM      0.055200
     44 H272        3.0550   -1.0640   -0.6480 h1        1 1BM      0.055200
     45 H301        3.5670   -3.5150   -0.9140 h1        1 1BM      0.039700
     46 H302        3.0560   -3.8340    0.8020 h1        1 1BM      0.039700
     47 H361        5.1520   -3.6830    2.4380 h1        1 1BM      0.030950
     48 H362        4.0390   -2.2480    2.4170 h1        1 1BM      0.030950
     49 H421        6.0420   -0.7290    2.0320 hc        1 1BM      0.040533
     50 H422        6.0830   -1.6740    3.5810 hc        1 1BM      0.040533
     51 H423        7.1320   -2.1660    2.1890 hc        1 1BM      0.040533
     52 H351        6.8630   -3.3690    0.4770 h1        1 1BM      0.030950
     53 H352        5.6550   -4.6340   -0.0130 h1        1 1BM      0.030950
     54 H381        7.0130   -3.7940   -1.9130 hc        1 1BM      0.040533
     55 H382        5.2620   -3.4220   -2.1830 hc        1 1BM      0.040533
     56 H383        6.3930   -2.1060   -1.6680 hc        1 1BM      0.040533
     57 H54        -4.1670    1.5230    0.3930 ha        1 1BM      0.158000
     58 H50        -2.9480   -3.4360   -0.4320 h5        1 1BM      0.090800
     59 H55        -7.7610   -2.0160   -0.0400 ha        1 1BM      0.149000
     60 H56        -8.3360    0.3860    0.3590 ha        1 1BM      0.133000
     61 H58        -6.5680    2.1010    0.5690 ha        1 1BM      0.132000
@<TRIPOS>BOND
     1    1    2 1   
     2    1   33 1   
     3    2    3 ar  
     4    2    7 ar  
     5    3    4 ar  
     6    3   34 1   
     7    4    5 ar  
     8    4   35 1   
     9    5    6 1   
    10    5    8 ar  
    11    6   36 1   
    12    6   37 1   
    13    6   38 1   
    14    7    8 ar  
    15    7   39 1   
    16    8    9 1   
    17    9   10 1   
    18    9   40 1   
    19   10   11 ar  
    20   10   12 ar  
    21   11   23 ar  
    22   12   13 ar  
    23   12   41 1   
    24   13   14 1   
    25   13   22 ar  
    26   14   15 1   
    27   14   42 1   
    28   15   16 1   
    29   15   43 1   
    30   15   44 1   
    31   16   17 1   
    32   16   45 1   
    33   16   46 1   
    34   17   18 1   
    35   17   20 1   
    36   18   19 1   
    37   18   47 1   
    38   18   48 1   
    39   19   49 1   
    40   19   50 1   
    41   19   51 1   
    42   20   21 1   
    43   20   52 1   
    44   20   53 1   
    45   21   54 1   
    46   21   55 1   
    47   21   56 1   
    48   22   23 ar  
    49   23   24 1   
    50   24   25 1   
    51   24   29 1   
    52   25   26 ar  
    53   25   27 ar  
    54   26   32 ar  
    55   26   57 1   
    56   27   28 1   
    57   27   30 ar  
    58   28   29 2   
    59   29   58 1   
    60   30   31 ar  
    61   30   59 1   
    62   31   32 ar  
    63   31   60 1   
    64   32   61 1   
@<TRIPOS>SUBSTRUCTURE
     1 1BM         1 TEMP              0 ****  ****    0 ROOT
