@<TRIPOS>MOLECULE
1BM
   62    65     1     0     0
SMALL
bcc


@<TRIPOS>ATOM
      1 O21        -0.3290    0.4140   -0.1250 oh        1 1BM     -0.524100
      2 C17         1.0350    0.2770    0.0380 ca        1 1BM      0.126100
      3 C13         1.6100   -0.1380    1.2440 ca        1 1BM     -0.214000
      4 C16         2.9970   -0.1980    1.3350 ca        1 1BM     -0.065000
      5 C15         3.8200    0.1550    0.2630 ca        1 1BM     -0.122300
      6 C19         5.2920    0.0720    0.4130 c3        1 1BM     -0.057800
      7 C14         1.8230    0.6150   -1.0690 ca        1 1BM     -0.219000
      8 C11         3.2260    0.5730   -0.9610 ca        1 1BM      0.166600
      9 N3          4.0750    0.9260   -2.0300 nu        1 1BM     -0.724300
     10 C2          3.6040    1.5260   -3.2070 ca        1 1BM      0.731200
     11 N1          4.1380    1.1000   -4.3920 nb        1 1BM     -0.781000
     12 C9          2.6730    2.6070   -3.1510 ca        1 1BM     -0.466600
     13 C8          2.3180    3.2160   -4.3780 ca        1 1BM      0.673200
     14 N10         1.3140    4.2330   -4.3880 nu        1 1BM     -0.853900
     15 C27         1.5820    5.3970   -3.5730 c3        1 1BM      0.154800
     16 C30         0.2920    5.9210   -2.9070 c3        1 1BM      0.098800
     17 N34        -0.3730    4.9220   -2.0110 nx        1 1BM     -0.687400
     18 C36         0.2810    4.9140   -0.6580 c3        1 1BM      0.111800
     19 C42        -0.0200    3.6770    0.1610 c3        1 1BM     -0.136100
     20 C35        -1.8440    5.2030   -1.8950 c3        1 1BM      0.111800
     21 C38        -2.6450    4.7310   -3.0900 c3        1 1BM     -0.136100
     22 N6          2.8460    2.8270   -5.5700 nb        1 1BM     -0.798000
     23 C5          3.7460    1.7700   -5.5320 ca        1 1BM      0.840500
     24 N7          4.2850    1.3630   -6.7580 na        1 1BM     -0.218100
     25 C49         5.2260    0.3320   -7.0230 ca        1 1BM     -0.049200
     26 C54         5.9070   -0.5850   -6.2260 ca        1 1BM     -0.110000
     27 C53         5.4230    0.3550   -8.4630 ca        1 1BM      0.066400
     28 N51         4.6180    1.3740   -9.0400 nc        1 1BM     -0.532100
     29 C50         3.9700    1.9420   -8.0350 cd        1 1BM      0.455700
     30 C55         6.3010   -0.5460   -9.0650 ca        1 1BM     -0.063000
     31 C56         6.9720   -1.4530   -8.2480 ca        1 1BM     -0.136000
     32 C58         6.7770   -1.4700   -6.8620 ca        1 1BM     -0.113000
     33 HO21       -0.7630   -0.1300    0.5490 ho        1 1BM      0.434000
     34 H13         0.9800   -0.4240    2.0970 ha        1 1BM      0.148000
     35 H16         3.4600   -0.5330    2.2780 ha        1 1BM      0.151000
     36 H191        5.7150   -0.7040   -0.2750 hc        1 1BM      0.053700
     37 H192        5.7730    1.0540    0.1770 hc        1 1BM      0.053700
     38 H193        5.5740   -0.2080    1.4590 hc        1 1BM      0.053700
     39 H14         1.3230    0.8710   -2.0140 ha        1 1BM      0.153000
     40 HN3         4.8690    0.3200   -2.1340 hn        1 1BM      0.454800
     41 H9          2.2630    2.9430   -2.1930 ha        1 1BM      0.145000
     42 HN10        1.0310    4.4880   -5.3190 hn        1 1BM      0.419800
     43 H271        2.3510    5.1610   -2.7830 h1        1 1BM      0.083200
     44 H272        1.9810    6.2620   -4.1830 h1        1 1BM      0.083200
     45 H301       -0.4480    6.2160   -3.7060 hx        1 1BM      0.103200
     46 H302        0.5460    6.8340   -2.2980 hx        1 1BM      0.103200
     47 H361       -0.0580    5.8390   -0.1110 hx        1 1BM      0.097950
     48 H362        1.3950    4.9820   -0.8250 hx        1 1BM      0.097950
     49 H421        0.2830    2.7360   -0.3690 hc        1 1BM      0.079533
     50 H422        0.5710    3.7450    1.1100 hc        1 1BM      0.079533
     51 H423       -1.1010    3.6010    0.4310 hc        1 1BM      0.079533
     52 H351       -2.2180    4.6770   -0.9680 hx        1 1BM      0.097950
     53 H352       -1.9720    6.3130   -1.7480 hx        1 1BM      0.097950
     54 H381       -3.7260    4.9410   -2.8850 hc        1 1BM      0.079533
     55 H382       -2.3590    5.2670   -4.0270 hc        1 1BM      0.079533
     56 H383       -2.5300    3.6310   -3.2560 hc        1 1BM      0.079533
     57 H54         5.7800   -0.6300   -5.1360 ha        1 1BM      0.155000
     58 H50         3.2550    2.7730   -8.1240 h5        1 1BM      0.088800
     59 H55         6.4560   -0.5350  -10.1540 ha        1 1BM      0.159000
     60 H56         7.6700   -2.1740   -8.7020 ha        1 1BM      0.145000
     61 H58         7.3270   -2.2050   -6.2520 ha        1 1BM      0.140000
     62 H341       -0.2630    3.9820   -2.4250 hn        1 1BM      0.467800
@<TRIPOS>BOND
     1    1    2 1   
     2    1   33 1   
     3    2    3 ar  
     4    2    7 ar  
     5    3    4 ar  
     6    3   34 1   
     7    4    5 ar  
     8    4   35 1   
     9    5    6 1   
    10    5    8 ar  
    11    6   36 1   
    12    6   37 1   
    13    6   38 1   
    14    7    8 ar  
    15    7   39 1   
    16    8    9 1   
    17    9   10 1   
    18    9   40 1   
    19   10   11 ar  
    20   10   12 ar  
    21   11   23 ar  
    22   12   13 ar  
    23   12   41 1   
    24   13   14 1   
    25   13   22 ar  
    26   14   15 1   
    27   14   42 1   
    28   15   16 1   
    29   15   43 1   
    30   15   44 1   
    31   16   17 1   
    32   16   45 1   
    33   16   46 1   
    34   17   18 1   
    35   17   20 1   
    36   17   62 1   
    37   18   19 1   
    38   18   47 1   
    39   18   48 1   
    40   19   49 1   
    41   19   50 1   
    42   19   51 1   
    43   20   21 1   
    44   20   52 1   
    45   20   53 1   
    46   21   54 1   
    47   21   55 1   
    48   21   56 1   
    49   22   23 ar  
    50   23   24 1   
    51   24   25 1   
    52   24   29 1   
    53   25   26 ar  
    54   25   27 ar  
    55   26   32 ar  
    56   26   57 1   
    57   27   28 1   
    58   27   30 ar  
    59   28   29 2   
    60   29   58 1   
    61   30   31 ar  
    62   30   59 1   
    63   31   32 ar  
    64   31   60 1   
    65   32   61 1   
@<TRIPOS>SUBSTRUCTURE
     1 1BM         1 TEMP              0 ****  ****    0 ROOT
