@<TRIPOS>MOLECULE
1BM
   62    65     1     0     0
SMALL
bcc


@<TRIPOS>ATOM
      1 O21        -0.6260    1.2870   -0.4600 oh        1 1BM     -0.546100
      2 C17         0.6750    0.8680   -0.2470 ca        1 1BM      0.121100
      3 C13         1.0790    0.2460    0.9370 ca        1 1BM     -0.212000
      4 C16         2.4260   -0.0700    1.0940 ca        1 1BM     -0.060000
      5 C15         3.3730    0.2350    0.1160 ca        1 1BM     -0.121300
      6 C19         4.7950   -0.1140    0.3430 c3        1 1BM     -0.060800
      7 C14         1.5850    1.1510   -1.2720 ca        1 1BM     -0.234000
      8 C11         2.9530    0.8650   -1.0910 ca        1 1BM      0.174600
      9 N3          3.9270    1.2050   -2.0500 nh        1 1BM     -0.719300
     10 C2          3.5760    1.8250   -3.2690 ca        1 1BM      0.729200
     11 N1          4.0800    1.2990   -4.4230 nb        1 1BM     -0.784000
     12 C9          2.7800    3.0070   -3.2630 ca        1 1BM     -0.497600
     13 C8          2.4480    3.5690   -4.5230 ca        1 1BM      0.704200
     14 N10         1.4890    4.6000   -4.6220 nh        1 1BM     -0.868900
     15 C27         1.4420    5.6460   -3.6400 c3        1 1BM      0.178800
     16 C30         0.0740    5.6920   -2.9160 c3        1 1BM      0.087800
     17 N34        -0.0790    4.6480   -1.8540 n4        1 1BM     -0.689400
     18 C36         0.4660    5.1610   -0.5500 c3        1 1BM      0.115300
     19 C42         0.8240    4.0700    0.4350 c3        1 1BM     -0.135100
     20 C35        -1.5130    4.2210   -1.7060 c3        1 1BM      0.115300
     21 C38        -1.9540    3.2370   -2.7700 c3        1 1BM     -0.135100
     22 N6          2.9560    3.0790   -5.6910 nb        1 1BM     -0.799000
     23 C5          3.7770    1.9660   -5.5950 ca        1 1BM      0.846500
     24 N7          4.3180    1.4820   -6.7900 na        1 1BM     -0.218100
     25 C49         5.1820    0.3740   -6.9970 ca        1 1BM     -0.050200
     26 C54         5.7750   -0.5620   -6.1530 ca        1 1BM     -0.110000
     27 C53         5.4130    0.3320   -8.4320 ca        1 1BM      0.067400
     28 N51         4.7010    1.3880   -9.0630 nc        1 1BM     -0.530100
     29 C50         4.0760    2.0390   -8.0950 cd        1 1BM      0.456700
     30 C55         6.2340   -0.6530   -8.9810 ca        1 1BM     -0.063000
     31 C56         6.8160   -1.5790   -8.1180 ca        1 1BM     -0.135000
     32 C58         6.5900   -1.5320   -6.7380 ca        1 1BM     -0.113000
     33 HO21       -1.2050    0.7340    0.0850 ho        1 1BM      0.438000
     34 H13         0.3500    0.0010    1.7220 ha        1 1BM      0.150000
     35 H16         2.7540   -0.5730    2.0200 ha        1 1BM      0.154000
     36 H191        5.1430   -0.8650   -0.4110 hc        1 1BM      0.056033
     37 H192        4.9420   -0.5580    1.3590 hc        1 1BM      0.056033
     38 H193        5.4460    0.7930    0.2660 hc        1 1BM      0.056033
     39 H14         1.1980    1.5520   -2.2200 ha        1 1BM      0.145000
     40 HN3         4.6820    0.5440   -2.1100 hn        1 1BM      0.450800
     41 H9          2.4820    3.4590   -2.3140 ha        1 1BM      0.136000
     42 HN10        1.3150    4.9190   -5.5570 hn        1 1BM      0.442800
     43 H271        1.5490    6.6550   -4.1400 h1        1 1BM      0.082700
     44 H272        2.2760    5.5540   -2.8880 h1        1 1BM      0.082700
     45 H301       -0.7580    5.5550   -3.6670 hx        1 1BM      0.106200
     46 H302       -0.0460    6.7050   -2.4380 hx        1 1BM      0.106200
     47 H361        1.3920    5.7620   -0.7850 hx        1 1BM      0.097200
     48 H362       -0.3070    5.8520   -0.1070 hx        1 1BM      0.097200
     49 H421        1.6030    3.3810    0.0190 hc        1 1BM      0.079700
     50 H422       -0.0630    3.4520    0.7220 hc        1 1BM      0.079700
     51 H423        1.2330    4.5560    1.3570 hc        1 1BM      0.079700
     52 H351       -1.6110    3.7230   -0.6960 hx        1 1BM      0.097200
     53 H352       -2.1520    5.1470   -1.7230 hx        1 1BM      0.097200
     54 H381       -1.8050    3.6310   -3.8040 hc        1 1BM      0.079700
     55 H382       -3.0460    3.0380   -2.6240 hc        1 1BM      0.079700
     56 H383       -1.4060    2.2660   -2.6640 hc        1 1BM      0.079700
     57 H54         5.6220   -0.5590   -5.0660 ha        1 1BM      0.154000
     58 H50         3.4300    2.9180   -8.2290 h5        1 1BM      0.090800
     59 H55         6.4140   -0.6910  -10.0660 ha        1 1BM      0.160000
     60 H56         7.4680   -2.3640   -8.5310 ha        1 1BM      0.146000
     61 H58         7.0690   -2.2830   -6.0900 ha        1 1BM      0.141000
     62 H341        0.4630    3.8120   -2.1290 hn        1 1BM      0.463800
@<TRIPOS>BOND
     1    1    2 1   
     2    1   33 1   
     3    2    3 ar  
     4    2    7 ar  
     5    3    4 ar  
     6    3   34 1   
     7    4    5 ar  
     8    4   35 1   
     9    5    6 1   
    10    5    8 ar  
    11    6   36 1   
    12    6   37 1   
    13    6   38 1   
    14    7    8 ar  
    15    7   39 1   
    16    8    9 1   
    17    9   10 1   
    18    9   40 1   
    19   10   11 ar  
    20   10   12 ar  
    21   11   23 ar  
    22   12   13 ar  
    23   12   41 1   
    24   13   14 1   
    25   13   22 ar  
    26   14   15 1   
    27   14   42 1   
    28   15   16 1   
    29   15   43 1   
    30   15   44 1   
    31   16   17 1   
    32   16   45 1   
    33   16   46 1   
    34   17   18 1   
    35   17   20 1   
    36   17   62 1   
    37   18   19 1   
    38   18   47 1   
    39   18   48 1   
    40   19   49 1   
    41   19   50 1   
    42   19   51 1   
    43   20   21 1   
    44   20   52 1   
    45   20   53 1   
    46   21   54 1   
    47   21   55 1   
    48   21   56 1   
    49   22   23 ar  
    50   23   24 1   
    51   24   25 1   
    52   24   29 1   
    53   25   26 ar  
    54   25   27 ar  
    55   26   32 ar  
    56   26   57 1   
    57   27   28 1   
    58   27   30 ar  
    59   28   29 2   
    60   29   58 1   
    61   30   31 ar  
    62   30   59 1   
    63   31   32 ar  
    64   31   60 1   
    65   32   61 1   
@<TRIPOS>SUBSTRUCTURE
     1 1BM         1 TEMP              0 ****  ****    0 ROOT
