@<TRIPOS>MOLECULE
1BM
   61    54     1     0     0
SMALL
bcc


@<TRIPOS>ATOM
      1 O21         2.9670   -2.5310    6.1970 oh        1 1BM     -0.252000
      2 C17         2.5700   -3.1430    5.0240 c2        1 1BM      0.084000
      3 C13         3.3030   -4.2150    4.5180 c2        1 1BM     -0.206000
      4 C16         2.9790   -4.7540    3.2970 c1        1 1BM     -0.094000
      5 C15         1.9330   -4.2370    2.5720 c1        1 1BM     -0.068000
      6 C19         1.4770   -4.9320    1.3370 c3        1 1BM     -0.177000
      7 C14         1.5210   -2.6240    4.2980 c1        1 1BM     -0.181000
      8 C11         1.1980   -3.1650    3.0750 c1        1 1BM      0.064000
      9 N3          0.0570   -2.7040    2.3820 n3        1 1BM     -0.237000
     10 C2          0.1530   -1.5560    1.5150 c2        1 1BM      0.197000
     11 N1          1.2150   -1.4170    0.7000 n2        1 1BM     -0.262000
     12 C9         -0.8650   -0.6360    1.4770 c1        1 1BM     -0.374000
     13 C8         -0.7980    0.4230    0.6090 c1        1 1BM      0.198000
     14 N10        -1.8610    1.4330    0.6030 n3        1 1BM     -0.272000
     15 C27        -2.6530    1.6690   -0.6200 c3        1 1BM     -0.082000
     16 C30        -3.2520    3.0720   -0.5650 c3        1 1BM     -0.077000
     17 N34        -4.1790    3.2550   -1.6760 n3        1 1BM     -0.290000
     18 C36        -3.6440    4.2130   -2.5920 c3        1 1BM     -0.051500
     19 C42        -3.2900    3.4940   -3.9490 c3        1 1BM     -0.248000
     20 C35        -5.4940    3.7360   -1.1590 c3        1 1BM     -0.051500
     21 C38        -6.6200    2.7980   -1.6630 c3        1 1BM     -0.248000
     22 N6          0.2660    0.5600   -0.2060 n1        1 1BM     -0.288000
     23 C5          1.2800   -0.3560   -0.1680 c1        1 1BM      0.231000
     24 N7          2.3340   -0.2430   -1.0330 n2        1 1BM     -0.155000
     25 C49         3.6230    0.0390   -1.3550 c1        1 1BM      0.001000
     26 C54         4.5750    0.9160   -0.7760 c1        1 1BM     -0.113750
     27 C53         3.9600   -0.7130   -2.4530 c1        1 1BM     -0.075000
     28 N51         2.8720   -1.4560   -2.8040 n1        1 1BM     -0.136000
     29 C50         1.8660   -1.1690   -1.9300 c1        1 1BM      0.005000
     30 C55         5.2520   -0.6110   -3.0020 c1        1 1BM     -0.113750
     31 C56         6.1910    0.2560   -2.4260 c1        1 1BM     -0.113750
     32 C58         5.8480    1.0140   -1.3180 c1        1 1BM     -0.113750
     33 HO21        2.8080   -3.0660    6.8720 ho        1 1BM      0.220000
     34 H13         4.0520   -4.5870    5.0370 ha        1 1BM      0.136000
     35 H16         3.4840   -5.4920    2.9500 ha        1 1BM      0.138000
     36 H191        1.6210   -4.3690    0.5830 hc        1 1BM      0.090000
     37 H192        1.9780   -5.7560    1.2260 hc        1 1BM      0.090000
     38 H193        0.5630   -5.1290    1.4100 hc        1 1BM      0.090000
     39 H14         0.9960   -1.8590    4.6580 ha        1 1BM      0.150000
     40 HN3        -0.7720   -3.1430    2.4930 hn        1 1BM      0.218000
     41 H9         -1.6670   -0.7790    2.0040 ha        1 1BM      0.153000
     42 HN10       -2.0860    1.8620    1.3780 hn        1 1BM      0.208000
     43 H271       -3.3670    1.0130   -0.6760 h1        1 1BM      0.107500
     44 H272       -2.0440    1.5870   -1.4480 h1        1 1BM      0.107500
     45 H301       -2.5110    3.7540   -0.6290 h1        1 1BM      0.091500
     46 H302       -3.7350    3.1900    0.2920 h1        1 1BM      0.091500
     47 H361       -2.7950    4.6340   -2.1940 h1        1 1BM      0.087500
     48 H362       -4.3250    4.9290   -2.7600 h1        1 1BM      0.087500
     49 H421       -2.4940    3.8500   -4.2940 hc        1 1BM      0.077000
     50 H422       -3.1720    2.5020   -3.7850 hc        1 1BM      0.077000
     51 H423       -4.0320    3.6360   -4.6040 hc        1 1BM      0.077000
     52 H351       -5.6550    4.6250   -1.4710 h1        1 1BM      0.087500
     53 H352       -5.4820    3.7330   -0.1960 h1        1 1BM      0.087500
     54 H381       -6.9240    3.0990   -2.6120 hc        1 1BM      0.077000
     55 H382       -6.2880    1.8860   -1.7020 hc        1 1BM      0.077000
     56 H383       -7.3930    2.8410   -1.0360 hc        1 1BM      0.077000
     57 H54         4.3390    1.4390   -0.0110 ha        1 1BM      0.144500
     58 H50         1.0230   -1.6150   -1.8830 DU        1 1BM      0.218000
     59 H55         5.5010   -1.1580   -3.8020 ha        1 1BM      0.144500
     60 H56         7.0760    0.3260   -2.8020 ha        1 1BM      0.144500
     61 H58         6.5170    1.6300   -0.9100 ha        1 1BM      0.144500
@<TRIPOS>BOND
     1    1    2 1   
     2    1   33 1   
     3    2    3 1   
     4    2    7 1   
     5    3    4 1   
     6    3   34 1   
     7    4   35 1   
     8    5    6 1   
     9    5    8 1   
    10    6   36 1   
    11    6   37 1   
    12    6   38 1   
    13    7   39 1   
    14    8    9 1   
    15    9   10 1   
    16    9   40 1   
    17   10   11 1   
    18   10   12 1   
    19   11   23 1   
    20   12   41 1   
    21   13   14 1   
    22   13   22 1   
    23   14   15 1   
    24   14   42 1   
    25   15   16 1   
    26   15   43 1   
    27   15   44 1   
    28   16   17 1   
    29   16   45 1   
    30   16   46 1   
    31   17   18 1   
    32   17   20 1   
    33   18   19 1   
    34   18   47 1   
    35   18   48 1   
    36   19   49 1   
    37   19   50 1   
    38   19   51 1   
    39   20   21 1   
    40   20   52 1   
    41   20   53 1   
    42   21   54 1   
    43   21   55 1   
    44   21   56 1   
    45   24   25 1   
    46   24   29 1   
    47   25   27 1   
    48   26   32 1   
    49   26   57 1   
    50   28   29 1   
    51   30   31 1   
    52   30   59 1   
    53   31   60 1   
    54   32   61 1   
@<TRIPOS>SUBSTRUCTURE
     1 1BM         1 TEMP              0 ****  ****    0 ROOT
