@<TRIPOS>MOLECULE
1BN
   22    17     1     0     0
SMALL
bcc


@<TRIPOS>ATOM
      1 C1          1.6400    1.5770   -1.3240 c1        1 1BN     -0.168000
      2 C2          2.9960    1.5100   -1.2540 c1        1 1BN     -0.168000
      3 N1          1.1480    1.3210   -0.1030 n2        1 1BN     -0.151500
      4 C3          2.1840    1.0960    0.7230 c1        1 1BN     -0.107000
      5 N2          3.3290    1.2150    0.0050 n2        1 1BN     -0.151500
      6 C4         -0.2320    1.4370    0.2920 c2        1 1BN      0.022000
      7 C5         -0.9050   -0.0090    0.2990 c2        1 1BN     -0.111000
      8 C6         -0.7800   -0.8340    1.4190 c2        1 1BN     -0.109000
      9 C7         -1.5760   -0.4620   -0.8170 c1        1 1BN     -0.118000
     10 C8         -1.3350   -2.1180    1.4070 c1        1 1BN     -0.127000
     11 C9         -2.1320   -1.7490   -0.8250 c1        1 1BN     -0.125000
     12 C10        -2.0050   -2.5700    0.2940 c1        1 1BN     -0.125000
     13 H1          1.1160    1.7770   -2.1230 DU        1 1BN      0.183667
     14 H2          3.6130    1.6540   -1.9900 DU        1 1BN      0.183667
     15 H3          2.1230    0.8920    1.6470 DU        1 1BN      0.183667
     16 H41        -0.2820    1.8270    1.2000 ha        1 1BN      0.106500
     17 H42        -0.7170    2.0300   -0.3550 ha        1 1BN      0.106500
     18 H6         -0.3020   -0.5140    2.2160 ha        1 1BN      0.139000
     19 H7         -1.6650    0.1270   -1.6170 ha        1 1BN      0.131000
     20 H8         -1.2480   -2.6880    2.1810 ha        1 1BN      0.137000
     21 H9         -2.5780   -2.0500   -1.5660 ha        1 1BN      0.135000
     22 H10        -2.3930   -3.4680    0.2890 ha        1 1BN      0.135000
@<TRIPOS>BOND
     1    1    2 1   
     2    1    3 1   
     3    2    5 1   
     4    3    4 1   
     5    4    5 1   
     6    6    7 1   
     7    6   16 1   
     8    6   17 1   
     9    7    8 1   
    10    7    9 1   
    11    8   10 1   
    12    8   18 1   
    13    9   19 1   
    14   10   20 1   
    15   11   12 1   
    16   11   21 1   
    17   12   22 1   
@<TRIPOS>SUBSTRUCTURE
     1 1BN         1 TEMP              0 ****  ****    0 ROOT
