@<TRIPOS>MOLECULE
1BN
   22    23     1     0     0
SMALL
bcc


@<TRIPOS>ATOM
      1 C1         -0.2420    0.2910   -0.0800 cc        1 1BN     -0.261600
      2 C2          1.1330    0.2720   -0.3710 cd        1 1BN      0.291200
      3 N1         -0.3540    0.0230    1.2900 na        1 1BN     -0.207900
      4 C3          0.9540   -0.1690    1.7670 cc        1 1BN      0.394400
      5 N2          1.8630   -0.0130    0.7830 nd        1 1BN     -0.668000
      6 C4         -1.5700   -0.1110    2.0350 c3        1 1BN      0.088600
      7 C5         -2.1260   -1.5050    2.1210 ca        1 1BN     -0.118300
      8 C6         -2.5130   -2.0150    3.3650 ca        1 1BN     -0.113500
      9 C7         -2.2980   -2.2810    0.9710 ca        1 1BN     -0.113500
     10 C8         -3.0730   -3.2880    3.4540 ca        1 1BN     -0.128000
     11 C9         -2.8540   -3.5560    1.0650 ca        1 1BN     -0.128000
     12 C10        -3.2440   -4.0600    2.3050 ca        1 1BN     -0.120000
     13 H1         -1.1090    0.4790   -0.7080 h4        1 1BN      0.174000
     14 H2          1.6250    0.4480   -1.3260 h4        1 1BN      0.041100
     15 H3          1.1710   -0.4050    2.8130 h5        1 1BN      0.060100
     16 H41        -2.3510    0.5480    1.5520 h1        1 1BN      0.066700
     17 H42        -1.3790    0.2800    3.0780 h1        1 1BN      0.066700
     18 H6         -2.3770   -1.4130    4.2760 ha        1 1BN      0.135000
     19 H7         -1.9870   -1.8870   -0.0090 ha        1 1BN      0.135000
     20 H8         -3.3780   -3.6840    4.4340 ha        1 1BN      0.135500
     21 H9         -2.9840   -4.1640    0.1570 ha        1 1BN      0.135500
     22 H10        -3.6830   -5.0660    2.3780 ha        1 1BN      0.135000
@<TRIPOS>BOND
     1    1    2 2   
     2    1    3 1   
     3    1   13 1   
     4    2    5 1   
     5    2   14 1   
     6    3    4 1   
     7    3    6 1   
     8    4    5 2   
     9    4   15 1   
    10    6    7 1   
    11    6   16 1   
    12    6   17 1   
    13    7    8 ar  
    14    7    9 ar  
    15    8   10 ar  
    16    8   18 1   
    17    9   11 ar  
    18    9   19 1   
    19   10   12 ar  
    20   10   20 1   
    21   11   12 ar  
    22   11   21 1   
    23   12   22 1   
@<TRIPOS>SUBSTRUCTURE
     1 1BN         1 TEMP              0 ****  ****    0 ROOT
