@<TRIPOS>MOLECULE
1BN
   22    23     1     0     0
SMALL
bcc


@<TRIPOS>ATOM
      1 C1         -2.1510    1.2580   -0.3480 cc        1 1BN     -0.261600
      2 C2         -3.2200    1.0680    0.5450 cd        1 1BN      0.291200
      3 N1         -1.5440    0.0050   -0.4980 na        1 1BN     -0.207900
      4 C3         -2.2520   -0.8840    0.3260 cc        1 1BN      0.394400
      5 N2         -3.2720   -0.2640    0.9560 nd        1 1BN     -0.668000
      6 C4         -0.3760   -0.2870   -1.2760 c3        1 1BN      0.088600
      7 C5          0.9330   -0.1810   -0.5430 ca        1 1BN     -0.118300
      8 C6          1.8620   -1.2210   -0.6420 ca        1 1BN     -0.113500
      9 C7          1.2480    0.9600    0.2020 ca        1 1BN     -0.113500
     10 C8          3.0980   -1.1170   -0.0070 ca        1 1BN     -0.128000
     11 C9          2.4830    1.0590    0.8400 ca        1 1BN     -0.128000
     12 C10         3.4100    0.0220    0.7360 ca        1 1BN     -0.120000
     13 H1         -1.8010    2.1420   -0.8760 h4        1 1BN      0.174000
     14 H2         -3.9400    1.8020    0.9040 h4        1 1BN      0.041100
     15 H3         -1.9890   -1.9420    0.4160 h5        1 1BN      0.060100
     16 H41        -0.4890   -1.3320   -1.6880 h1        1 1BN      0.066700
     17 H42        -0.3480    0.4320   -2.1480 h1        1 1BN      0.066700
     18 H6          1.6200   -2.1250   -1.2220 ha        1 1BN      0.135000
     19 H7          0.5160    1.7780    0.2890 ha        1 1BN      0.135000
     20 H8          3.8270   -1.9370   -0.0890 ha        1 1BN      0.135500
     21 H9          2.7250    1.9570    1.4280 ha        1 1BN      0.135500
     22 H10         4.3850    0.1010    1.2390 ha        1 1BN      0.135000
@<TRIPOS>BOND
     1    1    2 2   
     2    1    3 1   
     3    1   13 1   
     4    2    5 1   
     5    2   14 1   
     6    3    4 1   
     7    3    6 1   
     8    4    5 2   
     9    4   15 1   
    10    6    7 1   
    11    6   16 1   
    12    6   17 1   
    13    7    8 ar  
    14    7    9 ar  
    15    8   10 ar  
    16    8   18 1   
    17    9   11 ar  
    18    9   19 1   
    19   10   12 ar  
    20   10   20 1   
    21   11   12 ar  
    22   11   21 1   
    23   12   22 1   
@<TRIPOS>SUBSTRUCTURE
     1 1BN         1 TEMP              0 ****  ****    0 ROOT
