@<TRIPOS>MOLECULE
1BO
   15    14     1     0     0
SMALL
bcc


@<TRIPOS>ATOM
      1 C1         -1.9830   -0.0000   -0.8770 c3        1 1BO     -0.092100
      2 C2         -0.4700   -0.0000   -0.8770 c3        1 1BO     -0.079400
      3 C3          0.0340   -0.0000    0.5500 c3        1 1BO     -0.084400
      4 C4          1.5470   -0.0000    0.5500 c3        1 1BO      0.131400
      5 OH          2.0170   -0.0000    1.8790 oh        1 1BO     -0.601800
      6 H11        -2.3080    0.7970   -0.4170 hc        1 1BO      0.034367
      7 H12        -2.3080   -0.0000   -1.7970 hc        1 1BO      0.034367
      8 H13        -2.3080   -0.7970   -0.4170 hc        1 1BO      0.034367
      9 H21        -0.1450    0.7970   -1.3370 hc        1 1BO      0.037700
     10 H22        -0.1450   -0.7970   -1.3370 hc        1 1BO      0.037700
     11 H31        -0.2910   -0.7970    1.0100 hc        1 1BO      0.055700
     12 H32        -0.2910    0.7970    1.0100 hc        1 1BO      0.055700
     13 H41         1.8730   -0.7970    0.0900 h1        1 1BO      0.019700
     14 H42         1.8730    0.7970    0.0900 h1        1 1BO      0.019700
     15 HO          2.9050   -0.0000    1.8800 ho        1 1BO      0.398000
@<TRIPOS>BOND
     1    1    2 1   
     2    1    6 1   
     3    1    7 1   
     4    1    8 1   
     5    2    3 1   
     6    2    9 1   
     7    2   10 1   
     8    3    4 1   
     9    3   11 1   
    10    3   12 1   
    11    4    5 1   
    12    4   13 1   
    13    4   14 1   
    14    5   15 1   
@<TRIPOS>SUBSTRUCTURE
     1 1BO         1 TEMP              0 ****  ****    0 ROOT
