@<TRIPOS>MOLECULE
1BO
   15    14     1     0     0
SMALL
bcc


@<TRIPOS>ATOM
      1 C1         -0.3160   -0.0000    2.5370 c3        1 1BO     -0.092100
      2 C2          0.5210    0.0000    1.2840 c3        1 1BO     -0.079400
      3 C3         -0.3440    0.0000    0.0430 c3        1 1BO     -0.084400
      4 C4          0.5140   -0.0000   -1.2090 c3        1 1BO      0.131400
      5 OH         -0.3680    0.0000   -2.3210 oh        1 1BO     -0.601800
      6 H11         0.3400   -0.0000    3.4410 hc        1 1BO      0.034367
      7 H12        -0.9700    0.9050    2.5740 hc        1 1BO      0.034367
      8 H13        -0.9700   -0.9050    2.5740 hc        1 1BO      0.034367
      9 H21         1.1880    0.9030    1.2760 hc        1 1BO      0.037700
     10 H22         1.1880   -0.9030    1.2760 hc        1 1BO      0.037700
     11 H31        -1.0100   -0.9020    0.0350 hc        1 1BO      0.055700
     12 H32        -1.0100    0.9020    0.0350 hc        1 1BO      0.055700
     13 H41         1.1680    0.9130   -1.2410 h1        1 1BO      0.019700
     14 H42         1.1680   -0.9130   -1.2410 h1        1 1BO      0.019700
     15 HO          0.1840   -0.0000   -3.1100 ho        1 1BO      0.398000
@<TRIPOS>BOND
     1    1    2 1   
     2    1    6 1   
     3    1    7 1   
     4    1    8 1   
     5    2    3 1   
     6    2    9 1   
     7    2   10 1   
     8    3    4 1   
     9    3   11 1   
    10    3   12 1   
    11    4    5 1   
    12    4   13 1   
    13    4   14 1   
    14    5   15 1   
@<TRIPOS>SUBSTRUCTURE
     1 1BO         1 TEMP              0 ****  ****    0 ROOT
