@<TRIPOS>MOLECULE
1BP
   12    11     1     0     0
SMALL
bcc


@<TRIPOS>ATOM
      1 Br          0.0350   -0.3150    0.0540 br        1 1BP     -0.175400
      2 C1          1.9240    0.0540    0.1170 c3        1 1BP     -0.055000
      3 C2          2.5260   -0.0190    1.5150 c3        1 1BP      0.145100
      4 C3          4.0430   -0.0580    1.4240 c3        1 1BP     -0.094100
      5 O2          2.2010    1.1340    2.2780 oh        1 1BP     -0.594800
      6 H11         2.0650    1.0770   -0.3040 h1        1 1BP      0.085200
      7 H12         2.4130   -0.6950   -0.5470 h1        1 1BP      0.085200
      8 H21         2.1530   -0.9400    2.0500 h1        1 1BP      0.047700
      9 H31         4.4800   -0.0180    2.4500 hc        1 1BP      0.049700
     10 H32         4.3660   -0.9990    0.9210 hc        1 1BP      0.049700
     11 H33         4.4200    0.8190    0.8450 hc        1 1BP      0.049700
     12 HO21        1.2410    1.1490    2.3750 ho        1 1BP      0.408000
@<TRIPOS>BOND
     1    1    2 1   
     2    2    3 1   
     3    2    6 1   
     4    2    7 1   
     5    3    4 1   
     6    3    5 1   
     7    3    8 1   
     8    4    9 1   
     9    4   10 1   
    10    4   11 1   
    11    5   12 1   
@<TRIPOS>SUBSTRUCTURE
     1 1BP         1 TEMP              0 ****  ****    0 ROOT
