@<TRIPOS>MOLECULE
1BP
   12    11     1     0     0
SMALL
bcc


@<TRIPOS>ATOM
      1 BR         -2.1300   -1.1440   -1.3610 br        1 1BP     -0.175400
      2 C1         -0.4200   -0.3070   -1.1820 c3        1 1BP     -0.055000
      3 C2         -0.0110   -0.3020    0.2740 c3        1 1BP      0.145100
      4 C3          1.0170    0.7810    0.5050 c3        1 1BP     -0.094100
      5 O2         -1.1410   -0.0560    1.0770 oh        1 1BP     -0.594800
      6 H11         0.2420   -0.8020   -1.7050 h1        1 1BP      0.085200
      7 H12        -0.4720    0.6140   -1.5090 h1        1 1BP      0.085200
      8 H21         0.3720   -1.1710    0.5070 h1        1 1BP      0.047700
      9 H31         1.3330    0.7400    1.4320 hc        1 1BP      0.049700
     10 H32         1.7740    0.6490   -0.1040 hc        1 1BP      0.049700
     11 H33         0.6120    1.6580    0.3360 hc        1 1BP      0.049700
     12 HO21       -1.1760   -0.6590    1.7300 ho        1 1BP      0.408000
@<TRIPOS>BOND
     1    1    2 1   
     2    2    3 1   
     3    2    6 1   
     4    2    7 1   
     5    3    4 1   
     6    3    5 1   
     7    3    8 1   
     8    4    9 1   
     9    4   10 1   
    10    4   11 1   
    11    5   12 1   
@<TRIPOS>SUBSTRUCTURE
     1 1BP         1 TEMP              0 ****  ****    0 ROOT
