@<TRIPOS>MOLECULE
1BP
   12    11     1     0     0
SMALL
bcc


@<TRIPOS>ATOM
      1 BR         -0.3120    0.1820   -1.2920 br        1 1BP     -0.155400
      2 C1         -0.7580   -0.3850    0.4890 c3        1 1BP     -0.051000
      3 C2          0.0260    0.3110    1.5930 c3        1 1BP      0.141100
      4 C3         -0.6710    0.0930    2.9260 c3        1 1BP     -0.134100
      5 O2          1.3700   -0.1350    1.6470 oh        1 1BP     -0.582800
      6 H11        -0.5820   -1.4850    0.5250 h1        1 1BP      0.075700
      7 H12        -1.8470   -0.1810    0.6150 h1        1 1BP      0.075700
      8 H21         0.1210    1.4160    1.3820 h1        1 1BP      0.093700
      9 H31        -0.0450    0.5150    3.7490 hc        1 1BP      0.047367
     10 H32        -1.6640    0.6000    2.9300 hc        1 1BP      0.047367
     11 H33        -0.8220   -0.9970    3.1190 hc        1 1BP      0.047367
     12 HO21        1.3560   -1.0750    1.8650 ho        1 1BP      0.397000
@<TRIPOS>BOND
     1    1    2 1   
     2    2    3 1   
     3    2    6 1   
     4    2    7 1   
     5    3    4 1   
     6    3    5 1   
     7    3    8 1   
     8    4    9 1   
     9    4   10 1   
    10    4   11 1   
    11    5   12 1   
@<TRIPOS>SUBSTRUCTURE
     1 1BP         1 TEMP              0 ****  ****    0 ROOT
