@<TRIPOS>MOLECULE
1BQ
   59    55     1     0     0
SMALL
bcc


@<TRIPOS>ATOM
      1 C1         -6.0830    1.4100   -4.6960 c3        1 1BQ     -0.096000
      2 N2         -5.4470    2.1280   -3.5700 n3        1 1BQ     -0.732000
      3 C3         -4.1510    1.6710   -3.0450 c2        1 1BQ      0.174000
      4 C4         -3.7000    0.3820   -3.3550 c2        1 1BQ     -0.186000
      5 C5         -2.3650   -0.0080   -3.0240 c1        1 1BQ     -0.054000
      6 C6         -1.4900    0.9150   -2.3760 c1        1 1BQ     -0.080000
      7 C7         -1.9420    2.2250   -2.0580 c1        1 1BQ     -0.054000
      8 C8         -3.2540    2.6150   -2.3810 c1        1 1BQ     -0.135000
      9 C9         -3.8040    3.9250   -1.7830 c1        1 1BQ      0.057500
     10 N10        -3.2130    4.8870   -1.0050 n2        1 1BQ     -0.109000
     11 N12        -4.1870    5.7730   -0.6090 n2        1 1BQ     -0.109000
     12 C13        -5.3730    5.3620   -1.1400 c1        1 1BQ      0.057500
     13 C14        -5.1380    4.2140   -1.8700 c1        1 1BQ     -0.994000
     14 S15        -6.1040    3.4010   -2.9930 s4        1 1BQ      2.126800
     15 O16        -6.3680    4.3080   -4.0770 o         1 1BQ     -0.536400
     16 O17        -7.3590    3.0230   -2.3780 o         1 1BQ     -0.536400
     17 C18        -0.1700    0.7960   -1.5610 c2        1 1BQ     -0.022000
     18 C19         0.9590    1.4850   -1.9690 c2        1 1BQ     -0.127000
     19 C20         2.1450    1.3620   -1.2550 c1        1 1BQ     -0.089000
     20 C21         2.1980    0.5440   -0.1260 c1        1 1BQ     -0.103000
     21 C22         1.0720   -0.1440    0.2820 c1        1 1BQ     -0.104000
     22 C23        -0.1170   -0.0210   -0.4340 c1        1 1BQ     -0.124000
     23 C24         3.5450    0.3120    0.5900 c2        1 1BQ      0.339000
     24 O25         4.5780    0.6900    0.0680 o         1 1BQ     -0.351000
     25 N26         3.6030   -0.5480    1.7750 n         1 1BQ     -0.314000
     26 C27         2.4110   -1.0450    2.4630 c3        1 1BQ     -0.034500
     27 C28         2.4420   -2.5520    2.6540 c3        1 1BQ     -0.179000
     28 C29         3.7130   -3.0150    3.2820 c3        1 1BQ     -0.103000
     29 C30         3.7500   -4.5920    3.2610 c3        1 1BQ     -0.161000
     30 C31         4.0170   -5.1300    4.7110 c3        1 1BQ     -0.018000
     31 O32         3.9520   -6.5700    4.7110 oh        1 1BQ     -0.329000
     32 C33         4.9110   -2.4960    2.5650 c3        1 1BQ     -0.179000
     33 C34         4.8590   -0.9870    2.3730 c3        1 1BQ     -0.034500
     34 H1         -5.4440    1.3250   -5.4310 h1        1 1BQ      0.097333
     35 H2         -6.8780    1.9190   -5.0070 h1        1 1BQ      0.097333
     36 H3         -6.3640    0.5100   -4.3970 h1        1 1BQ      0.097333
     37 H4         -4.3010   -0.2540   -3.8010 ha        1 1BQ      0.149000
     38 H5         -2.0500   -0.9140   -3.2430 ha        1 1BQ      0.146000
     39 H6         -1.3340    2.8600   -1.6090 ha        1 1BQ      0.132000
     40 H7         -2.3260    4.9320   -0.7860 DU        1 1BQ      0.240500
     41 H8         -6.2390    5.8020   -1.0230 DU        1 1BQ      0.240500
     42 H9          0.9220    2.0570   -2.7580 ha        1 1BQ      0.137000
     43 H10         2.9380    1.8460   -1.5420 ha        1 1BQ      0.150000
     44 H11         1.1090   -0.7110    1.0630 ha        1 1BQ      0.142000
     45 H12        -0.9060   -0.5030   -0.1480 ha        1 1BQ      0.140000
     46 H13         1.6300   -0.8120    1.9430 h1        1 1BQ      0.100250
     47 H14         2.3480   -0.6120    3.3470 h1        1 1BQ      0.100250
     48 H15         1.6920   -2.8160    3.2240 hc        1 1BQ      0.090750
     49 H16         2.3460   -2.9830    1.7840 hc        1 1BQ      0.090750
     50 H17         3.7390   -2.7100    4.2040 hc        1 1BQ      0.089000
     51 H18         2.8940   -4.9340    2.9390 hc        1 1BQ      0.097000
     52 H19         4.4740   -4.8980    2.6580 hc        1 1BQ      0.097000
     53 H20         3.3330   -4.7700    5.3260 h1        1 1BQ      0.060500
     54 H21         4.9130   -4.8410    5.0100 h1        1 1BQ      0.060500
     55 H22         4.3890   -6.8920    5.4330 ho        1 1BQ      0.200000
     56 H23         4.9650   -2.9300    1.6800 hc        1 1BQ      0.090750
     57 H24         5.6990   -2.7200    3.0710 hc        1 1BQ      0.090750
     58 H25         4.9680   -0.5530    3.2420 h1        1 1BQ      0.100250
     59 H26         5.5950   -0.7190    1.7920 h1        1 1BQ      0.100250
@<TRIPOS>BOND
     1    1    2 1   
     2    1   34 1   
     3    1   35 1   
     4    1   36 1   
     5    2    3 1   
     6    2   14 1   
     7    3    4 1   
     8    3    8 1   
     9    4    5 1   
    10    4   37 1   
    11    5   38 1   
    12    6    7 1   
    13    6   17 1   
    14    7   39 1   
    15    9   10 1   
    16    9   13 1   
    17   10   11 1   
    18   11   12 1   
    19   12   13 1   
    20   14   15 1   
    21   14   16 1   
    22   17   18 1   
    23   17   22 1   
    24   18   19 1   
    25   18   42 1   
    26   19   43 1   
    27   20   21 1   
    28   20   23 1   
    29   21   44 1   
    30   22   45 1   
    31   23   24 1   
    32   23   25 1   
    33   25   26 1   
    34   25   33 1   
    35   26   27 1   
    36   26   46 1   
    37   26   47 1   
    38   27   28 1   
    39   27   48 1   
    40   27   49 1   
    41   28   29 1   
    42   28   32 1   
    43   28   50 1   
    44   29   30 1   
    45   29   51 1   
    46   29   52 1   
    47   30   31 1   
    48   30   53 1   
    49   30   54 1   
    50   31   55 1   
    51   32   33 1   
    52   32   56 1   
    53   32   57 1   
    54   33   58 1   
    55   33   59 1   
@<TRIPOS>SUBSTRUCTURE
     1 1BQ         1 TEMP              0 ****  ****    0 ROOT
