@<TRIPOS>MOLECULE
1BQ
   59    63     1     0     0
SMALL
bcc


@<TRIPOS>ATOM
      1 C1          0.4450    1.0730   -0.3910 c3        1 1BQ      0.180100
      2 N2          1.6750    0.3360   -0.2480 nh        1 1BQ     -0.634900
      3 C3          2.2360    0.2650    1.0260 ca        1 1BQ      0.256600
      4 C4          1.7480    1.0620    2.0960 ca        1 1BQ     -0.186000
      5 C5          2.3040    0.9870    3.3610 ca        1 1BQ     -0.053000
      6 C6          3.3800    0.1250    3.6340 cp        1 1BQ     -0.081000
      7 C7          3.8780   -0.6640    2.6000 ca        1 1BQ     -0.054000
      8 C8          3.3230   -0.6150    1.3150 ca        1 1BQ     -0.136000
      9 C9          3.8260   -1.4430    0.2480 cc        1 1BQ      0.119700
     10 N10         4.7680   -2.4580    0.2950 na        1 1BQ      0.003400
     11 N12         4.9660   -3.0190   -0.9100 nc        1 1BQ     -0.510800
     12 C13         4.1570   -2.3840   -1.7830 cd        1 1BQ      0.437200
     13 C14         3.3920   -1.3510   -1.1050 cd        1 1BQ     -0.614800
     14 S15         2.2980   -0.3010   -1.6840 sy        1 1BQ      1.570200
     15 O16         1.2630   -0.9530   -2.3700 o         1 1BQ     -0.648300
     16 O17         2.9010    0.7330   -2.4070 o         1 1BQ     -0.648300
     17 C18         3.9620    0.0630    4.9720 cp        1 1BQ     -0.020000
     18 C19         3.1350    0.0740    6.1040 ca        1 1BQ     -0.128500
     19 C20         3.6870    0.0210    7.3810 ca        1 1BQ     -0.092500
     20 C21         5.0750   -0.0540    7.5400 ca        1 1BQ     -0.128600
     21 C22         5.9070   -0.0600    6.4170 ca        1 1BQ     -0.092500
     22 C23         5.3520   -0.0010    5.1400 ca        1 1BQ     -0.128500
     23 C24         5.6410   -0.0440    8.9220 c         1 1BQ      0.661700
     24 O25         5.3560    0.8810    9.7080 o         1 1BQ     -0.589100
     25 N26         6.5560   -1.0340    9.2860 n         1 1BQ     -0.449800
     26 C27         7.0690   -1.0550   10.6440 c3        1 1BQ      0.078000
     27 C28         6.4970   -2.1720   11.5150 c3        1 1BQ     -0.101400
     28 C29         6.6270   -3.5260   10.8310 c3        1 1BQ     -0.063700
     29 C30         5.9850   -4.6040   11.6870 c3        1 1BQ     -0.082400
     30 C31         6.4260   -5.9940   11.2600 c3        1 1BQ      0.132400
     31 O32         5.8060   -6.9120   12.1480 oh        1 1BQ     -0.600800
     32 C33         6.0000   -3.4670    9.4460 c3        1 1BQ     -0.101400
     33 C34         6.5900   -2.3190    8.6230 c3        1 1BQ      0.078000
     34 H1         -0.3210    0.7290    0.3550 h1        1 1BQ      0.058033
     35 H2          0.6190    2.1740   -0.2530 h1        1 1BQ      0.058033
     36 H3          0.0300    0.8990   -1.4230 h1        1 1BQ      0.058033
     37 H4          0.9170    1.7650    1.9310 ha        1 1BQ      0.150000
     38 H5          1.9060    1.6250    4.1670 ha        1 1BQ      0.147000
     39 H6          4.7230   -1.3410    2.8050 ha        1 1BQ      0.131000
     40 H7          5.2640   -2.7870    1.0910 hn        1 1BQ      0.330700
     41 H8          4.1140   -2.6440   -2.8440 h4        1 1BQ      0.063100
     42 H9          2.0420    0.1240    5.9840 ha        1 1BQ      0.139000
     43 H10         3.0380    0.0530    8.2700 ha        1 1BQ      0.149500
     44 H11         7.0000   -0.1000    6.5410 ha        1 1BQ      0.149500
     45 H12         6.0110    0.0120    4.2590 ha        1 1BQ      0.139000
     46 H13         6.8660   -0.0620   11.1360 h1        1 1BQ      0.060450
     47 H14         8.1870   -1.1900   10.5670 h1        1 1BQ      0.060450
     48 H15         5.4180   -1.9680   11.7440 hc        1 1BQ      0.052950
     49 H16         7.0540   -2.1810   12.4870 hc        1 1BQ      0.052950
     50 H17         7.7230   -3.7580   10.7140 hc        1 1BQ      0.048700
     51 H18         4.8680   -4.5340   11.6270 hc        1 1BQ      0.059200
     52 H19         6.2690   -4.4520   12.7620 hc        1 1BQ      0.059200
     53 H20         6.1050   -6.2080   10.2050 h1        1 1BQ      0.019700
     54 H21         7.5430   -6.0930   11.3250 h1        1 1BQ      0.019700
     55 H22         6.0970   -7.7910   11.8800 ho        1 1BQ      0.400000
     56 H23         4.8900   -3.3420    9.5390 hc        1 1BQ      0.052950
     57 H24         6.1910   -4.4250    8.8980 hc        1 1BQ      0.052950
     58 H25         7.6750   -2.5510    8.4110 h1        1 1BQ      0.060450
     59 H26         6.0490   -2.2640    7.6380 h1        1 1BQ      0.060450
@<TRIPOS>BOND
     1    1    2 1   
     2    1   34 1   
     3    1   35 1   
     4    1   36 1   
     5    2    3 1   
     6    2   14 1   
     7    3    4 ar  
     8    3    8 ar  
     9    4    5 ar  
    10    4   37 1   
    11    5    6 ar  
    12    5   38 1   
    13    6    7 ar  
    14    6   17 1   
    15    7    8 ar  
    16    7   39 1   
    17    8    9 1   
    18    9   10 1   
    19    9   13 2   
    20   10   11 1   
    21   10   40 1   
    22   11   12 2   
    23   12   13 1   
    24   12   41 1   
    25   13   14 1   
    26   14   15 2   
    27   14   16 2   
    28   17   18 ar  
    29   17   22 ar  
    30   18   19 ar  
    31   18   42 1   
    32   19   20 ar  
    33   19   43 1   
    34   20   21 ar  
    35   20   23 1   
    36   21   22 ar  
    37   21   44 1   
    38   22   45 1   
    39   23   24 2   
    40   23   25 1   
    41   25   26 1   
    42   25   33 1   
    43   26   27 1   
    44   26   46 1   
    45   26   47 1   
    46   27   28 1   
    47   27   48 1   
    48   27   49 1   
    49   28   29 1   
    50   28   32 1   
    51   28   50 1   
    52   29   30 1   
    53   29   51 1   
    54   29   52 1   
    55   30   31 1   
    56   30   53 1   
    57   30   54 1   
    58   31   55 1   
    59   32   33 1   
    60   32   56 1   
    61   32   57 1   
    62   33   58 1   
    63   33   59 1   
@<TRIPOS>SUBSTRUCTURE
     1 1BQ         1 TEMP              0 ****  ****    0 ROOT
