@<TRIPOS>MOLECULE
1BQ
   59    63     1     0     0
SMALL
bcc


@<TRIPOS>ATOM
      1 C1          0.4180    1.0360   -0.3870 c3        1 1BQ      0.180100
      2 N2          1.6600    0.3200   -0.2450 nh        1 1BQ     -0.635900
      3 C3          2.2190    0.2520    1.0290 ca        1 1BQ      0.256600
      4 C4          1.7150    1.0340    2.1030 ca        1 1BQ     -0.186000
      5 C5          2.2690    0.9620    3.3690 ca        1 1BQ     -0.053000
      6 C6          3.3590    0.1160    3.6400 cp        1 1BQ     -0.081000
      7 C7          3.8730   -0.6580    2.6020 ca        1 1BQ     -0.054000
      8 C8          3.3210   -0.6110    1.3160 ca        1 1BQ     -0.136000
      9 C9          3.8410   -1.4240    0.2460 cc        1 1BQ      0.119700
     10 N10         4.8000   -2.4230    0.2900 na        1 1BQ      0.003400
     11 N12         5.0120   -2.9730   -0.9170 nc        1 1BQ     -0.510800
     12 C13         4.1940   -2.3460   -1.7900 cd        1 1BQ      0.437200
     13 C14         3.4090   -1.3310   -1.1070 cd        1 1BQ     -0.614800
     14 S15         2.2980   -0.2970   -1.6830 sy        1 1BQ      1.570200
     15 O16         1.2760   -0.9630   -2.3760 o         1 1BQ     -0.648300
     16 O17         2.8850    0.7510   -2.3980 o         1 1BQ     -0.648300
     17 C18         3.9380    0.0570    4.9790 cp        1 1BQ     -0.020000
     18 C19         3.1080    0.0470    6.1090 ca        1 1BQ     -0.128500
     19 C20         3.6580   -0.0030    7.3880 ca        1 1BQ     -0.092500
     20 C21         5.0460   -0.0560    7.5500 ca        1 1BQ     -0.128600
     21 C22         5.8810   -0.0410    6.4280 ca        1 1BQ     -0.092500
     22 C23         5.3290    0.0160    5.1510 ca        1 1BQ     -0.128500
     23 C24         5.6090   -0.0440    8.9330 c         1 1BQ      0.661700
     24 O25         5.3060    0.8720    9.7230 o         1 1BQ     -0.589100
     25 N26         6.5390   -1.0210    9.2940 n         1 1BQ     -0.449800
     26 C27         7.0490   -1.0410   10.6530 c3        1 1BQ      0.078000
     27 C28         6.4920   -2.1720   11.5170 c3        1 1BQ     -0.101400
     28 C29         6.6450   -3.5200   10.8260 c3        1 1BQ     -0.063700
     29 C30         6.0180   -4.6130   11.6740 c3        1 1BQ     -0.082400
     30 C31         6.4820   -5.9930   11.2400 c3        1 1BQ      0.132400
     31 O32         5.8750   -6.9260   12.1200 oh        1 1BQ     -0.600800
     32 C33         6.0220   -3.4630    9.4390 c3        1 1BQ     -0.101400
     33 C34         6.5960   -2.3020    8.6240 c3        1 1BQ      0.078000
     34 H1          0.0090    0.8610   -1.4210 h1        1 1BQ      0.058033
     35 H2         -0.3430    0.6740    0.3550 h1        1 1BQ      0.058033
     36 H3          0.5720    2.1400   -0.2420 h1        1 1BQ      0.058033
     37 H4          0.8720    1.7240    1.9400 ha        1 1BQ      0.150000
     38 H5          1.8570    1.5880    4.1780 ha        1 1BQ      0.147000
     39 H6          4.7290   -1.3210    2.8060 ha        1 1BQ      0.131000
     40 H7          5.3000   -2.7470    1.0850 hn        1 1BQ      0.330700
     41 H8          4.1580   -2.6010   -2.8520 h4        1 1BQ      0.063100
     42 H9          2.0150    0.0790    5.9860 ha        1 1BQ      0.139000
     43 H10         3.0060    0.0120    8.2750 ha        1 1BQ      0.149500
     44 H11         6.9750   -0.0630    6.5550 ha        1 1BQ      0.149500
     45 H12         5.9900    0.0450    4.2720 ha        1 1BQ      0.139000
     46 H13         6.8280   -0.0540   11.1500 h1        1 1BQ      0.060450
     47 H14         8.1680   -1.1580   10.5790 h1        1 1BQ      0.060450
     48 H15         7.0470   -2.1780   12.4900 hc        1 1BQ      0.052950
     49 H16         5.4100   -1.9860   11.7430 hc        1 1BQ      0.052950
     50 H17         7.7460   -3.7340   10.7110 hc        1 1BQ      0.048700
     51 H18         4.9000   -4.5610   11.6110 hc        1 1BQ      0.059200
     52 H19         6.2960   -4.4620   12.7500 hc        1 1BQ      0.059200
     53 H20         6.1670   -6.2070   10.1830 h1        1 1BQ      0.019700
     54 H21         7.6000   -6.0750   11.3070 h1        1 1BQ      0.019700
     55 H22         6.1800   -7.7990   11.8490 ho        1 1BQ      0.400000
     56 H23         6.2290   -4.4150    8.8860 hc        1 1BQ      0.052950
     57 H24         4.9100   -3.3570    9.5290 hc        1 1BQ      0.052950
     58 H25         6.0570   -2.2490    7.6380 h1        1 1BQ      0.060450
     59 H26         7.6850   -2.5150    8.4140 h1        1 1BQ      0.060450
@<TRIPOS>BOND
     1    1    2 1   
     2    1   34 1   
     3    1   35 1   
     4    1   36 1   
     5    2    3 1   
     6    2   14 1   
     7    3    4 ar  
     8    3    8 ar  
     9    4    5 ar  
    10    4   37 1   
    11    5    6 ar  
    12    5   38 1   
    13    6    7 ar  
    14    6   17 1   
    15    7    8 ar  
    16    7   39 1   
    17    8    9 1   
    18    9   10 1   
    19    9   13 2   
    20   10   11 1   
    21   10   40 1   
    22   11   12 2   
    23   12   13 1   
    24   12   41 1   
    25   13   14 1   
    26   14   15 2   
    27   14   16 2   
    28   17   18 ar  
    29   17   22 ar  
    30   18   19 ar  
    31   18   42 1   
    32   19   20 ar  
    33   19   43 1   
    34   20   21 ar  
    35   20   23 1   
    36   21   22 ar  
    37   21   44 1   
    38   22   45 1   
    39   23   24 2   
    40   23   25 1   
    41   25   26 1   
    42   25   33 1   
    43   26   27 1   
    44   26   46 1   
    45   26   47 1   
    46   27   28 1   
    47   27   48 1   
    48   27   49 1   
    49   28   29 1   
    50   28   32 1   
    51   28   50 1   
    52   29   30 1   
    53   29   51 1   
    54   29   52 1   
    55   30   31 1   
    56   30   53 1   
    57   30   54 1   
    58   31   55 1   
    59   32   33 1   
    60   32   56 1   
    61   32   57 1   
    62   33   58 1   
    63   33   59 1   
@<TRIPOS>SUBSTRUCTURE
     1 1BQ         1 TEMP              0 ****  ****    0 ROOT
