@<TRIPOS>MOLECULE
1BQ
   59    63     1     0     0
SMALL
bcc


@<TRIPOS>ATOM
      1 C1         -6.1560    1.3770    2.0090 c3        1 1BQ      0.180100
      2 N2         -5.5130    0.5370    1.0300 nh        1 1BQ     -0.634900
      3 C3         -4.1460    0.7210    0.8270 ca        1 1BQ      0.256600
      4 C4         -3.4540    1.8260    1.3900 ca        1 1BQ     -0.186000
      5 C5         -2.0970    2.0030    1.1890 ca        1 1BQ     -0.053000
      6 C6         -1.3510    1.0990    0.4140 cp        1 1BQ     -0.081000
      7 C7         -2.0070    0.0080   -0.1510 ca        1 1BQ     -0.054000
      8 C8         -3.3780   -0.1990    0.0480 ca        1 1BQ     -0.136000
      9 C9         -4.0560   -1.3350   -0.5220 cc        1 1BQ      0.119700
     10 N10        -3.5270   -2.4250   -1.1940 na        1 1BQ      0.003400
     11 N12        -4.4780   -3.2990   -1.5650 nc        1 1BQ     -0.510800
     12 C13        -5.6610   -2.8040   -1.1430 cd        1 1BQ      0.437200
     13 C14        -5.4640   -1.5360   -0.4630 cd        1 1BQ     -0.614800
     14 S15        -6.5410   -0.5290    0.2160 sy        1 1BQ      1.570200
     15 O16        -7.3430   -1.1840    1.1610 o         1 1BQ     -0.648300
     16 O17        -7.2600    0.1890   -0.7450 o         1 1BQ     -0.648300
     17 C18         0.0810    1.3040    0.2060 cp        1 1BQ     -0.020000
     18 C19         0.8980    1.7210    1.2660 ca        1 1BQ     -0.128500
     19 C20         2.2610    1.9230    1.0680 ca        1 1BQ     -0.092500
     20 C21         2.8260    1.6990   -0.1920 ca        1 1BQ     -0.128600
     21 C22         2.0170    1.2880   -1.2560 ca        1 1BQ     -0.092500
     22 C23         0.6520    1.0920   -1.0570 ca        1 1BQ     -0.128500
     23 C24         4.2770    1.9850   -0.3900 c         1 1BQ      0.661700
     24 O25         4.7350    3.1120   -0.1150 o         1 1BQ     -0.589100
     25 N26         5.0890    1.0050   -0.9650 n         1 1BQ     -0.449800
     26 C27         6.5100    1.2640   -1.1120 c3        1 1BQ      0.078000
     27 C28         7.3940    0.5000   -0.1260 c3        1 1BQ     -0.101400
     28 C29         7.0760   -0.9880   -0.1410 c3        1 1BQ     -0.063700
     29 C30         7.9170   -1.7090    0.8980 c3        1 1BQ     -0.082400
     30 C31         7.9370   -3.2090    0.6590 c3        1 1BQ      0.132400
     31 O32         8.7800   -3.7730    1.6530 oh        1 1BQ     -0.600800
     32 C33         5.5890   -1.2020    0.0990 c3        1 1BQ     -0.101400
     33 C34         4.7500   -0.3990   -0.8970 c3        1 1BQ      0.078000
     34 H1         -6.2080    2.4420    1.6530 h1        1 1BQ      0.058033
     35 H2         -7.2030    1.0020    2.1830 h1        1 1BQ      0.058033
     36 H3         -5.6070    1.3470    2.9880 h1        1 1BQ      0.058033
     37 H4         -3.9960    2.5720    1.9920 ha        1 1BQ      0.150000
     38 H5         -1.5920    2.8770    1.6350 ha        1 1BQ      0.147000
     39 H6         -1.4300   -0.7040   -0.7620 ha        1 1BQ      0.131000
     40 H7         -2.5710   -2.6030   -1.4020 hn        1 1BQ      0.330700
     41 H8         -6.6100   -3.3210   -1.3100 h4        1 1BQ      0.063100
     42 H9          0.4590    1.8910    2.2610 ha        1 1BQ      0.139000
     43 H10         2.8970    2.2730    1.8960 ha        1 1BQ      0.149500
     44 H11         2.4560    1.1290   -2.2530 ha        1 1BQ      0.149500
     45 H12         0.0160    0.7850   -1.9010 ha        1 1BQ      0.139000
     46 H13         6.7890    0.9590   -2.1620 h1        1 1BQ      0.060200
     47 H14         6.7020    2.3690   -1.0010 h1        1 1BQ      0.060200
     48 H15         8.4640    0.6640   -0.4130 hc        1 1BQ      0.052950
     49 H16         7.2530    0.9050    0.9090 hc        1 1BQ      0.052950
     50 H17         7.3320   -1.3930   -1.1610 hc        1 1BQ      0.048700
     51 H18         8.9720   -1.3260    0.8630 hc        1 1BQ      0.059200
     52 H19         7.5250   -1.5030    1.9270 hc        1 1BQ      0.059200
     53 H20         6.9040   -3.6420    0.7470 h1        1 1BQ      0.019700
     54 H21         8.3410   -3.4430   -0.3630 h1        1 1BQ      0.019700
     55 H22         8.7990   -4.7230    1.4910 ho        1 1BQ      0.400000
     56 H23         5.3330   -2.2860   -0.0210 hc        1 1BQ      0.052950
     57 H24         5.3300   -0.9040    1.1480 hc        1 1BQ      0.052950
     58 H25         3.6620   -0.5240   -0.6390 h1        1 1BQ      0.060200
     59 H26         4.9130   -0.8270   -1.9300 h1        1 1BQ      0.060200
@<TRIPOS>BOND
     1    1    2 1   
     2    1   34 1   
     3    1   35 1   
     4    1   36 1   
     5    2    3 1   
     6    2   14 1   
     7    3    4 ar  
     8    3    8 ar  
     9    4    5 ar  
    10    4   37 1   
    11    5    6 ar  
    12    5   38 1   
    13    6    7 ar  
    14    6   17 1   
    15    7    8 ar  
    16    7   39 1   
    17    8    9 1   
    18    9   10 1   
    19    9   13 2   
    20   10   11 1   
    21   10   40 1   
    22   11   12 2   
    23   12   13 1   
    24   12   41 1   
    25   13   14 1   
    26   14   15 2   
    27   14   16 2   
    28   17   18 ar  
    29   17   22 ar  
    30   18   19 ar  
    31   18   42 1   
    32   19   20 ar  
    33   19   43 1   
    34   20   21 ar  
    35   20   23 1   
    36   21   22 ar  
    37   21   44 1   
    38   22   45 1   
    39   23   24 2   
    40   23   25 1   
    41   25   26 1   
    42   25   33 1   
    43   26   27 1   
    44   26   46 1   
    45   26   47 1   
    46   27   28 1   
    47   27   48 1   
    48   27   49 1   
    49   28   29 1   
    50   28   32 1   
    51   28   50 1   
    52   29   30 1   
    53   29   51 1   
    54   29   52 1   
    55   30   31 1   
    56   30   53 1   
    57   30   54 1   
    58   31   55 1   
    59   32   33 1   
    60   32   56 1   
    61   32   57 1   
    62   33   58 1   
    63   33   59 1   
@<TRIPOS>SUBSTRUCTURE
     1 1BQ         1 TEMP              0 ****  ****    0 ROOT
