@<TRIPOS>MOLECULE
1BQ
   59    63     1     0     0
SMALL
bcc


@<TRIPOS>ATOM
      1 C1          0.4210    1.0490   -0.3830 c3        1 1BQ      0.180100
      2 N2          1.6600    0.3280   -0.2420 nh        1 1BQ     -0.634900
      3 C3          2.2210    0.2590    1.0320 ca        1 1BQ      0.256600
      4 C4          1.7210    1.0430    2.1060 ca        1 1BQ     -0.186000
      5 C5          2.2770    0.9700    3.3700 ca        1 1BQ     -0.053000
      6 C6          3.3640    0.1210    3.6400 cp        1 1BQ     -0.081000
      7 C7          3.8740   -0.6570    2.6030 ca        1 1BQ     -0.054000
      8 C8          3.3200   -0.6080    1.3170 ca        1 1BQ     -0.136000
      9 C9          3.8350   -1.4240    0.2470 cc        1 1BQ      0.119700
     10 N10         4.7900   -2.4260    0.2900 na        1 1BQ      0.003400
     11 N12         4.9980   -2.9780   -0.9170 nc        1 1BQ     -0.510800
     12 C13         4.1810   -2.3490   -1.7890 cd        1 1BQ      0.437200
     13 C14         3.4010   -1.3310   -1.1060 cd        1 1BQ     -0.614800
     14 S15         2.2930   -0.2940   -1.6810 sy        1 1BQ      1.570200
     15 O16         1.2670   -0.9560   -2.3700 o         1 1BQ     -0.648300
     16 O17         2.8820    0.7510   -2.3990 o         1 1BQ     -0.648300
     17 C18         3.9450    0.0590    4.9790 cp        1 1BQ     -0.020000
     18 C19         3.1160    0.0540    6.1100 ca        1 1BQ     -0.128500
     19 C20         3.6680    0.0020    7.3880 ca        1 1BQ     -0.092500
     20 C21         5.0570   -0.0560    7.5480 ca        1 1BQ     -0.128600
     21 C22         5.8900   -0.0460    6.4260 ca        1 1BQ     -0.092500
     22 C23         5.3360    0.0130    5.1490 ca        1 1BQ     -0.128500
     23 C24         5.6210   -0.0460    8.9300 c         1 1BQ      0.661700
     24 O25         5.3240    0.8720    9.7200 o         1 1BQ     -0.589100
     25 N26         6.5470   -1.0280    9.2910 n         1 1BQ     -0.449800
     26 C27         7.0580   -1.0490   10.6490 c3        1 1BQ      0.078000
     27 C28         6.4960   -2.1770   11.5150 c3        1 1BQ     -0.101400
     28 C29         6.6420   -3.5260   10.8240 c3        1 1BQ     -0.063700
     29 C30         6.0110   -4.6150   11.6740 c3        1 1BQ     -0.082400
     30 C31         6.4670   -5.9980   11.2410 c3        1 1BQ      0.132400
     31 O32         5.8560   -6.9270   12.1220 oh        1 1BQ     -0.600800
     32 C33         6.0180   -3.4670    9.4380 c3        1 1BQ     -0.101400
     33 C34         6.5960   -2.3090    8.6220 c3        1 1BQ      0.078000
     34 H1          0.5800    2.1520   -0.2390 h1        1 1BQ      0.058033
     35 H2          0.0090    0.8750   -1.4160 h1        1 1BQ      0.058033
     36 H3         -0.3410    0.6910    0.3600 h1        1 1BQ      0.058033
     37 H4          0.8810    1.7360    1.9430 ha        1 1BQ      0.150000
     38 H5          1.8690    1.5980    4.1790 ha        1 1BQ      0.147000
     39 H6          4.7270   -1.3230    2.8050 ha        1 1BQ      0.131000
     40 H7          5.2910   -2.7520    1.0850 hn        1 1BQ      0.330700
     41 H8          4.1420   -2.6050   -2.8510 h4        1 1BQ      0.063100
     42 H9          2.0230    0.0910    5.9890 ha        1 1BQ      0.139000
     43 H10         3.0170    0.0210    8.2760 ha        1 1BQ      0.149500
     44 H11         6.9830   -0.0720    6.5510 ha        1 1BQ      0.149500
     45 H12         5.9960    0.0380    4.2680 ha        1 1BQ      0.139000
     46 H13         8.1770   -1.1720   10.5730 h1        1 1BQ      0.060450
     47 H14         6.8430   -0.0610   11.1460 h1        1 1BQ      0.060450
     48 H15         5.4160   -1.9850   11.7420 hc        1 1BQ      0.052950
     49 H16         7.0530   -2.1850   12.4870 hc        1 1BQ      0.052950
     50 H17         7.7420   -3.7460   10.7080 hc        1 1BQ      0.048700
     51 H18         4.8930   -4.5570   11.6130 hc        1 1BQ      0.059200
     52 H19         6.2910   -4.4650   12.7500 hc        1 1BQ      0.059200
     53 H20         7.5850   -6.0860   11.3060 h1        1 1BQ      0.019700
     54 H21         6.1500   -6.2110   10.1840 h1        1 1BQ      0.019700
     55 H22         6.1560   -7.8020   11.8510 ho        1 1BQ      0.400000
     56 H23         6.2200   -4.4200    8.8860 hc        1 1BQ      0.052950
     57 H24         4.9060   -3.3550    9.5300 hc        1 1BQ      0.052950
     58 H25         6.0570   -2.2550    7.6360 h1        1 1BQ      0.060450
     59 H26         7.6840   -2.5280    8.4110 h1        1 1BQ      0.060450
@<TRIPOS>BOND
     1    1    2 1   
     2    1   34 1   
     3    1   35 1   
     4    1   36 1   
     5    2    3 1   
     6    2   14 1   
     7    3    4 ar  
     8    3    8 ar  
     9    4    5 ar  
    10    4   37 1   
    11    5    6 ar  
    12    5   38 1   
    13    6    7 ar  
    14    6   17 1   
    15    7    8 ar  
    16    7   39 1   
    17    8    9 1   
    18    9   10 1   
    19    9   13 2   
    20   10   11 1   
    21   10   40 1   
    22   11   12 2   
    23   12   13 1   
    24   12   41 1   
    25   13   14 1   
    26   14   15 2   
    27   14   16 2   
    28   17   18 ar  
    29   17   22 ar  
    30   18   19 ar  
    31   18   42 1   
    32   19   20 ar  
    33   19   43 1   
    34   20   21 ar  
    35   20   23 1   
    36   21   22 ar  
    37   21   44 1   
    38   22   45 1   
    39   23   24 2   
    40   23   25 1   
    41   25   26 1   
    42   25   33 1   
    43   26   27 1   
    44   26   46 1   
    45   26   47 1   
    46   27   28 1   
    47   27   48 1   
    48   27   49 1   
    49   28   29 1   
    50   28   32 1   
    51   28   50 1   
    52   29   30 1   
    53   29   51 1   
    54   29   52 1   
    55   30   31 1   
    56   30   53 1   
    57   30   54 1   
    58   31   55 1   
    59   32   33 1   
    60   32   56 1   
    61   32   57 1   
    62   33   58 1   
    63   33   59 1   
@<TRIPOS>SUBSTRUCTURE
     1 1BQ         1 TEMP              0 ****  ****    0 ROOT
