@<TRIPOS>MOLECULE
1BR
   55    58     1     0     0
SMALL
bcc


@<TRIPOS>ATOM
      1 C1          0.3230    0.5780   -0.2710 c3        1 1BR      0.189100
      2 N2          1.7200    0.2810   -0.1170 nh        1 1BR     -0.650900
      3 C3          2.1940    0.0520    1.1820 ca        1 1BR      0.191600
      4 C4          1.5190    0.5750    2.3100 ca        1 1BR     -0.140000
      5 C5          2.0010    0.3970    3.5940 ca        1 1BR     -0.124000
      6 C6          3.2040   -0.3080    3.8300 ca        1 1BR      0.110600
      7 N7          3.6750   -0.5570    5.1310 nu        1 1BR     -0.718600
      8 C8          3.3410    0.4110    6.1600 c3        1 1BR      0.227100
      9 C9          4.2950    0.3960    7.3160 ca        1 1BR     -0.118300
     10 C10         4.9690    1.5630    7.6890 ca        1 1BR     -0.115000
     11 C11         5.8300    1.5540    8.7830 ca        1 1BR     -0.130500
     12 C12         6.0430    0.3820    9.5250 ca        1 1BR     -0.053300
     13 C13         5.3680   -0.7810    9.1420 ca        1 1BR     -0.130500
     14 C14         4.5020   -0.7750    8.0490 ca        1 1BR     -0.115000
     15 C15         6.9850    0.4190   10.7000 c3        1 1BR     -0.012700
     16 C16         7.1020   -0.9330   11.3930 c3        1 1BR     -0.086100
     17 C17         8.3750    0.8320   10.2220 c3        1 1BR     -0.086100
     18 C18         6.4800    1.4350   11.7210 c3        1 1BR     -0.086100
     19 C19         3.8810   -0.8430    2.7160 ca        1 1BR     -0.140000
     20 C20         3.3770   -0.7120    1.4200 ca        1 1BR     -0.080000
     21 C21         4.0390   -1.2940    0.2710 cc        1 1BR      0.110700
     22 C22         3.7670   -0.8640   -1.0620 cd        1 1BR     -0.608800
     23 C23         4.6120   -1.7060   -1.8810 cd        1 1BR      0.436200
     24 N24         5.3110   -2.5620   -1.1110 nc        1 1BR     -0.514800
     25 N25         4.9690   -2.3240    0.1790 na        1 1BR      0.117400
     26 C26         5.4810   -3.1250    1.2670 c3        1 1BR      0.027600
     27 S27         2.6950    0.2890   -1.4800 sy        1 1BR      1.571200
     28 O28         1.9320   -0.0990   -2.5950 o         1 1BR     -0.653800
     29 O29         3.3060    1.5410   -1.6110 o         1 1BR     -0.653800
     30 H1          0.1070    1.6450    0.0120 h1        1 1BR      0.054700
     31 H2         -0.3040   -0.0960    0.3720 h1        1 1BR      0.054700
     32 H3          0.0270    0.4180   -1.3450 h1        1 1BR      0.054700
     33 H4          0.5900    1.1530    2.1750 ha        1 1BR      0.146000
     34 H5          1.4310    0.8180    4.4380 ha        1 1BR      0.143000
     35 H6          4.6380   -0.8300    5.1510 hn        1 1BR      0.395800
     36 H7          2.3090    0.1480    6.5390 h1        1 1BR      0.049700
     37 H8          3.2850    1.4580    5.7360 h1        1 1BR      0.049700
     38 H9          4.8180    2.4930    7.1210 ha        1 1BR      0.137500
     39 H10         6.3490    2.4830    9.0650 ha        1 1BR      0.137000
     40 H11         5.5050   -1.7220    9.6970 ha        1 1BR      0.137000
     41 H12         3.9730   -1.6980    7.7650 ha        1 1BR      0.137500
     42 H13         7.4940   -1.7050   10.6880 hc        1 1BR      0.038256
     43 H14         6.1100   -1.2630   11.7840 hc        1 1BR      0.038256
     44 H15         7.8100   -0.8530   12.2540 hc        1 1BR      0.038256
     45 H16         9.0810    0.8600   11.0870 hc        1 1BR      0.038256
     46 H17         8.7580    0.1020    9.4700 hc        1 1BR      0.038256
     47 H18         8.3460    1.8450    9.7550 hc        1 1BR      0.038256
     48 H19         5.4610    1.1530   12.0770 hc        1 1BR      0.038256
     49 H20         7.1700    1.4660   12.5980 hc        1 1BR      0.038256
     50 H21         6.4320    2.4550   11.2710 hc        1 1BR      0.038256
     51 H22         4.8380   -1.3640    2.8710 ha        1 1BR      0.134000
     52 H23         4.6980   -1.6900   -2.9710 h4        1 1BR      0.062100
     53 H24         4.6470   -3.3390    1.9890 h1        1 1BR      0.068033
     54 H25         5.8900   -4.0960    0.8770 h1        1 1BR      0.068033
     55 H26         6.3060   -2.5670    1.7860 h1        1 1BR      0.068033
@<TRIPOS>BOND
     1    1    2 1   
     2    1   30 1   
     3    1   31 1   
     4    1   32 1   
     5    2    3 1   
     6    2   27 1   
     7    3    4 ar  
     8    3   20 ar  
     9    4    5 ar  
    10    4   33 1   
    11    5    6 ar  
    12    5   34 1   
    13    6    7 1   
    14    6   19 ar  
    15    7    8 1   
    16    7   35 1   
    17    8    9 1   
    18    8   36 1   
    19    8   37 1   
    20    9   10 ar  
    21    9   14 ar  
    22   10   11 ar  
    23   10   38 1   
    24   11   12 ar  
    25   11   39 1   
    26   12   13 ar  
    27   12   15 1   
    28   13   14 ar  
    29   13   40 1   
    30   14   41 1   
    31   15   16 1   
    32   15   17 1   
    33   15   18 1   
    34   16   42 1   
    35   16   43 1   
    36   16   44 1   
    37   17   45 1   
    38   17   46 1   
    39   17   47 1   
    40   18   48 1   
    41   18   49 1   
    42   18   50 1   
    43   19   20 ar  
    44   19   51 1   
    45   20   21 1   
    46   21   22 2   
    47   21   25 1   
    48   22   23 1   
    49   22   27 1   
    50   23   24 2   
    51   23   52 1   
    52   24   25 1   
    53   25   26 1   
    54   26   53 1   
    55   26   54 1   
    56   26   55 1   
    57   27   28 2   
    58   27   29 2   
@<TRIPOS>SUBSTRUCTURE
     1 1BR         1 TEMP              0 ****  ****    0 ROOT
