@<TRIPOS>MOLECULE
1BR
   55    48     1     0     0
SMALL
bcc


@<TRIPOS>ATOM
      1 C1         -4.4450    2.3860   -4.7410 c3        1 1BR     -0.088000
      2 N2         -3.2510    1.6080   -4.8210 n3        1 1BR     -0.747000
      3 C3         -2.3540    1.5190   -3.6610 c1        1 1BR      0.110000
      4 C4         -2.4450    2.4790   -2.6760 c1        1 1BR     -0.132500
      5 C5         -1.7880    2.2880   -1.4370 c1        1 1BR     -0.132500
      6 C6         -1.0370    1.1150   -1.2060 c1        1 1BR      0.031000
      7 N7         -0.2000    0.7750   -0.0050 n2        1 1BR     -0.276000
      8 C8         -0.6330    1.1900    1.3170 c3        1 1BR     -0.015000
      9 C9          0.3130    0.5790    2.3920 c1        1 1BR     -0.111000
     10 C10         1.3530    1.3500    2.9330 c1        1 1BR     -0.113000
     11 C11         2.1730    0.8160    3.9320 c1        1 1BR     -0.131000
     12 C12         1.9640   -0.4420    4.3770 c1        1 1BR     -0.047000
     13 C13         0.9090   -1.2230    3.8290 c2        1 1BR     -0.130000
     14 C14         0.1000   -0.6970    2.8440 c1        1 1BR     -0.118000
     15 C15         2.8550   -1.0170    5.5150 c2        1 1BR     -0.019000
     16 C16         2.3520   -2.4170    5.9090 c3        1 1BR     -0.204000
     17 C17         4.3390   -1.1240    5.0150 c3        1 1BR     -0.204000
     18 C18         2.7950   -0.0660    6.7440 c3        1 1BR     -0.204000
     19 C19        -0.9390    0.1310   -2.2060 c1        1 1BR     -0.142000
     20 C20        -1.5840    0.3140   -3.4240 c1        1 1BR     -0.079000
     21 C21        -1.3020   -0.6460   -4.5570 c2        1 1BR      0.137000
     22 C22        -1.7730   -0.3810   -5.8200 c1        1 1BR     -0.988000
     23 C23        -1.2690   -1.3250   -6.6690 c1        1 1BR     -0.030000
     24 N24        -0.4930   -2.1690   -5.9440 n2        1 1BR     -0.082000
     25 N25        -0.5140   -1.7440   -4.6270 n2        1 1BR     -0.097000
     26 C26         0.6580   -2.4110   -4.1160 c2        1 1BR     -0.070000
     27 S27        -2.9830    0.7670   -6.0390 s4        1 1BR      2.126800
     28 O28        -4.1860    0.1290   -6.4070 o         1 1BR     -0.541400
     29 O29        -2.5750    1.6190   -7.0900 o         1 1BR     -0.541400
     30 H1         -5.0650    2.1050   -5.4470 h1        1 1BR      0.094000
     31 H2         -4.2380    3.2830   -4.8480 h1        1 1BR      0.094000
     32 H3         -4.8830    2.2430   -3.8240 h1        1 1BR      0.094000
     33 H4         -2.9480    3.2660   -2.8270 ha        1 1BR      0.144500
     34 H5         -1.8780    2.9420   -0.7440 ha        1 1BR      0.144500
     35 H6          0.6420    0.4030   -0.1190 hn        1 1BR      0.192000
     36 H7         -0.6090    2.1620    1.3760 h1        1 1BR      0.088500
     37 H8         -1.5260    0.8820    1.4690 h1        1 1BR      0.088500
     38 H9          1.5060    2.2690    2.6070 ha        1 1BR      0.143000
     39 H10         2.9030    1.3560    4.3110 ha        1 1BR      0.136000
     40 H11         0.7610   -2.1060    4.1430 ha        1 1BR      0.138000
     41 H12        -0.6000   -1.2150    2.4810 ha        1 1BR      0.132000
     42 H13         2.9160   -2.7720    6.6680 hc        1 1BR      0.077444
     43 H14         1.3410   -2.3650    6.2160 hc        1 1BR      0.077444
     44 H15         2.4300   -3.0280    5.1250 hc        1 1BR      0.077444
     45 H16         4.6500   -0.2950    4.8000 hc        1 1BR      0.077444
     46 H17         4.3720   -1.7130    4.2080 hc        1 1BR      0.077444
     47 H18         4.9210   -1.5220    5.7510 hc        1 1BR      0.077444
     48 H19         1.8870   -0.0230    7.0770 hc        1 1BR      0.077444
     49 H20         3.3480   -0.3830    7.4030 hc        1 1BR      0.077444
     50 H21         3.0930    0.8510    6.4690 hc        1 1BR      0.077444
     51 H22        -0.4370   -0.6530   -2.0510 ha        1 1BR      0.134000
     52 H23        -1.4380   -1.3820   -7.6220 DU        1 1BR      0.199000
     53 H24         1.4470   -1.7460   -4.0830 ha        1 1BR      0.106667
     54 H25         0.4680   -2.7640   -3.1670 ha        1 1BR      0.106667
     55 H26         0.9000   -3.2000   -4.7330 ha        1 1BR      0.106667
@<TRIPOS>BOND
     1    1    2 1   
     2    1   30 1   
     3    1   31 1   
     4    1   32 1   
     5    2    3 1   
     6    2   27 1   
     7    3   20 1   
     8    4    5 1   
     9    4   33 1   
    10    5   34 1   
    11    6   19 1   
    12    7    8 1   
    13    7   35 1   
    14    8    9 1   
    15    8   36 1   
    16    8   37 1   
    17    9   10 1   
    18   10   38 1   
    19   11   12 1   
    20   11   39 1   
    21   12   13 1   
    22   13   14 1   
    23   13   40 1   
    24   14   41 1   
    25   15   16 1   
    26   15   17 1   
    27   15   18 1   
    28   16   42 1   
    29   16   43 1   
    30   16   44 1   
    31   17   45 1   
    32   17   46 1   
    33   17   47 1   
    34   18   48 1   
    35   18   49 1   
    36   18   50 1   
    37   19   51 1   
    38   20   21 1   
    39   21   22 1   
    40   21   25 1   
    41   22   23 1   
    42   23   24 1   
    43   24   25 1   
    44   26   53 1   
    45   26   54 1   
    46   26   55 1   
    47   27   28 1   
    48   27   29 1   
@<TRIPOS>SUBSTRUCTURE
     1 1BR         1 TEMP              0 ****  ****    0 ROOT
