@<TRIPOS>MOLECULE
1BR
   56    59     1     0     0
SMALL
bcc


@<TRIPOS>ATOM
      1 C1          0.6400    1.2880   -0.3550 c3        1 1BR      0.160100
      2 N2          1.8260    0.4800   -0.2070 nh        1 1BR     -0.598900
      3 C3          2.4230    0.4140    1.0300 ca        1 1BR      0.300600
      4 C4          2.1070    1.3520    2.0590 ca        1 1BR     -0.174000
      5 C5          2.7840    1.3710    3.2590 ca        1 1BR     -0.046000
      6 C6          3.8160    0.4400    3.4990 ca        1 1BR     -0.134400
      7 N7          4.5810    0.5120    4.7400 n4        1 1BR     -0.620400
      8 C8          3.8440   -0.0890    5.9110 c3        1 1BR      0.181100
      9 C9          4.6450    0.0480    7.1560 ca        1 1BR     -0.208300
     10 C10         4.5490    1.2130    7.9290 ca        1 1BR     -0.097000
     11 C11         5.2710    1.3240    9.1120 ca        1 1BR     -0.124000
     12 C12         6.1030    0.2800    9.5530 ca        1 1BR     -0.000300
     13 C13         6.1880   -0.8810    8.7730 ca        1 1BR     -0.124000
     14 C14         5.4670   -0.9970    7.5860 ca        1 1BR     -0.097000
     15 C15         6.8620    0.4420   10.8440 c3        1 1BR     -0.023700
     16 C16         7.7150   -0.7780   11.1720 c3        1 1BR     -0.090767
     17 C17         7.7820    1.6560   10.7380 c3        1 1BR     -0.090767
     18 C18         5.8710    0.6550   11.9860 c3        1 1BR     -0.090767
     19 C19         4.1070   -0.5420    2.5420 ca        1 1BR     -0.036000
     20 C20         3.4050   -0.5930    1.3410 ca        1 1BR     -0.106000
     21 C21         3.6370   -1.6270    0.3520 cc        1 1BR      0.083700
     22 C22         3.2180   -1.4880   -1.0030 cd        1 1BR     -0.605800
     23 C23         3.6070   -2.7400   -1.6210 cd        1 1BR      0.447200
     24 N24         4.1940   -3.5450   -0.7140 nc        1 1BR     -0.483800
     25 N25         4.2120   -2.8880    0.4700 na        1 1BR      0.130400
     26 C26         4.7150   -3.5060    1.6750 c3        1 1BR      0.023600
     27 S27         2.4600   -0.2070   -1.6510 sy        1 1BR      1.565200
     28 O28         1.3910   -0.5800   -2.4630 o         1 1BR     -0.620300
     29 O29         3.3540    0.7150   -2.1850 o         1 1BR     -0.620300
     30 H1          0.8960    2.3830   -0.3310 h1        1 1BR      0.072367
     31 H2          0.1540    1.0490   -1.3430 h1        1 1BR      0.072367
     32 H3         -0.1030    1.0680    0.4570 h1        1 1BR      0.072367
     33 H4          1.3170    2.1050    1.8920 ha        1 1BR      0.176000
     34 H5          2.5200    2.1300    4.0150 ha        1 1BR      0.154000
     35 H6          5.4760    0.0240    4.6230 hn        1 1BR      0.450800
     36 H7          3.6440   -1.1700    5.6650 hx        1 1BR      0.105700
     37 H8          2.8570    0.4500    5.9960 hx        1 1BR      0.105700
     38 H9          3.8890    2.0350    7.6130 ha        1 1BR      0.134000
     39 H10         5.1830    2.2440    9.7140 ha        1 1BR      0.160000
     40 H11         6.8220   -1.7250    9.0900 ha        1 1BR      0.160000
     41 H12         5.5370   -1.9260    7.0000 ha        1 1BR      0.134000
     42 H13         8.2580   -0.6040   12.1330 hc        1 1BR      0.045700
     43 H14         8.4720   -0.9590   10.3720 hc        1 1BR      0.045700
     44 H15         7.0780   -1.6860   11.2920 hc        1 1BR      0.045700
     45 H16         7.1930    2.5850   10.5530 hc        1 1BR      0.045700
     46 H17         8.3480    1.7810   11.6920 hc        1 1BR      0.045700
     47 H18         8.5130    1.5190    9.9060 hc        1 1BR      0.045700
     48 H19         5.1840   -0.2200   12.0730 hc        1 1BR      0.045700
     49 H20         6.4270    0.7700   12.9480 hc        1 1BR      0.045700
     50 H21         5.2630    1.5750   11.8170 hc        1 1BR      0.045700
     51 H22         4.9120   -1.2740    2.7280 ha        1 1BR      0.148000
     52 H23         3.4610   -3.0390   -2.6650 h4        1 1BR      0.080100
     53 H24         4.7820   -4.6210    1.5410 h1        1 1BR      0.071033
     54 H25         4.0160   -3.2810    2.5240 h1        1 1BR      0.071033
     55 H26         5.7420   -3.1100    1.8980 h1        1 1BR      0.071033
     56 H72         4.7840    1.4980    4.9500 hn        1 1BR      0.450800
@<TRIPOS>BOND
     1    1    2 1   
     2    1   30 1   
     3    1   31 1   
     4    1   32 1   
     5    2    3 1   
     6    2   27 1   
     7    3    4 ar  
     8    3   20 ar  
     9    4    5 ar  
    10    4   33 1   
    11    5    6 ar  
    12    5   34 1   
    13    6    7 1   
    14    6   19 ar  
    15    7    8 1   
    16    7   35 1   
    17    7   56 1   
    18    8    9 1   
    19    8   36 1   
    20    8   37 1   
    21    9   10 ar  
    22    9   14 ar  
    23   10   11 ar  
    24   10   38 1   
    25   11   12 ar  
    26   11   39 1   
    27   12   13 ar  
    28   12   15 1   
    29   13   14 ar  
    30   13   40 1   
    31   14   41 1   
    32   15   16 1   
    33   15   17 1   
    34   15   18 1   
    35   16   42 1   
    36   16   43 1   
    37   16   44 1   
    38   17   45 1   
    39   17   46 1   
    40   17   47 1   
    41   18   48 1   
    42   18   49 1   
    43   18   50 1   
    44   19   20 ar  
    45   19   51 1   
    46   20   21 1   
    47   21   22 2   
    48   21   25 1   
    49   22   23 1   
    50   22   27 1   
    51   23   24 2   
    52   23   52 1   
    53   24   25 1   
    54   25   26 1   
    55   26   53 1   
    56   26   54 1   
    57   26   55 1   
    58   27   28 2   
    59   27   29 2   
@<TRIPOS>SUBSTRUCTURE
     1 1BR         1 TEMP              0 ****  ****    0 ROOT
