@<TRIPOS>MOLECULE
1BR
   55    58     1     0     0
SMALL
bcc


@<TRIPOS>ATOM
      1 C1          4.7290    2.6770   -0.3010 c3        1 1BR      0.189100
      2 N2          4.1890    1.4050    0.0920 nh        1 1BR     -0.650900
      3 C3          2.8320    1.1700   -0.1660 ca        1 1BR      0.191600
      4 C4          1.9190    2.2410   -0.3080 ca        1 1BR     -0.140000
      5 C5          0.5690    2.0250   -0.5160 ca        1 1BR     -0.124000
      6 C6          0.0430    0.7140   -0.5800 ca        1 1BR      0.110600
      7 N7         -1.3150    0.4720   -0.8580 nh        1 1BR     -0.718600
      8 C8         -2.2720    1.4780   -0.4340 c3        1 1BR      0.227100
      9 C9         -3.6560    0.9300   -0.2470 ca        1 1BR     -0.118300
     10 C10        -4.3090    1.0730    0.9810 ca        1 1BR     -0.115000
     11 C11        -5.6060    0.5940    1.1440 ca        1 1BR     -0.130500
     12 C12        -6.2780   -0.0430    0.0900 ca        1 1BR     -0.053300
     13 C13        -5.6150   -0.1840   -1.1350 ca        1 1BR     -0.130500
     14 C14        -4.3170    0.2980   -1.3020 ca        1 1BR     -0.115000
     15 C15        -7.6800   -0.5480    0.3110 c3        1 1BR     -0.012700
     16 C16        -8.2620   -1.2110   -0.9310 c3        1 1BR     -0.086100
     17 C17        -7.6760   -1.5730    1.4420 c3        1 1BR     -0.086100
     18 C18        -8.5840    0.6220    0.6940 c3        1 1BR     -0.086100
     19 C19         0.9430   -0.3620   -0.4520 ca        1 1BR     -0.140000
     20 C20         2.3140   -0.1540   -0.2910 ca        1 1BR     -0.080000
     21 C21         3.2570   -1.2510   -0.2010 cc        1 1BR      0.110700
     22 C22         4.5690   -1.0830    0.3320 cd        1 1BR     -0.608800
     23 C23         5.1650   -2.3970    0.2160 cd        1 1BR      0.436200
     24 N24         4.2940   -3.2610   -0.3420 nc        1 1BR     -0.514800
     25 N25         3.1510   -2.5800   -0.6000 na        1 1BR      0.117400
     26 C26         2.0300   -3.1920   -1.2740 c3        1 1BR      0.027600
     27 S27         5.1920    0.3180    0.8800 sy        1 1BR      1.571200
     28 O28         6.5130    0.5020    0.4350 o         1 1BR     -0.653800
     29 O29         5.0300    0.4510    2.2640 o         1 1BR     -0.653800
     30 H1          5.8520    2.6070   -0.3360 h1        1 1BR      0.054700
     31 H2          4.3620    2.9730   -1.3190 h1        1 1BR      0.054700
     32 H3          4.4370    3.4780    0.4320 h1        1 1BR      0.054700
     33 H4          2.2770    3.2810   -0.2400 ha        1 1BR      0.146000
     34 H5         -0.0980    2.8950   -0.6270 ha        1 1BR      0.143000
     35 H6         -1.6000   -0.4590   -0.6260 hn        1 1BR      0.395800
     36 H7         -1.9400    1.9870    0.5190 h1        1 1BR      0.049700
     37 H8         -2.3030    2.2660   -1.2440 h1        1 1BR      0.049700
     38 H9         -3.8010    1.5690    1.8230 ha        1 1BR      0.137500
     39 H10        -6.1060    0.7180    2.1170 ha        1 1BR      0.137000
     40 H11        -6.1060   -0.6760   -1.9880 ha        1 1BR      0.137000
     41 H12        -3.8130    0.1840   -2.2740 ha        1 1BR      0.137500
     42 H13        -8.3090   -0.4870   -1.7790 hc        1 1BR      0.038256
     43 H14        -7.6450   -2.0910   -1.2340 hc        1 1BR      0.038256
     44 H15        -9.2990   -1.5670   -0.7150 hc        1 1BR      0.038256
     45 H16        -8.7110   -1.9550    1.6120 hc        1 1BR      0.038256
     46 H17        -7.0160   -2.4340    1.1810 hc        1 1BR      0.038256
     47 H18        -7.3070   -1.1140    2.3900 hc        1 1BR      0.038256
     48 H19        -8.5930    1.3860   -0.1190 hc        1 1BR      0.038256
     49 H20        -9.6270    0.2580    0.8570 hc        1 1BR      0.038256
     50 H21        -8.2260    1.1050    1.6350 hc        1 1BR      0.038256
     51 H22         0.5520   -1.3910   -0.4620 ha        1 1BR      0.134000
     52 H23         6.1740   -2.6920    0.5180 h4        1 1BR      0.062100
     53 H24         1.6120   -2.4670   -2.0230 h1        1 1BR      0.068033
     54 H25         2.3580   -4.1250   -1.8070 h1        1 1BR      0.068033
     55 H26         1.2430   -3.4650   -0.5200 h1        1 1BR      0.068033
@<TRIPOS>BOND
     1    1    2 1   
     2    1   30 1   
     3    1   31 1   
     4    1   32 1   
     5    2    3 1   
     6    2   27 1   
     7    3    4 ar  
     8    3   20 ar  
     9    4    5 ar  
    10    4   33 1   
    11    5    6 ar  
    12    5   34 1   
    13    6    7 1   
    14    6   19 ar  
    15    7    8 1   
    16    7   35 1   
    17    8    9 1   
    18    8   36 1   
    19    8   37 1   
    20    9   10 ar  
    21    9   14 ar  
    22   10   11 ar  
    23   10   38 1   
    24   11   12 ar  
    25   11   39 1   
    26   12   13 ar  
    27   12   15 1   
    28   13   14 ar  
    29   13   40 1   
    30   14   41 1   
    31   15   16 1   
    32   15   17 1   
    33   15   18 1   
    34   16   42 1   
    35   16   43 1   
    36   16   44 1   
    37   17   45 1   
    38   17   46 1   
    39   17   47 1   
    40   18   48 1   
    41   18   49 1   
    42   18   50 1   
    43   19   20 ar  
    44   19   51 1   
    45   20   21 1   
    46   21   22 2   
    47   21   25 1   
    48   22   23 1   
    49   22   27 1   
    50   23   24 2   
    51   23   52 1   
    52   24   25 1   
    53   25   26 1   
    54   26   53 1   
    55   26   54 1   
    56   26   55 1   
    57   27   28 2   
    58   27   29 2   
@<TRIPOS>SUBSTRUCTURE
     1 1BR         1 TEMP              0 ****  ****    0 ROOT
