@<TRIPOS>MOLECULE
1BR
   55    58     1     0     0
SMALL
bcc


@<TRIPOS>ATOM
      1 C1          0.3160    0.5710   -0.2650 c3        1 1BR      0.189100
      2 N2          1.7130    0.2760   -0.1120 nh        1 1BR     -0.650900
      3 C3          2.1880    0.0460    1.1870 ca        1 1BR      0.191600
      4 C4          1.5120    0.5660    2.3150 ca        1 1BR     -0.140000
      5 C5          1.9940    0.3880    3.5990 ca        1 1BR     -0.124000
      6 C6          3.1990   -0.3140    3.8340 ca        1 1BR      0.110600
      7 N7          3.6710   -0.5640    5.1350 nh        1 1BR     -0.718600
      8 C8          3.3360    0.4040    6.1640 c3        1 1BR      0.227100
      9 C9          4.2950    0.3920    7.3170 ca        1 1BR     -0.118300
     10 C10         4.9650    1.5620    7.6880 ca        1 1BR     -0.115000
     11 C11         5.8300    1.5570    8.7780 ca        1 1BR     -0.130500
     12 C12         6.0490    0.3870    9.5210 ca        1 1BR     -0.053300
     13 C13         5.3760   -0.7800    9.1410 ca        1 1BR     -0.130500
     14 C14         4.5060   -0.7770    8.0510 ca        1 1BR     -0.115000
     15 C15         6.9940    0.4270   10.6930 c3        1 1BR     -0.012700
     16 C16         7.1190   -0.9240   11.3860 c3        1 1BR     -0.086100
     17 C17         8.3810    0.8450   10.2110 c3        1 1BR     -0.086100
     18 C18         6.4890    1.4430   11.7150 c3        1 1BR     -0.086100
     19 C19         3.8760   -0.8470    2.7190 ca        1 1BR     -0.140000
     20 C20         3.3720   -0.7150    1.4240 ca        1 1BR     -0.080000
     21 C21         4.0350   -1.2950    0.2740 cc        1 1BR      0.110700
     22 C22         3.7620   -0.8630   -1.0580 cd        1 1BR     -0.608800
     23 C23         4.6080   -1.7030   -1.8790 cd        1 1BR      0.436200
     24 N24         5.3090   -2.5590   -1.1100 nc        1 1BR     -0.514800
     25 N25         4.9670   -2.3230    0.1810 na        1 1BR      0.117400
     26 C26         5.4800   -3.1240    1.2680 c3        1 1BR      0.027600
     27 S27         2.6880    0.2880   -1.4750 sy        1 1BR      1.571200
     28 O28         1.9250   -0.1000   -2.5910 o         1 1BR     -0.653800
     29 O29         3.2960    1.5420   -1.6040 o         1 1BR     -0.653800
     30 H1          0.0980    1.6370    0.0190 h1        1 1BR      0.054700
     31 H2         -0.3110   -0.1050    0.3770 h1        1 1BR      0.054700
     32 H3          0.0190    0.4120   -1.3390 h1        1 1BR      0.054700
     33 H4          0.5820    1.1420    2.1810 ha        1 1BR      0.146000
     34 H5          1.4240    0.8070    4.4440 ha        1 1BR      0.143000
     35 H6          4.6340   -0.8350    5.1540 hn        1 1BR      0.395800
     36 H7          2.3070    0.1370    6.5470 h1        1 1BR      0.049700
     37 H8          3.2760    1.4510    5.7400 h1        1 1BR      0.049700
     38 H9          4.8100    2.4910    7.1190 ha        1 1BR      0.137500
     39 H10         6.3470    2.4880    9.0580 ha        1 1BR      0.137000
     40 H11         5.5180   -1.7190    9.6960 ha        1 1BR      0.137000
     41 H12         3.9790   -1.7020    7.7690 ha        1 1BR      0.137500
     42 H13         7.8290   -0.8410   12.2450 hc        1 1BR      0.038256
     43 H14         6.1290   -1.2570   11.7810 hc        1 1BR      0.038256
     44 H15         7.5100   -1.6950   10.6810 hc        1 1BR      0.038256
     45 H16         9.0900    0.8750   11.0730 hc        1 1BR      0.038256
     46 H17         8.3480    1.8570    9.7430 hc        1 1BR      0.038256
     47 H18         8.7650    0.1160    9.4580 hc        1 1BR      0.038256
     48 H19         6.4360    2.4620   11.2650 hc        1 1BR      0.038256
     49 H20         7.1820    1.4770   12.5900 hc        1 1BR      0.038256
     50 H21         5.4720    1.1570   12.0740 hc        1 1BR      0.038256
     51 H22         4.8350   -1.3660    2.8730 ha        1 1BR      0.134000
     52 H23         4.6940   -1.6860   -2.9690 h4        1 1BR      0.062100
     53 H24         5.8910   -4.0940    0.8760 h1        1 1BR      0.068033
     54 H25         4.6470   -3.3400    1.9890 h1        1 1BR      0.068033
     55 H26         6.3050   -2.5660    1.7870 h1        1 1BR      0.068033
@<TRIPOS>BOND
     1    1    2 1   
     2    1   30 1   
     3    1   31 1   
     4    1   32 1   
     5    2    3 1   
     6    2   27 1   
     7    3    4 ar  
     8    3   20 ar  
     9    4    5 ar  
    10    4   33 1   
    11    5    6 ar  
    12    5   34 1   
    13    6    7 1   
    14    6   19 ar  
    15    7    8 1   
    16    7   35 1   
    17    8    9 1   
    18    8   36 1   
    19    8   37 1   
    20    9   10 ar  
    21    9   14 ar  
    22   10   11 ar  
    23   10   38 1   
    24   11   12 ar  
    25   11   39 1   
    26   12   13 ar  
    27   12   15 1   
    28   13   14 ar  
    29   13   40 1   
    30   14   41 1   
    31   15   16 1   
    32   15   17 1   
    33   15   18 1   
    34   16   42 1   
    35   16   43 1   
    36   16   44 1   
    37   17   45 1   
    38   17   46 1   
    39   17   47 1   
    40   18   48 1   
    41   18   49 1   
    42   18   50 1   
    43   19   20 ar  
    44   19   51 1   
    45   20   21 1   
    46   21   22 2   
    47   21   25 1   
    48   22   23 1   
    49   22   27 1   
    50   23   24 2   
    51   23   52 1   
    52   24   25 1   
    53   25   26 1   
    54   26   53 1   
    55   26   54 1   
    56   26   55 1   
    57   27   28 2   
    58   27   29 2   
@<TRIPOS>SUBSTRUCTURE
     1 1BR         1 TEMP              0 ****  ****    0 ROOT
