@<TRIPOS>MOLECULE
1BS
   58    62     1     0     0
SMALL
bcc


@<TRIPOS>ATOM
      1 Cl1        -0.0010    0.1990    0.1100 cl        1 1BS     -0.026400
      2 C1          1.6830    0.0770    0.0800 ca        1 1BS      0.060400
      3 C2          2.4080    0.1570    1.2740 ca        1 1BS     -0.119000
      4 C3          3.8010    0.0580    1.2510 ca        1 1BS     -0.013300
      5 C4          4.4680   -0.1150    0.0210 ca        1 1BS     -0.221900
      6 C5          3.7340   -0.2060   -1.1660 ca        1 1BS     -0.100000
      7 C6          2.3470   -0.1080   -1.1410 ca        1 1BS     -0.117000
      8 C9          4.5730    0.1700    2.5170 c3        1 1BS     -0.077100
      9 C10         5.9490   -0.5360    2.4750 c3        1 1BS      0.148200
     10 N11         6.6330   -0.3910    1.1860 n2        1 1BS     -0.555900
     11 C12         5.9410   -0.2110    0.1100 ce        1 1BS      0.568800
     12 N13         6.6550   -0.0470   -1.1910 ny        1 1BS     -0.723000
     13 C14         8.1570    0.0060   -1.1300 c3        1 1BS      0.103200
     14 C15         8.7530   -0.0460   -2.5490 c3        1 1BS     -0.058100
     15 C27         6.8230    0.0820    3.5810 c3        1 1BS     -0.092600
     16 C28         5.7550   -2.0270    2.8070 c3        1 1BS     -0.092600
     17 C7          8.6510    1.2990   -0.4460 cc        1 1BS      0.657200
     18 N8          9.8500    1.1980    0.2550 na        1 1BS     -0.710600
     19 C19         8.3820    3.6140   -0.0130 c         1 1BS      0.721100
     20 N24         7.9440    2.3910   -0.6080 nd        1 1BS     -0.722100
     21 O25         7.6910    4.6310   -0.1420 o         1 1BS     -0.494100
     22 C26         8.2770   -1.2430   -3.2920 ca        1 1BS     -0.159300
     23 C29         7.2280   -1.1250   -4.2130 ca        1 1BS     -0.132500
     24 C30         6.8020   -2.2390   -4.9350 ca        1 1BS     -0.114500
     25 C31         7.4190   -3.4760   -4.7420 ca        1 1BS     -0.098000
     26 C32         8.4670   -3.5970   -3.8280 ca        1 1BS     -0.114500
     27 C33         8.8970   -2.4840   -3.1060 ca        1 1BS     -0.132500
     28 C8          9.6530    3.5740    0.7350 ca        1 1BS     -0.336900
     29 C16        10.3640    2.3500    0.8610 ca        1 1BS      0.201600
     30 C17        11.5730    2.3440    1.5900 ca        1 1BS     -0.298300
     31 C18        12.0060    3.5550    2.1480 ca        1 1BS      0.465200
     32 N20        11.3430    4.7270    2.0350 nb        1 1BS     -0.664000
     33 C21        10.1950    4.7280    1.3430 ca        1 1BS      0.495200
     34 H1          1.8850    0.2990    2.2340 ha        1 1BS      0.172000
     35 H2          4.2190   -0.3630   -2.1410 ha        1 1BS      0.124000
     36 H3          1.7720   -0.1770   -2.0790 ha        1 1BS      0.171000
     37 H4          3.9830   -0.2610    3.3700 hc        1 1BS      0.089700
     38 H5          4.7240    1.2640    2.7380 hc        1 1BS      0.089700
     39 H6          6.3970   -0.8420   -1.7980 hn        1 1BS      0.478800
     40 H7          8.4970   -0.9050   -0.5510 hx        1 1BS      0.124700
     41 H8          9.8720   -0.0780   -2.4350 hc        1 1BS      0.098200
     42 H9          8.5020    0.8950   -3.1090 hc        1 1BS      0.098200
     43 H10         6.2780   -0.0100    4.5510 hc        1 1BS      0.059033
     44 H11         7.0230    1.1620    3.3830 hc        1 1BS      0.059033
     45 H12         7.7960   -0.4590    3.6620 hc        1 1BS      0.059033
     46 H13         5.0490   -2.5050    2.0860 hc        1 1BS      0.059033
     47 H14         6.7290   -2.5710    2.7840 hc        1 1BS      0.059033
     48 H15         5.3280   -2.1110    3.8360 hc        1 1BS      0.059033
     49 H16        10.3020    0.3240    0.3920 hn        1 1BS      0.465800
     50 H17         6.7670   -0.1440   -4.4020 ha        1 1BS      0.136000
     51 H18         5.9880   -2.1380   -5.6700 ha        1 1BS      0.155000
     52 H19         7.0870   -4.3540   -5.3190 ha        1 1BS      0.158000
     53 H20         8.9640   -4.5690   -3.6850 ha        1 1BS      0.155000
     54 H21         9.7380   -2.5800   -2.4030 ha        1 1BS      0.136000
     55 H22        12.1650    1.4290    1.7210 ha        1 1BS      0.158000
     56 H23        12.9500    3.5970    2.7260 h4        1 1BS      0.046100
     57 H24         9.6590    5.6960    1.2560 h4        1 1BS      0.063100
     58 H132        6.2980    0.8240   -1.6170 hn        1 1BS      0.478800
@<TRIPOS>BOND
     1    1    2 1   
     2    2    3 ar  
     3    2    7 ar  
     4    3    4 ar  
     5    3   34 1   
     6    4    5 ar  
     7    4    8 1   
     8    5    6 ar  
     9    5   11 1   
    10    6    7 ar  
    11    6   35 1   
    12    7   36 1   
    13    8    9 1   
    14    8   37 1   
    15    8   38 1   
    16    9   10 1   
    17    9   15 1   
    18    9   16 1   
    19   10   11 2   
    20   11   12 1   
    21   12   13 1   
    22   12   39 1   
    23   12   58 1   
    24   13   14 1   
    25   13   17 1   
    26   13   40 1   
    27   14   22 1   
    28   14   41 1   
    29   14   42 1   
    30   15   43 1   
    31   15   44 1   
    32   15   45 1   
    33   16   46 1   
    34   16   47 1   
    35   16   48 1   
    36   17   18 1   
    37   17   20 2   
    38   18   29 1   
    39   18   49 1   
    40   19   20 1   
    41   19   21 2   
    42   19   28 1   
    43   22   23 ar  
    44   22   27 ar  
    45   23   24 ar  
    46   23   50 1   
    47   24   25 ar  
    48   24   51 1   
    49   25   26 ar  
    50   25   52 1   
    51   26   27 ar  
    52   26   53 1   
    53   27   54 1   
    54   28   29 ar  
    55   28   33 ar  
    56   29   30 ar  
    57   30   31 ar  
    58   30   55 1   
    59   31   32 ar  
    60   31   56 1   
    61   32   33 ar  
    62   33   57 1   
@<TRIPOS>SUBSTRUCTURE
     1 1BS         1 TEMP              0 ****  ****    0 ROOT
