@<TRIPOS>MOLECULE
1BS
   57    61     1     0     0
SMALL
bcc


@<TRIPOS>ATOM
      1 CL1        -6.0880    2.8020   -0.8910 cl        1 1BS     -0.084400
      2 C1         -4.6290    2.0140   -0.5250 ca        1 1BS      0.038400
      3 C2         -3.7420    2.5920    0.3880 ca        1 1BS     -0.132000
      4 C3         -2.5410    1.9460    0.6880 ca        1 1BS     -0.037300
      5 C4         -2.2200    0.7290    0.0580 ca        1 1BS     -0.180900
      6 C5         -3.1260    0.1500   -0.8340 ca        1 1BS     -0.082000
      7 C6         -4.3290    0.7910   -1.1310 ca        1 1BS     -0.137000
      8 C9         -1.5950    2.5430    1.6670 c3        1 1BS     -0.066100
      9 C10        -0.7310    1.4710    2.3740 c3        1 1BS      0.154200
     10 N11        -0.2040    0.4610    1.4620 n2        1 1BS     -0.684900
     11 C12        -0.9070    0.1080    0.4150 ce        1 1BS      0.664800
     12 N13        -0.4740   -0.9330   -0.4440 nh        1 1BS     -0.785200
     13 C14         0.8010   -1.5640   -0.2060 c3        1 1BS      0.184200
     14 C15         1.0280   -2.7950   -1.1060 c3        1 1BS     -0.035100
     15 C27         0.4390    2.2090    3.0500 c3        1 1BS     -0.086600
     16 C28        -1.5760    0.8300    3.4910 c3        1 1BS     -0.086600
     17 C7          1.9900   -0.5860   -0.4400 cc        1 1BS      0.635200
     18 N8          2.7230   -0.2250    0.6970 na        1 1BS     -0.700600
     19 C19         3.3060    0.7230   -1.9050 c         1 1BS      0.713100
     20 N24         2.2330   -0.1780   -1.6640 nd        1 1BS     -0.695100
     21 O25         3.5440    1.1220   -3.0560 o         1 1BS     -0.535100
     22 C26         0.1200   -3.9170   -0.7440 ca        1 1BS     -0.080300
     23 C29        -0.9110   -4.3010   -1.6080 ca        1 1BS     -0.122000
     24 C30        -1.7470   -5.3660   -1.2740 ca        1 1BS     -0.127000
     25 C31        -1.5610   -6.0550   -0.0760 ca        1 1BS     -0.127000
     26 C32        -0.5330   -5.6780    0.7880 ca        1 1BS     -0.127000
     27 C33         0.3050   -4.6150    0.4570 ca        1 1BS     -0.122000
     28 C8          4.1070    1.1560   -0.7390 ca        1 1BS     -0.343900
     29 C16         3.7690    0.6820    0.5580 ca        1 1BS      0.208600
     30 C17         4.5370    1.1380    1.6570 ca        1 1BS     -0.308300
     31 C18         5.5920    2.0180    1.4000 ca        1 1BS      0.445200
     32 N20         5.9310    2.4710    0.1710 nb        1 1BS     -0.692000
     33 C21         5.1970    2.0440   -0.8660 ca        1 1BS      0.484200
     34 H1         -3.9860    3.5490    0.8740 ha        1 1BS      0.152000
     35 H2         -2.9210   -0.8230   -1.3060 ha        1 1BS      0.150000
     36 H3         -5.0360    0.3310   -1.8370 ha        1 1BS      0.153000
     37 H4         -0.9230    3.2630    1.1230 hc        1 1BS      0.066700
     38 H5         -2.1540    3.1270    2.4440 hc        1 1BS      0.066700
     39 H6         -0.6480   -0.7320   -1.4100 hn        1 1BS      0.422800
     40 H7          0.8150   -1.9190    0.8690 h1        1 1BS      0.089700
     41 H8          0.8970   -2.5180   -2.1870 hc        1 1BS      0.073200
     42 H9          2.0950   -3.1200   -0.9710 hc        1 1BS      0.073200
     43 H10         0.0260    2.9930    3.7280 hc        1 1BS      0.041700
     44 H11         1.0530    1.4990    3.6530 hc        1 1BS      0.041700
     45 H12         1.0950    2.7000    2.2920 hc        1 1BS      0.041700
     46 H13        -2.4890    0.3520    3.0640 hc        1 1BS      0.041700
     47 H14        -0.9850    0.0580    4.0370 hc        1 1BS      0.041700
     48 H15        -1.8880    1.6190    4.2160 hc        1 1BS      0.041700
     49 H16         2.3510   -0.4070    1.6030 hn        1 1BS      0.469800
     50 H17        -1.0610   -3.7620   -2.5550 ha        1 1BS      0.129500
     51 H18        -2.5550   -5.6620   -1.9600 ha        1 1BS      0.132500
     52 H19        -2.2210   -6.8940    0.1860 ha        1 1BS      0.133000
     53 H20        -0.3820   -6.2210    1.7330 ha        1 1BS      0.132500
     54 H21         1.1170   -4.3240    1.1380 ha        1 1BS      0.129500
     55 H22         4.3170    0.8120    2.6810 ha        1 1BS      0.149000
     56 H23         6.2180    2.3950    2.2310 h4        1 1BS      0.026100
     57 H24         5.4750    2.4200   -1.8710 h4        1 1BS      0.051100
@<TRIPOS>BOND
     1    1    2 1   
     2    2    3 ar  
     3    2    7 ar  
     4    3    4 ar  
     5    3   34 1   
     6    4    5 ar  
     7    4    8 1   
     8    5    6 ar  
     9    5   11 1   
    10    6    7 ar  
    11    6   35 1   
    12    7   36 1   
    13    8    9 1   
    14    8   37 1   
    15    8   38 1   
    16    9   10 1   
    17    9   15 1   
    18    9   16 1   
    19   10   11 2   
    20   11   12 1   
    21   12   13 1   
    22   12   39 1   
    23   13   14 1   
    24   13   17 1   
    25   13   40 1   
    26   14   22 1   
    27   14   41 1   
    28   14   42 1   
    29   15   43 1   
    30   15   44 1   
    31   15   45 1   
    32   16   46 1   
    33   16   47 1   
    34   16   48 1   
    35   17   18 1   
    36   17   20 2   
    37   18   29 1   
    38   18   49 1   
    39   19   20 1   
    40   19   21 2   
    41   19   28 1   
    42   22   23 ar  
    43   22   27 ar  
    44   23   24 ar  
    45   23   50 1   
    46   24   25 ar  
    47   24   51 1   
    48   25   26 ar  
    49   25   52 1   
    50   26   27 ar  
    51   26   53 1   
    52   27   54 1   
    53   28   29 ar  
    54   28   33 ar  
    55   29   30 ar  
    56   30   31 ar  
    57   30   55 1   
    58   31   32 ar  
    59   31   56 1   
    60   32   33 ar  
    61   33   57 1   
@<TRIPOS>SUBSTRUCTURE
     1 1BS         1 TEMP              0 ****  ****    0 ROOT
