@<TRIPOS>MOLECULE
1BS
   57    52     1     0     0
SMALL
bcc


@<TRIPOS>ATOM
      1 CL1        -7.1280    1.5820    1.0740 cl        1 1BS     -0.006000
      2 C1         -5.5160    0.9880    0.7780 c2        1 1BS     -0.040000
      3 C2         -4.8770    0.2140    1.7330 c2        1 1BS     -0.132000
      4 C3         -3.5590   -0.2260    1.5150 c1        1 1BS     -0.030000
      5 C4         -2.9100    0.1090    0.3620 c1        1 1BS     -0.097000
      6 C5         -3.5600    0.8940   -0.6070 c1        1 1BS     -0.082000
      7 C6         -4.8580    1.3280   -0.3920 c1        1 1BS     -0.137000
      8 C9         -2.8580   -1.0910    2.5570 c3        1 1BS     -0.152000
      9 C10        -1.5000   -1.7030    2.2170 c3        1 1BS      0.029000
     10 N11        -0.7680   -0.9920    1.1990 n2        1 1BS     -0.272000
     11 C12        -1.4680   -0.3180    0.1540 c2        1 1BS      0.141000
     12 N13        -0.7960    0.0160   -1.0490 n3        1 1BS     -0.270000
     13 C14         0.6230    0.0720   -1.0790 c3        1 1BS      0.062000
     14 C15         1.1110   -0.2700   -2.4680 c3        1 1BS     -0.121000
     15 C27        -0.6600   -1.7970    3.4710 c3        1 1BS     -0.204500
     16 C28        -1.6370   -3.1680    1.8640 c3        1 1BS     -0.204500
     17 C7          1.0810    1.4660   -0.7120 c1        1 1BS      0.120000
     18 N8          2.4560    1.7000   -0.3490 n2        1 1BS     -0.262000
     19 C19         0.5560    3.8130   -0.2890 c1        1 1BS      0.314000
     20 N24         0.1440    2.5340   -0.6770 n2        1 1BS     -0.268000
     21 O25        -0.2320    4.7370   -0.3110 o         1 1BS     -0.296000
     22 C26         1.6840   -1.6710   -2.4700 c2        1 1BS     -0.073000
     23 C29         1.0460   -2.6780   -3.1780 c2        1 1BS     -0.117000
     24 C30         1.6230   -3.9350   -3.2680 c1        1 1BS     -0.128000
     25 C31         2.8380   -4.1850   -2.6500 c1        1 1BS     -0.126500
     26 C32         3.4760   -3.1800   -1.9430 c1        1 1BS     -0.126500
     27 C33         2.9000   -1.9220   -1.8530 c1        1 1BS     -0.127000
     28 C8          1.9970    4.0570    0.0920 c1        1 1BS     -0.258000
     29 C16         2.8900    3.0360    0.0570 c1        1 1BS      0.127000
     30 C17         4.2010    3.2520    0.4450 c1        1 1BS     -0.243000
     31 C18         4.6010    4.5120    0.8680 c1        1 1BS     -0.020000
     32 N20         3.7000    5.5410    0.9020 n1        1 1BS     -0.166000
     33 C21         2.4060    5.3310    0.5200 c1        1 1BS      0.019000
     34 H1         -5.3270    0.0070    2.5740 ha        1 1BS      0.152000
     35 H2         -3.0960    1.1340   -1.4320 ha        1 1BS      0.150000
     36 H3         -5.3160    1.8550   -1.0740 ha        1 1BS      0.153000
     37 H4         -3.4630   -1.8260    2.7820 hc        1 1BS      0.106000
     38 H5         -2.7410   -0.5450    3.3600 hc        1 1BS      0.106000
     39 H6         -1.2750    0.1850   -1.8070 hn        1 1BS      0.218000
     40 H7          0.9870   -0.5700   -0.4380 h1        1 1BS      0.129000
     41 H8          1.8050    0.3660   -2.7350 hc        1 1BS      0.112500
     42 H9          0.3650   -0.2230   -3.0970 hc        1 1BS      0.112500
     43 H10        -0.5360   -0.9020    3.8490 hc        1 1BS      0.081000
     44 H11        -1.1130   -2.3690    4.1260 hc        1 1BS      0.081000
     45 H12         0.2140   -2.1830    3.2510 hc        1 1BS      0.081000
     46 H13        -2.2190   -3.2630    1.0810 hc        1 1BS      0.081000
     47 H14        -2.0270   -3.6510    2.6220 hc        1 1BS      0.081000
     48 H15        -0.7530   -3.5400    1.6610 hc        1 1BS      0.081000
     49 H16         3.0610    1.0180   -0.3900 hn        1 1BS      0.265000
     50 H17         0.1910   -2.5010   -3.6130 ha        1 1BS      0.132000
     51 H18         1.1740   -4.6430   -3.7660 ha        1 1BS      0.133000
     52 H19         3.2440   -5.0710   -2.7130 ha        1 1BS      0.132500
     53 H20         4.3320   -3.3560   -1.5070 ha        1 1BS      0.132500
     54 H21         3.3500   -1.2140   -1.3540 ha        1 1BS      0.127000
     55 H22         4.8450    2.5180    0.4200 ha        1 1BS      0.149000
     56 H23         5.5260    4.6640    1.1410 ha        1 1BS      0.163000
     57 H24         1.7640    6.0660    0.5460 ha        1 1BS      0.188000
@<TRIPOS>BOND
     1    1    2 1   
     2    2    3 1   
     3    2    7 1   
     4    3    4 1   
     5    3   34 1   
     6    4    8 1   
     7    5    6 1   
     8    5   11 1   
     9    6   35 1   
    10    7   36 1   
    11    8    9 1   
    12    8   37 1   
    13    8   38 1   
    14    9   10 1   
    15    9   15 1   
    16    9   16 1   
    17   10   11 1   
    18   11   12 1   
    19   12   13 1   
    20   12   39 1   
    21   13   14 1   
    22   13   17 1   
    23   13   40 1   
    24   14   22 1   
    25   14   41 1   
    26   14   42 1   
    27   15   43 1   
    28   15   44 1   
    29   15   45 1   
    30   16   46 1   
    31   16   47 1   
    32   16   48 1   
    33   17   20 1   
    34   18   29 1   
    35   18   49 1   
    36   19   20 1   
    37   19   21 1   
    38   22   23 1   
    39   22   27 1   
    40   23   24 1   
    41   23   50 1   
    42   24   51 1   
    43   25   26 1   
    44   25   52 1   
    45   26   53 1   
    46   27   54 1   
    47   28   33 1   
    48   29   30 1   
    49   30   55 1   
    50   31   32 1   
    51   31   56 1   
    52   33   57 1   
@<TRIPOS>SUBSTRUCTURE
     1 1BS         1 TEMP              0 ****  ****    0 ROOT
