@<TRIPOS>MOLECULE
1BS
   58    62     1     0     0
SMALL
bcc


@<TRIPOS>ATOM
      1 CL1        -0.0000    0.2040    0.0920 cl        1 1BS     -0.026400
      2 C1          1.6830    0.0810    0.0670 ca        1 1BS      0.060400
      3 C2          2.4060    0.1610    1.2620 ca        1 1BS     -0.119000
      4 C3          3.7990    0.0600    1.2430 ca        1 1BS     -0.013300
      5 C4          4.4690   -0.1140    0.0150 ca        1 1BS     -0.221900
      6 C5          3.7370   -0.2050   -1.1750 ca        1 1BS     -0.100000
      7 C6          2.3500   -0.1070   -1.1530 ca        1 1BS     -0.117000
      8 C9          4.5690    0.1730    2.5100 c3        1 1BS     -0.077100
      9 C10         5.9440   -0.5340    2.4710 c3        1 1BS      0.148200
     10 N11         6.6310   -0.3910    1.1840 n2        1 1BS     -0.555900
     11 C12         5.9410   -0.2120    0.1070 ce        1 1BS      0.568800
     12 N13         6.6580   -0.0490   -1.1930 n4        1 1BS     -0.723000
     13 C14         8.1600    0.0060   -1.1280 c3        1 1BS      0.103200
     14 C15         8.7600   -0.0480   -2.5450 c3        1 1BS     -0.058100
     15 C27         6.8160    0.0840    3.5790 c3        1 1BS     -0.092600
     16 C28         5.7470   -2.0250    2.8040 c3        1 1BS     -0.092600
     17 C7          8.6510    1.3010   -0.4460 cc        1 1BS      0.657200
     18 N8          9.8480    1.2020    0.2590 na        1 1BS     -0.710600
     19 C19         8.3780    3.6160   -0.0180 c         1 1BS      0.721100
     20 N24         7.9440    2.3920   -0.6120 nd        1 1BS     -0.722100
     21 O25         7.6870    4.6330   -0.1510 o         1 1BS     -0.494100
     22 C26         8.2880   -1.2470   -3.2870 ca        1 1BS     -0.159300
     23 C29         7.2410   -1.1330   -4.2120 ca        1 1BS     -0.132500
     24 C30         6.8190   -2.2490   -4.9320 ca        1 1BS     -0.114500
     25 C31         7.4360   -3.4850   -4.7350 ca        1 1BS     -0.098000
     26 C32         8.4820   -3.6020   -3.8180 ca        1 1BS     -0.114500
     27 C33         8.9090   -2.4870   -3.0970 ca        1 1BS     -0.132500
     28 C8          9.6470    3.5790    0.7340 ca        1 1BS     -0.336900
     29 C16        10.3590    2.3570    0.8640 ca        1 1BS      0.201600
     30 C17        11.5660    2.3530    1.5960 ca        1 1BS     -0.298300
     31 C18        11.9970    3.5660    2.1530 ca        1 1BS      0.465200
     32 N20        11.3320    4.7370    2.0370 nb        1 1BS     -0.664000
     33 C21        10.1860    4.7350    1.3410 ca        1 1BS      0.495200
     34 H1          1.8810    0.3040    2.2210 ha        1 1BS      0.172000
     35 H2          4.2240   -0.3640   -2.1480 ha        1 1BS      0.124000
     36 H3          1.7780   -0.1750   -2.0920 ha        1 1BS      0.171000
     37 H4          3.9760   -0.2570    3.3620 hc        1 1BS      0.089700
     38 H5          4.7200    1.2670    2.7310 hc        1 1BS      0.089700
     39 H6          6.3010    0.8220   -1.6210 hn        1 1BS      0.478800
     40 H7          8.5000   -0.9040   -0.5470 hx        1 1BS      0.124700
     41 H8          8.5090    0.8920   -3.1090 hc        1 1BS      0.098200
     42 H9          9.8780   -0.0780   -2.4290 hc        1 1BS      0.098200
     43 H10         6.2680   -0.0070    4.5480 hc        1 1BS      0.059033
     44 H11         7.7880   -0.4580    3.6630 hc        1 1BS      0.059033
     45 H12         7.0170    1.1630    3.3810 hc        1 1BS      0.059033
     46 H13         6.7210   -2.5700    2.7830 hc        1 1BS      0.059033
     47 H14         5.3180   -2.1080    3.8320 hc        1 1BS      0.059033
     48 H15         5.0430   -2.5030    2.0820 hc        1 1BS      0.059033
     49 H16        10.3010    0.3300    0.3980 hn        1 1BS      0.465800
     50 H17         6.7790   -0.1520   -4.4040 ha        1 1BS      0.136000
     51 H18         6.0060   -2.1510   -5.6700 ha        1 1BS      0.155000
     52 H19         7.1070   -4.3640   -5.3110 ha        1 1BS      0.158000
     53 H20         8.9800   -4.5740   -3.6710 ha        1 1BS      0.155000
     54 H21         9.7480   -2.5810   -2.3910 ha        1 1BS      0.136000
     55 H22        12.1590    1.4390    1.7300 ha        1 1BS      0.158000
     56 H23        12.9390    3.6100    2.7340 h4        1 1BS      0.046100
     57 H24         9.6500    5.7020    1.2510 h4        1 1BS      0.063100
     58 H132        6.4030   -0.8450   -1.7990 hn        1 1BS      0.478800
@<TRIPOS>BOND
     1    1    2 1   
     2    2    3 ar  
     3    2    7 ar  
     4    3    4 ar  
     5    3   34 1   
     6    4    5 ar  
     7    4    8 1   
     8    5    6 ar  
     9    5   11 1   
    10    6    7 ar  
    11    6   35 1   
    12    7   36 1   
    13    8    9 1   
    14    8   37 1   
    15    8   38 1   
    16    9   10 1   
    17    9   15 1   
    18    9   16 1   
    19   10   11 2   
    20   11   12 1   
    21   12   13 1   
    22   12   39 1   
    23   12   58 1   
    24   13   14 1   
    25   13   17 1   
    26   13   40 1   
    27   14   22 1   
    28   14   41 1   
    29   14   42 1   
    30   15   43 1   
    31   15   44 1   
    32   15   45 1   
    33   16   46 1   
    34   16   47 1   
    35   16   48 1   
    36   17   18 1   
    37   17   20 2   
    38   18   29 1   
    39   18   49 1   
    40   19   20 1   
    41   19   21 2   
    42   19   28 1   
    43   22   23 ar  
    44   22   27 ar  
    45   23   24 ar  
    46   23   50 1   
    47   24   25 ar  
    48   24   51 1   
    49   25   26 ar  
    50   25   52 1   
    51   26   27 ar  
    52   26   53 1   
    53   27   54 1   
    54   28   29 ar  
    55   28   33 ar  
    56   29   30 ar  
    57   30   31 ar  
    58   30   55 1   
    59   31   32 ar  
    60   31   56 1   
    61   32   33 ar  
    62   33   57 1   
@<TRIPOS>SUBSTRUCTURE
     1 1BS         1 TEMP              0 ****  ****    0 ROOT
