@<TRIPOS>MOLECULE
1BS
   58    62     1     0     0
SMALL
bcc


@<TRIPOS>ATOM
      1 CL1        -0.0010    0.2170    0.0900 cl        1 1BS     -0.026400
      2 C1          1.6820    0.0890    0.0660 ca        1 1BS      0.060400
      3 C2          2.4040    0.1660    1.2610 ca        1 1BS     -0.119000
      4 C3          3.7970    0.0610    1.2440 ca        1 1BS     -0.013300
      5 C4          4.4670   -0.1130    0.0160 ca        1 1BS     -0.221900
      6 C5          3.7360   -0.2010   -1.1740 ca        1 1BS     -0.100000
      7 C6          2.3490   -0.0980   -1.1530 ca        1 1BS     -0.117000
      8 C9          4.5650    0.1700    2.5120 c3        1 1BS     -0.077100
      9 C10         5.9390   -0.5410    2.4740 c3        1 1BS      0.148200
     10 N11         6.6280   -0.3970    1.1870 n2        1 1BS     -0.555900
     11 C12         5.9390   -0.2140    0.1090 ce        1 1BS      0.568800
     12 N13         6.6570   -0.0520   -1.1900 n4        1 1BS     -0.723000
     13 C14         8.1590    0.0050   -1.1230 c3        1 1BS      0.103200
     14 C15         8.7610   -0.0510   -2.5390 c3        1 1BS     -0.058100
     15 C27         6.8110    0.0730    3.5830 c3        1 1BS     -0.092600
     16 C28         5.7380   -2.0320    2.8030 c3        1 1BS     -0.092600
     17 C7          8.6480    1.3000   -0.4410 cc        1 1BS      0.657200
     18 N8          9.8440    1.2020    0.2670 na        1 1BS     -0.710600
     19 C19         8.3740    3.6160   -0.0160 c         1 1BS      0.721100
     20 N24         7.9410    2.3910   -0.6100 nd        1 1BS     -0.722100
     21 O25         7.6830    4.6320   -0.1530 o         1 1BS     -0.494100
     22 C26         8.2910   -1.2510   -3.2800 ca        1 1BS     -0.159300
     23 C29         7.2450   -1.1390   -4.2060 ca        1 1BS     -0.132500
     24 C30         6.8240   -2.2560   -4.9260 ca        1 1BS     -0.114000
     25 C31         7.4440   -3.4910   -4.7270 ca        1 1BS     -0.098000
     26 C32         8.4890   -3.6060   -3.8090 ca        1 1BS     -0.114000
     27 C33         8.9140   -2.4900   -3.0890 ca        1 1BS     -0.132500
     28 C8          9.6410    3.5800    0.7390 ca        1 1BS     -0.336900
     29 C16        10.3530    2.3570    0.8720 ca        1 1BS      0.201600
     30 C17        11.5580    2.3550    1.6070 ca        1 1BS     -0.298300
     31 C18        11.9880    3.5690    2.1640 ca        1 1BS      0.465200
     32 N20        11.3230    4.7390    2.0440 nb        1 1BS     -0.664000
     33 C21        10.1790    4.7370    1.3460 ca        1 1BS      0.495200
     34 H1          1.8780    0.3090    2.2200 ha        1 1BS      0.172000
     35 H2          4.2230   -0.3590   -2.1480 ha        1 1BS      0.124000
     36 H3          1.7770   -0.1640   -2.0930 ha        1 1BS      0.171000
     37 H4          3.9710   -0.2600    3.3620 hc        1 1BS      0.089700
     38 H5          4.7190    1.2640    2.7350 hc        1 1BS      0.089700
     39 H6          6.3010    0.8190   -1.6190 hn        1 1BS      0.478800
     40 H7          8.4990   -0.9050   -0.5410 hx        1 1BS      0.124700
     41 H8          9.8790   -0.0790   -2.4220 hc        1 1BS      0.098200
     42 H9          8.5100    0.8890   -3.1040 hc        1 1BS      0.098200
     43 H10         6.2620   -0.0180    4.5510 hc        1 1BS      0.059033
     44 H11         7.7810   -0.4710    3.6670 hc        1 1BS      0.059033
     45 H12         7.0150    1.1530    3.3870 hc        1 1BS      0.059033
     46 H13         6.7100   -2.5790    2.7830 hc        1 1BS      0.059033
     47 H14         5.0330   -2.5060    2.0800 hc        1 1BS      0.059033
     48 H15         5.3080   -2.1150    3.8300 hc        1 1BS      0.059033
     49 H16        10.2960    0.3300    0.4080 hn        1 1BS      0.465800
     50 H17         6.7810   -0.1590   -4.3990 ha        1 1BS      0.136000
     51 H18         6.0130   -2.1600   -5.6640 ha        1 1BS      0.155000
     52 H19         7.1160   -4.3710   -5.3030 ha        1 1BS      0.158000
     53 H20         8.9890   -4.5770   -3.6610 ha        1 1BS      0.155000
     54 H21         9.7520   -2.5820   -2.3820 ha        1 1BS      0.136000
     55 H22        12.1510    1.4410    1.7440 ha        1 1BS      0.158000
     56 H23        12.9290    3.6130    2.7470 h4        1 1BS      0.046100
     57 H24         9.6430    5.7040    1.2530 h4        1 1BS      0.063100
     58 H132        6.4030   -0.8480   -1.7960 hn        1 1BS      0.478800
@<TRIPOS>BOND
     1    1    2 1   
     2    2    3 ar  
     3    2    7 ar  
     4    3    4 ar  
     5    3   34 1   
     6    4    5 ar  
     7    4    8 1   
     8    5    6 ar  
     9    5   11 1   
    10    6    7 ar  
    11    6   35 1   
    12    7   36 1   
    13    8    9 1   
    14    8   37 1   
    15    8   38 1   
    16    9   10 1   
    17    9   15 1   
    18    9   16 1   
    19   10   11 2   
    20   11   12 1   
    21   12   13 1   
    22   12   39 1   
    23   12   58 1   
    24   13   14 1   
    25   13   17 1   
    26   13   40 1   
    27   14   22 1   
    28   14   41 1   
    29   14   42 1   
    30   15   43 1   
    31   15   44 1   
    32   15   45 1   
    33   16   46 1   
    34   16   47 1   
    35   16   48 1   
    36   17   18 1   
    37   17   20 2   
    38   18   29 1   
    39   18   49 1   
    40   19   20 1   
    41   19   21 2   
    42   19   28 1   
    43   22   23 ar  
    44   22   27 ar  
    45   23   24 ar  
    46   23   50 1   
    47   24   25 ar  
    48   24   51 1   
    49   25   26 ar  
    50   25   52 1   
    51   26   27 ar  
    52   26   53 1   
    53   27   54 1   
    54   28   29 ar  
    55   28   33 ar  
    56   29   30 ar  
    57   30   31 ar  
    58   30   55 1   
    59   31   32 ar  
    60   31   56 1   
    61   32   33 ar  
    62   33   57 1   
@<TRIPOS>SUBSTRUCTURE
     1 1BS         1 TEMP              0 ****  ****    0 ROOT
