@<TRIPOS>MOLECULE
1BT
   52    55     1     0     0
SMALL
bcc


@<TRIPOS>ATOM
      1 N01         2.7430   -5.5770    1.6920 n1        1 1BT     -0.153000
      2 C02         2.3980   -6.3250    0.8690 c1        1 1BT      0.018000
      3 C03         1.9800   -7.2310   -0.1170 c2        1 1BT     -0.454000
      4 C04         2.1060   -7.1450   -1.4330 c1        1 1BT      0.356000
      5 C05         1.1380    2.8690    2.4900 ca        1 1BT     -0.058000
      6 C06         2.4620    3.0860    2.8710 ca        1 1BT     -0.113000
      7 C07         2.9920    2.4610    4.0020 ca        1 1BT     -0.020500
      8 C08         4.3960    2.7260    4.3950 c3        1 1BT     -0.213000
      9 C09         0.3200    2.0300    3.2420 ca        1 1BT     -0.113000
     10 C10         0.8070    1.3830    4.3830 ca        1 1BT     -0.020500
     11 C11        -0.1000    0.5140    5.1700 c3        1 1BT     -0.213000
     12 C12         2.1530    1.6050    4.7530 ca        1 1BT     -0.144000
     13 N13         2.6860    0.9600    5.9580 n4        1 1BT      0.084000
     14 C14         3.4970   -0.2780    5.6800 c2        1 1BT      0.032000
     15 N15         2.9520   -1.1580    4.8030 n2        1 1BT     -0.108000
     16 C16         3.7370   -2.2620    4.6090 c2        1 1BT      0.039000
     17 N17         3.5520   -3.3850    3.8020 na        1 1BT     -0.168000
     18 C18         4.6820   -4.2000    3.9990 c2        1 1BT      0.034000
     19 N19         5.5740   -3.6860    4.8730 n2        1 1BT     -0.124000
     20 C20         5.0220   -2.4710    5.2790 c2        1 1BT     -0.173000
     21 C21         5.4640   -1.4520    6.1850 c2        1 1BT      0.252000
     22 N22         6.6840   -1.6220    6.8190 nh        1 1BT     -0.312000
     23 C23         7.2550   -0.7100    7.7710 c3        1 1BT      0.033000
     24 C24         6.9110   -1.0410    9.1980 c2        1 1BT      0.085000
     25 C25         7.8370   -0.8930   10.1910 c2        1 1BT     -0.158000
     26 N26         7.5920   -1.0780   11.5790 n2        1 1BT      0.007000
     27 C27         8.7000   -0.8950   12.2410 c2        1 1BT     -0.298000
     28 S28        10.1110   -0.4910   11.2630 ss        1 1BT      0.818000
     29 C29         9.2400   -0.5530    9.9050 c2        1 1BT     -0.260000
     30 C30         9.6240   -0.3710    8.5450 c2        1 1BT     -0.136000
     31 C31         8.7260   -0.4890    7.5400 c2        1 1BT     -0.049000
     32 N32         4.6850   -0.3480    6.3890 n2        1 1BT     -0.288000
     33 H1          1.4710   -8.1520    0.2680 ha        1 1BT      0.234000
     34 H2          0.7360    3.3680    1.5910 ha        1 1BT      0.174000
     35 H3          3.1000    3.7590    2.2740 ha        1 1BT      0.171000
     36 H4          4.4380    3.2670    5.3750 hc        1 1BT      0.105667
     37 H5          4.9070    3.3700    3.6340 hc        1 1BT      0.105667
     38 H6          4.9770    1.7740    4.4790 hc        1 1BT      0.105667
     39 H7         -0.7300    1.8710    2.9400 ha        1 1BT      0.171000
     40 H8         -1.1110    0.4600    4.6890 hc        1 1BT      0.105667
     41 H9          0.2940   -0.5310    5.2360 hc        1 1BT      0.105667
     42 H10        -0.2480    0.9210    6.2030 hc        1 1BT      0.105667
     43 H11         3.2830    1.6410    6.4530 hn        1 1BT      0.267000
     44 H12         2.7810   -3.5610    3.1990 hn        1 1BT      0.315000
     45 H13         4.7920   -5.1640    3.4700 h5        1 1BT      0.253000
     46 H15         7.1680   -2.4800    6.6520 hn        1 1BT      0.289000
     47 H16         5.8740   -1.3620    9.4180 ha        1 1BT      0.201000
     48 H17         8.7620   -0.9850   13.3390 h5        1 1BT      0.252000
     49 H18        10.6860   -0.1480    8.3230 ha        1 1BT      0.196000
     50 H19         9.0430   -0.3770    6.4850 ha        1 1BT      0.194000
     51 H132        1.9030    0.6820    6.5690 hn        1 1BT      0.267000
     52 H222        6.7950    0.3390    7.6280 h1        1 1BT      0.200000
@<TRIPOS>BOND
     1    1    2 1   
     2    2    3 1   
     3    3    4 1   
     4    3   33 1   
     5    5    6 1   
     6    5    9 1   
     7    5   34 1   
     8    6    7 1   
     9    6   35 1   
    10    7    8 1   
    11    7   12 1   
    12    8   36 1   
    13    8   37 1   
    14    8   38 1   
    15    9   10 1   
    16    9   39 1   
    17   10   11 1   
    18   10   12 1   
    19   11   40 1   
    20   11   41 1   
    21   11   42 1   
    22   12   13 1   
    23   13   14 1   
    24   13   43 1   
    25   13   51 1   
    26   14   15 1   
    27   14   32 1   
    28   15   16 1   
    29   16   17 1   
    30   16   20 1   
    31   17   18 1   
    32   17   44 1   
    33   18   19 1   
    34   18   45 1   
    35   19   20 1   
    36   20   21 1   
    37   21   22 1   
    38   21   32 1   
    39   22   23 1   
    40   22   46 1   
    41   23   24 1   
    42   23   31 1   
    43   23   52 1   
    44   24   25 1   
    45   24   47 1   
    46   25   26 1   
    47   25   29 1   
    48   26   27 1   
    49   27   28 1   
    50   27   48 1   
    51   28   29 1   
    52   29   30 1   
    53   30   31 1   
    54   30   49 1   
    55   31   50 1   
@<TRIPOS>SUBSTRUCTURE
     1 1BT         1 TEMP              0 ****  ****    0 ROOT
