@<TRIPOS>MOLECULE
1BT
   50    37     1     0     0
SMALL
bcc


@<TRIPOS>ATOM
      1 N01        -5.5040   -0.1530   -3.9750 n1        1 1BT     -0.135500
      2 C02        -4.9470   -0.0490   -4.9650 c1        1 1BT     -0.007500
      3 C03        -4.2100    0.0880   -6.2770 c1        1 1BT     -0.079000
      4 C04        -2.8620    0.0940   -6.2960 c1        1 1BT     -0.079000
      5 C05        -2.0860   -0.0380   -5.0020 c1        1 1BT     -0.064000
      6 C06        -1.7290   -1.2930   -4.5340 c1        1 1BT     -0.111000
      7 C07        -0.9240   -1.4130   -3.4110 c1        1 1BT      0.007500
      8 C08        -0.4550   -2.7790   -2.9590 c2        1 1BT     -0.179000
      9 C09        -1.6370    1.0990   -4.3460 c1        1 1BT     -0.112000
     10 C10        -0.8330    0.9800   -3.2230 c1        1 1BT     -0.085000
     11 C11        -0.2730    2.2190   -2.5610 c3        1 1BT     -0.187000
     12 C12        -0.4760   -0.2760   -2.7560 c1        1 1BT      0.007500
     13 N13         0.4290   -0.3960   -1.6650 n2        1 1BT     -0.215000
     14 C14        -0.0660   -0.4790   -0.3350 c1        1 1BT      0.184000
     15 N15        -1.3190   -0.5470    0.2000 n1        1 1BT     -0.135500
     16 C16        -1.4800   -0.7090    1.5440 c1        1 1BT     -0.007500
     17 N17        -2.5890   -0.8320    2.3220 n1        1 1BT     -0.229000
     18 C18        -2.1870   -1.0000    3.6010 c1        1 1BT     -0.056000
     19 N19        -0.8340   -0.9820    3.6210 n2        1 1BT     -0.109000
     20 C20        -0.3980   -0.8010    2.3460 c1        1 1BT     -0.258000
     21 C21         0.8750   -0.7320    1.8000 c1        1 1BT      0.257000
     22 N22         1.8310   -1.0640    2.8000 n2        1 1BT     -0.248000
     23 C23         2.4850   -0.0330    3.5280 c2        1 1BT      0.064000
     24 C24         1.9720    0.6020    4.6640 c2        1 1BT     -0.119000
     25 C25         2.8200    1.3100    5.5040 c1        1 1BT     -0.046000
     26 N26         2.5380    2.1550    6.8150 n1        1 1BT     -0.092000
     27 C27         3.7690    2.7140    7.2630 c1        1 1BT     -0.285000
     28 S28         4.8740    2.2670    6.2890 ss        1 1BT      0.413000
     29 C29         4.2110    1.3890    5.2090 c1        1 1BT     -0.326000
     30 C30         4.7170    0.7580    4.0800 c1        1 1BT     -0.080000
     31 C31         3.8620    0.0450    3.2350 c1        1 1BT     -0.107000
     32 N32         1.0290   -0.5730    0.4750 n2        1 1BT     -0.293000
     33 H1         -4.7100    0.1730   -7.1120 ha        1 1BT      0.144000
     34 H2         -2.3860    0.1830   -7.1430 ha        1 1BT      0.144000
     35 H3         -2.0560   -2.0940   -4.9870 ha        1 1BT      0.144000
     36 H4          0.5190   -2.7710   -2.8520 ha        1 1BT      0.092667
     37 H5         -0.8770   -3.0020   -2.1030 ha        1 1BT      0.092667
     38 H6         -0.7050   -3.4480   -3.6310 ha        1 1BT      0.092667
     39 H7         -1.8690    1.9830   -4.6900 ha        1 1BT      0.134000
     40 H8         -0.9970    2.7070   -2.1170 hc        1 1BT      0.088667
     41 H9          0.4000    1.9590   -1.8970 hc        1 1BT      0.088667
     42 H10         0.1410    2.7930   -3.2390 hc        1 1BT      0.088667
     43 H11         1.3270   -0.4180   -1.8180 hn        1 1BT      0.224000
     44 H12        -3.4530   -0.8050    2.0310 DU        1 1BT      0.222667
     45 H13        -2.7700   -1.1370    4.3730 DU        1 1BT      0.222667
     46 H15         2.0330   -1.9380    2.9660 hn        1 1BT      0.254000
     47 H16         1.0250    0.5210    4.8820 ha        1 1BT      0.155000
     48 H17         3.8820    3.3230    8.0180 DU        1 1BT      0.222667
     49 H18         5.6710    0.8110    3.8770 ha        1 1BT      0.143000
     50 H19         4.2200   -0.4090    2.4490 ha        1 1BT      0.161000
@<TRIPOS>BOND
     1    1    2 1   
     2    3    4 1   
     3    3   33 1   
     4    4   34 1   
     5    5    6 1   
     6    6   35 1   
     7    7   12 1   
     8    8   36 1   
     9    8   37 1   
    10    8   38 1   
    11    9   10 1   
    12    9   39 1   
    13   10   11 1   
    14   11   40 1   
    15   11   41 1   
    16   11   42 1   
    17   13   14 1   
    18   13   43 1   
    19   14   32 1   
    20   15   16 1   
    21   17   18 1   
    22   18   19 1   
    23   19   20 1   
    24   20   21 1   
    25   21   32 1   
    26   22   23 1   
    27   22   46 1   
    28   23   24 1   
    29   23   31 1   
    30   24   25 1   
    31   24   47 1   
    32   26   27 1   
    33   27   28 1   
    34   28   29 1   
    35   29   30 1   
    36   30   49 1   
    37   31   50 1   
@<TRIPOS>SUBSTRUCTURE
     1 1BT         1 TEMP              0 ****  ****    0 ROOT
