@<TRIPOS>MOLECULE
1BT
   50    54     1     0     0
SMALL
bcc


@<TRIPOS>ATOM
      1 N01       -10.1450   -1.4420    0.0390 n1        1 1BT     -0.367800
      2 C02        -9.0140   -1.2390   -0.1460 cg        1 1BT      0.185500
      3 C03        -7.6430   -0.9750   -0.3910 ce        1 1BT     -0.070700
      4 C04        -6.6590   -1.5620    0.3110 cf        1 1BT     -0.043200
      5 C05        -5.2410   -1.3230    0.0980 ca        1 1BT     -0.069800
      6 C06        -4.3380   -1.6470    1.1210 ca        1 1BT     -0.113000
      7 C07        -2.9710   -1.4240    0.9690 ca        1 1BT     -0.060800
      8 C08        -2.0480   -1.7760    2.0750 c3        1 1BT     -0.057800
      9 C09        -4.7470   -0.7940   -1.0970 ca        1 1BT     -0.113000
     10 C10        -3.3800   -0.5700   -1.2850 ca        1 1BT     -0.060800
     11 C11        -2.9090   -0.0290   -2.5830 c3        1 1BT     -0.057800
     12 C12        -2.4770   -0.8740   -0.2400 ca        1 1BT      0.120600
     13 N13        -1.0790   -0.6930   -0.4390 nh        1 1BT     -0.697300
     14 C14        -0.4830    0.5520   -0.1020 ca        1 1BT      0.904900
     15 N15        -1.2840    1.6760   -0.0940 nb        1 1BT     -0.756000
     16 C16        -0.5860    2.8250    0.1140 ca        1 1BT      0.478800
     17 N17        -1.0360    4.1500    0.1700 na        1 1BT     -0.383000
     18 C18         0.1110    4.9450    0.4030 cc        1 1BT      0.399700
     19 N19         1.2440    4.2360    0.4980 nd        1 1BT     -0.535100
     20 C20         0.8540    2.9000    0.3250 ca        1 1BT     -0.250200
     21 C21         1.5680    1.6560    0.3310 ca        1 1BT      0.778200
     22 N22         2.9320    1.6810    0.6060 nh        1 1BT     -0.725300
     23 C23         3.7960    0.5770    0.4450 ca        1 1BT      0.144600
     24 C24         4.9950    0.7490   -0.2670 ca        1 1BT     -0.116000
     25 C25         5.8940   -0.3250   -0.3640 ca        1 1BT      0.094400
     26 N26         7.1300   -0.3000   -1.0390 nc        1 1BT     -0.519100
     27 C27         7.7030   -1.4800   -0.9350 cd        1 1BT      0.356100
     28 S28         6.8390   -2.6830   -0.0470 ss        1 1BT     -0.036100
     29 C29         5.5830   -1.5860    0.2470 ca        1 1BT     -0.099100
     30 C30         4.3880   -1.7370    0.9490 ca        1 1BT     -0.079000
     31 C31         3.5080   -0.6740    1.0560 ca        1 1BT     -0.106000
     32 N32         0.8940    0.4950    0.1200 nb        1 1BT     -0.817000
     33 H1         -7.4470   -0.2450   -1.1960 ha        1 1BT      0.154000
     34 H2         -6.8990   -2.2740    1.1230 ha        1 1BT      0.138000
     35 H3         -4.7160   -2.0750    2.0630 ha        1 1BT      0.137000
     36 H4         -1.3650   -2.6070    1.7660 hc        1 1BT      0.051200
     37 H5         -1.4230   -0.8940    2.3640 hc        1 1BT      0.051200
     38 H6         -2.6120   -2.1110    2.9810 hc        1 1BT      0.051200
     39 H7         -5.4420   -0.5560   -1.9180 ha        1 1BT      0.137000
     40 H8         -2.4860    0.9970   -2.4460 hc        1 1BT      0.051200
     41 H9         -2.1080   -0.6820   -3.0130 hc        1 1BT      0.051200
     42 H10        -3.7460    0.0320   -3.3220 hc        1 1BT      0.051200
     43 H11        -0.5410   -1.4860   -0.1440 hn        1 1BT      0.430800
     44 H12        -1.9680    4.4540    0.0750 hn        1 1BT      0.319700
     45 H13         0.0350    6.0360    0.4900 h5        1 1BT      0.074800
     46 H15         3.3620    2.5800    0.5170 hn        1 1BT      0.458800
     47 H16         5.2470    1.7080   -0.7470 ha        1 1BT      0.155000
     48 H17         8.6770   -1.6890   -1.3880 h5        1 1BT      0.062800
     49 H18         4.1450   -2.6990    1.4240 ha        1 1BT      0.142000
     50 H19         2.5760   -0.8060    1.6270 ha        1 1BT      0.156000
@<TRIPOS>BOND
     1    1    2 3   
     2    2    3 1   
     3    3    4 2   
     4    3   33 1   
     5    4    5 1   
     6    4   34 1   
     7    5    6 ar  
     8    5    9 ar  
     9    6    7 ar  
    10    6   35 1   
    11    7    8 1   
    12    7   12 ar  
    13    8   36 1   
    14    8   37 1   
    15    8   38 1   
    16    9   10 ar  
    17    9   39 1   
    18   10   11 1   
    19   10   12 ar  
    20   11   40 1   
    21   11   41 1   
    22   11   42 1   
    23   12   13 1   
    24   13   14 1   
    25   13   43 1   
    26   14   15 ar  
    27   14   32 ar  
    28   15   16 ar  
    29   16   17 1   
    30   16   20 ar  
    31   17   18 1   
    32   17   44 1   
    33   18   19 2   
    34   18   45 1   
    35   19   20 1   
    36   20   21 ar  
    37   21   22 1   
    38   21   32 ar  
    39   22   23 1   
    40   22   46 1   
    41   23   24 ar  
    42   23   31 ar  
    43   24   25 ar  
    44   24   47 1   
    45   25   26 1   
    46   25   29 ar  
    47   26   27 2   
    48   27   28 1   
    49   27   48 1   
    50   28   29 1   
    51   29   30 ar  
    52   30   31 ar  
    53   30   49 1   
    54   31   50 1   
@<TRIPOS>SUBSTRUCTURE
     1 1BT         1 TEMP              0 ****  ****    0 ROOT
