@<TRIPOS>MOLECULE
1BT
   50    53     1     0     0
SMALL
bcc


@<TRIPOS>ATOM
      1 N01         0.3930   -4.2190    2.0260 n1        1 1BT     -0.075000
      2 C02         0.6600   -3.0900    1.9290 c1        1 1BT     -0.045000
      3 C03         1.0070   -1.7300    1.8510 c2        1 1BT     -0.413000
      4 C04         0.4230   -0.7770    1.1400 c1        1 1BT      0.238000
      5 C05         1.8740    1.2500    1.1230 ca        1 1BT     -0.115000
      6 C06         3.2410    0.9670    1.1360 ca        1 1BT     -0.145000
      7 C07         3.9020    0.7110    2.3370 ca        1 1BT     -0.053500
      8 C08         5.3530    0.4080    2.3260 c3        1 1BT     -0.185000
      9 C09         1.1660    1.3100    2.3220 ca        1 1BT     -0.145000
     10 C10         1.8060    1.0790    3.5500 ca        1 1BT     -0.053500
     11 C11         1.0260    1.1780    4.8060 c3        1 1BT     -0.185000
     12 C12         3.1810    0.7530    3.5600 ca        1 1BT      0.020000
     13 N13         3.8380    0.5360    4.8040 nu        1 1BT     -0.220000
     14 C14         3.9350   -0.7850    5.3160 c2        1 1BT      0.187000
     15 N15         3.0400   -1.7270    4.8510 n2        1 1BT     -0.251000
     16 C16         3.1370   -2.9220    5.4970 c2        1 1BT      0.087000
     17 N17         2.4010   -4.1000    5.3230 na        1 1BT     -0.226000
     18 C18         2.9170   -5.0260    6.2580 c2        1 1BT     -0.051000
     19 N19         3.9130   -4.5330    7.0100 n2        1 1BT     -0.111000
     20 C20         4.0850   -3.2150    6.5630 c2        1 1BT     -0.257000
     21 C21         4.9890   -2.1620    6.9290 c2        1 1BT      0.258000
     22 N22         5.9580   -2.4300    7.8900 nu        1 1BT     -0.246000
     23 C23         6.7750   -1.4500    8.4940 ca        1 1BT      0.063000
     24 C24         6.8830   -1.4230    9.8940 ca        1 1BT     -0.116000
     25 C25         7.7530   -0.4990   10.4950 ca        1 1BT     -0.045000
     26 N26         7.9680   -0.3590   11.8800 n2        1 1BT     -0.092000
     27 C27         8.8360    0.6070   12.0870 c2        1 1BT     -0.284000
     28 S28         9.4530    1.4050   10.6850 ss        1 1BT      0.415000
     29 C29         8.5100    0.4130    9.6870 ca        1 1BT     -0.325000
     30 C30         8.3880    0.3710    8.2990 ca        1 1BT     -0.079000
     31 C31         7.5400   -0.5490    7.7060 ca        1 1BT     -0.106000
     32 N32         4.9080   -0.9590    6.3010 n2        1 1BT     -0.289000
     33 H1          1.8770   -1.4410    2.4970 ha        1 1BT      0.233000
     34 H2          1.3600    1.4520    0.1690 ha        1 1BT      0.155000
     35 H3          3.8010    0.9400    0.1890 ha        1 1BT      0.147000
     36 H4          5.9240    1.2130    2.8550 hc        1 1BT      0.092333
     37 H5          5.5590   -0.5650    2.8390 hc        1 1BT      0.092333
     38 H6          5.7430    0.3390    1.2800 hc        1 1BT      0.092333
     39 H7          0.0940    1.5670    2.3120 ha        1 1BT      0.147000
     40 H8          1.0010    0.1880    5.3270 hc        1 1BT      0.092333
     41 H9          1.4950    1.9230    5.4970 hc        1 1BT      0.092333
     42 H10        -0.0260    1.4980    4.6030 hc        1 1BT      0.092333
     43 H11         4.6820    1.0700    4.9000 hn        1 1BT      0.228000
     44 H12         1.6880   -4.2540    4.6590 hn        1 1BT      0.277000
     45 H13         2.5110   -6.0430    6.3300 h5        1 1BT      0.207000
     46 H15         5.7900   -3.2490    8.4400 hn        1 1BT      0.255000
     47 H16         6.3050   -2.1120   10.5300 ha        1 1BT      0.156000
     48 H17         9.1530    0.8920   13.0960 h5        1 1BT      0.192000
     49 H18         8.9690    1.0640    7.6730 ha        1 1BT      0.142000
     50 H19         7.4680   -0.5780    6.6070 ha        1 1BT      0.156000
@<TRIPOS>BOND
     1    1    2 1   
     2    2    3 1   
     3    3    4 1   
     4    3   33 1   
     5    5    6 1   
     6    5    9 1   
     7    5   34 1   
     8    6    7 1   
     9    6   35 1   
    10    7    8 1   
    11    7   12 1   
    12    8   36 1   
    13    8   37 1   
    14    8   38 1   
    15    9   10 1   
    16    9   39 1   
    17   10   11 1   
    18   10   12 1   
    19   11   40 1   
    20   11   41 1   
    21   11   42 1   
    22   12   13 1   
    23   13   14 1   
    24   13   43 1   
    25   14   15 1   
    26   14   32 1   
    27   15   16 1   
    28   16   17 1   
    29   16   20 1   
    30   17   18 1   
    31   17   44 1   
    32   18   19 1   
    33   18   45 1   
    34   19   20 1   
    35   20   21 1   
    36   21   22 1   
    37   21   32 1   
    38   22   23 1   
    39   22   46 1   
    40   23   24 1   
    41   23   31 1   
    42   24   25 1   
    43   24   47 1   
    44   25   26 1   
    45   25   29 1   
    46   26   27 1   
    47   27   28 1   
    48   27   48 1   
    49   28   29 1   
    50   29   30 1   
    51   30   31 1   
    52   30   49 1   
    53   31   50 1   
@<TRIPOS>SUBSTRUCTURE
     1 1BT         1 TEMP              0 ****  ****    0 ROOT
