@<TRIPOS>MOLECULE
1BU
   68    88     1     0     0
SMALL
bcc


@<TRIPOS>ATOM
      1 C4          0.0000    0.0000    0.0000 c3        1 1BU     -0.134000
      2 C5          1.4160    0.0000    0.0000 c2        1 1BU     -0.194000
      3 C6          2.0850    0.0000    1.2500 c2        1 1BU      0.118000
      4 N1          1.3510    0.0020    2.3540 n2        1 1BU     -0.226000
      5 N3         -0.6450    0.0010    1.1780 n7        1 1BU     -0.029000
      6 CBA         8.5320   -1.3840   12.9070 c3        1 1BU     -0.156000
      7 CAQ         8.3780   -2.3240   11.9080 c2        1 1BU     -0.230000
      8 CAI         8.8180   -0.0690   12.5820 c3        1 1BU     -0.161000
      9 CAG         8.9540    0.3040   11.2580 c2        1 1BU      0.477000
     10 CAJ         8.8060   -0.6340   10.2550 c3        1 1BU      0.073000
     11 CBE         8.5130   -1.9520   10.5770 c2        1 1BU     -0.148000
     12 NBK         8.2250   -2.8010    9.7370 n3        1 1BU      0.544000
     13 NAV         8.7340   -4.1060    9.7930 n2        1 1BU     -0.231000
     14 CBF         8.8520   -4.5570    8.5700 c3        1 1BU     -0.362000
     15 CBL         9.3620   -5.9190    8.1780 DU        1 1BU     -0.309000
     16 CAC         9.3730   -6.8320    9.4070 c3        1 1BU     -0.195000
     17 CAD         8.4480   -6.5190    7.1070 c3        1 1BU     -0.246000
     18 CAB        10.7820   -5.7930    7.6250 c3        1 1BU     -0.370000
     19 CAR         8.4220   -3.5610    7.6870 c2        1 1BU     -0.267000
     20 CBG         8.0340   -2.4860    8.4270 c1        1 1BU     -0.090000
     21 NAX         7.2360   -0.4880    7.9860 n2        1 1BU     -0.143000
     22 CAZ         6.6960   -0.5720    6.7530 c2        1 1BU      0.467000
     23 OAF         6.8230   -1.5900    6.1020 oh        1 1BU     -0.432000
     24 CBC         5.3740    0.3550    5.0030 c3        1 1BU     -0.052000
     25 CAL         4.1640    0.9990    4.7830 c2        1 1BU      0.254000
     26 CAN         3.5310    0.8810    3.5630 c2        1 1BU      0.093000
     27 CAK         5.9520   -0.4020    3.9930 c2        1 1BU     -0.243000
     28 CAM         5.3190   -0.5200    2.7710 c2        1 1BU     -0.171000
     29 CBD         4.1060    0.1200    2.5530 c3        1 1BU      0.327000
     30 NAY         3.4630   -0.0010    1.3150 n7        1 1BU     -0.293000
     31 CAS         2.1120   -0.0010   -1.2130 c2        1 1BU     -0.376000
     32 CBB         1.4030   -0.0020   -2.3980 DU        1 1BU     -0.353000
     33 NAE         2.0890   -0.0040   -3.6150 n8        1 1BU     -0.359000
     34 CAO         0.0050   -0.0020   -2.3910 c2        1 1BU     -0.040000
     35 CAP        -0.6900   -0.0060   -1.2200 c2        1 1BU      0.000000
     36 C2          0.0280    0.0020    2.3040 c2        1 1BU     -0.053000
     37 HAA         8.1200   -1.6040   13.3160 DU        1 1BU     -0.294000
     38 HAAA        9.4290   -2.0360   14.4920 hc        1 1BU      0.165000
     39 HAAB        9.4340   -2.0280   14.4640 hc        1 1BU      0.165000
     40 HAQ         8.4350   -1.9390   12.9190 DU        1 1BU      0.192000
     41 HAI         8.6320   -0.9240   13.2220 hc        1 1BU      0.219000
     42 HAG         8.7280   -0.7240   11.5130 DU        1 1BU      0.071000
     43 HAJ         8.8470   -0.2150   11.2540 DU        1 1BU     -0.559000
     44 HAC         9.2050   -5.8030    9.7030 hc        1 1BU      0.062000
     45 HACA        9.2370   -5.7590    9.4720 DU        1 1BU      0.275000
     46 HACB        8.3680   -6.9190    9.8010 hc        1 1BU      0.062000
     47 HAD         8.9440   -6.4840    8.0690 DU        1 1BU      0.303000
     48 HADA        8.9610   -7.0350    7.9090 DU        1 1BU     -0.018000
     49 HADB        7.4140   -6.3990    7.4060 hc        1 1BU      0.046000
     50 HAB         9.8870   -5.8810    7.0210 hc        1 1BU      0.197000
     51 HABA        9.9760   -6.4750    7.3820 hc        1 1BU      0.197000
     52 HABB       11.4780   -5.6560    8.4430 hc        1 1BU      0.197000
     53 HAR         9.1090   -4.3830    7.5270 DU        1 1BU      0.343000
     54 HNAX        7.8720   -1.1820    7.6470 hn        1 1BU      0.199000
     55 HNAW        6.4640   -0.4060    6.4090 DU        1 1BU      0.247000
     56 HAL         4.8220    0.8490    5.6310 DU        1 1BU      0.349000
     57 HAN         4.1870    0.9530    4.4220 ha        1 1BU     -0.399000
     58 HAK         5.2370    0.2360    4.4980 ha        1 1BU      0.175000
     59 HAM         4.4450    0.0880    2.9690 ha        1 1BU     -0.321000
     60 HNAY        4.2190   -0.1990    1.9410 DU        1 1BU      0.380000
     61 HAS         2.9070   -0.2430   -0.5190 ha        1 1BU      0.265000
     62 HNAE        2.5150   -0.0140   -2.7090 DU        1 1BU      0.303000
     63 HNAA        2.5060   -0.0610   -2.7070 DU        1 1BU      0.303000
     64 HAO         0.8110   -0.3190   -3.0420 DU        1 1BU      0.358000
     65 HAP         0.1130    0.2100   -1.9150 ha        1 1BU      0.060000
     66 H2         -0.0800    0.0010    1.2260 DU        1 1BU      0.211000
     67 NAW         6.0160    0.4740    6.2430 n7        1 1BU     -0.401000
     68 CAA         8.3850   -1.7870   14.3510 c3        1 1BU      0.160000
@<TRIPOS>BOND
     1    1    2 1   
     2    1    5 1   
     3    1   35 1   
     4    1   66 1   
     5    2    3 1   
     6    2   31 1   
     7    3    4 1   
     8    3   30 1   
     9    4   36 1   
    10    5   36 1   
    11    5   66 1   
    12    6    7 1   
    13    6    8 1   
    14    6   37 1   
    15    6   68 1   
    16    7   11 1   
    17    7   40 1   
    18    8    9 1   
    19    8   41 1   
    20    8   42 1   
    21    9   10 1   
    22    9   42 1   
    23   10   11 1   
    24   10   42 1   
    25   10   43 1   
    26   11   12 1   
    27   12   13 1   
    28   12   20 1   
    29   13   14 1   
    30   14   15 1   
    31   14   19 1   
    32   14   53 1   
    33   15   16 1   
    34   15   17 1   
    35   15   18 1   
    36   15   45 1   
    37   15   47 1   
    38   16   44 1   
    39   16   45 1   
    40   16   46 1   
    41   17   47 1   
    42   17   48 1   
    43   17   49 1   
    44   18   50 1   
    45   18   51 1   
    46   18   52 1   
    47   19   20 1   
    48   19   53 1   
    49   21   22 1   
    50   21   54 1   
    51   22   23 1   
    52   22   67 1   
    53   23   55 1   
    54   24   25 1   
    55   24   27 1   
    56   24   56 1   
    57   24   67 1   
    58   25   26 1   
    59   25   56 1   
    60   26   29 1   
    61   26   57 1   
    62   27   28 1   
    63   27   58 1   
    64   28   29 1   
    65   28   59 1   
    66   29   30 1   
    67   29   60 1   
    68   30   60 1   
    69   31   32 1   
    70   31   61 1   
    71   32   33 1   
    72   32   34 1   
    73   32   62 1   
    74   32   63 1   
    75   32   64 1   
    76   33   62 1   
    77   33   63 1   
    78   34   35 1   
    79   34   64 1   
    80   35   65 1   
    81   36   66 1   
    82   37   40 1   
    83   37   68 1   
    84   38   68 1   
    85   39   68 1   
    86   42   43 1   
    87   47   48 1   
    88   55   67 1   
@<TRIPOS>SUBSTRUCTURE
     1 1BU         1 TEMP              0 ****  ****    0 ROOT
