@<TRIPOS>MOLECULE
1BU
   68    59     1     0     0
SMALL
bcc


@<TRIPOS>ATOM
      1 C4         -2.5880    2.3930   -6.6130 c1        1 1BU      0.003000
      2 C5         -2.6580    3.4230   -5.7300 c1        1 1BU     -0.111000
      3 C6         -2.6090    3.1700   -4.3670 c1        1 1BU      0.158000
      4 N1         -2.4910    1.9050   -3.9210 n2        1 1BU     -0.230000
      5 N3         -2.4690    1.1130   -6.1580 n1        1 1BU     -0.177000
      6 CAA        -0.4070   -2.1380    7.9390 c3        1 1BU     -0.183000
      7 CBA         0.7780   -1.7620    7.0780 c2        1 1BU     -0.058000
      8 CAQ         0.7750   -2.0630    5.7240 c2        1 1BU     -0.111000
      9 CAI         1.8680   -1.1160    7.6420 c1        1 1BU     -0.132000
     10 CAG         2.9540   -0.7720    6.8530 c1        1 1BU     -0.140500
     11 CAJ         2.9520   -1.0730    5.4980 c1        1 1BU     -0.140500
     12 CBE         1.8630   -1.7180    4.9330 c1        1 1BU      0.063000
     13 NBK         1.9170   -2.1280    3.6540 n2        1 1BU     -0.089500
     14 NAV         2.3920   -3.3390    3.2150 n2        1 1BU     -0.089500
     15 CBF         2.2570   -3.3800    1.8720 c1        1 1BU     -0.021500
     16 CBL         2.6190   -4.5510    0.9740 c2        1 1BU      0.018000
     17 CAC         3.6980   -4.1250    0.0030 c3        1 1BU     -0.203000
     18 CAD         3.1260   -5.6990    1.8210 c3        1 1BU     -0.203000
     19 CAB         1.3940   -4.9940    0.2040 c3        1 1BU     -0.203000
     20 CAR         1.6990   -2.2000    1.4680 c1        1 1BU     -0.205000
     21 CBG         1.4920   -1.4300    2.5770 c1        1 1BU     -0.021500
     22 NAX         0.9710   -0.0990    2.5910 n2        1 1BU     -0.284000
     23 CAZ         0.3790    0.4490    1.4110 c2        1 1BU      0.388000
     24 OAF         0.3180   -0.2170    0.3980 o         1 1BU     -0.348000
     25 NAW        -0.2070    1.7490    1.4460 n         1 1BU     -0.308000
     26 CBC        -0.8640    2.2660    0.2920 c2        1 1BU      0.051000
     27 CAL        -0.1430    2.9810   -0.6540 c2        1 1BU     -0.160000
     28 CAN        -0.7860    3.4960   -1.7720 c1        1 1BU     -0.148000
     29 CAK        -2.2260    2.0650    0.1200 c1        1 1BU     -0.121000
     30 CAM        -2.8690    2.5810   -0.9980 c1        1 1BU     -0.089000
     31 CBD        -2.1480    3.2960   -1.9440 c1        1 1BU      0.033000
     32 NAY        -2.8030    3.8040   -3.1050 n2        1 1BU     -0.239000
     33 CAS        -2.8070    4.7470   -6.2000 c1        1 1BU     -0.179000
     34 CBB        -2.8820    4.9950   -7.5610 c1        1 1BU      0.053000
     35 NAE        -2.9910    6.2510   -8.2130 n3        1 1BU     -0.328000
     36 CAO        -2.8100    3.9440   -8.4620 c1        1 1BU     -0.150000
     37 CAP        -2.6640    2.6460   -8.0020 c1        1 1BU     -0.078000
     38 C2         -2.4200    0.8660   -4.8140 c1        1 1BU     -0.008000
     39 HAA        -0.0900   -2.4570    8.8110 hc        1 1BU      0.088333
     40 HAAA       -0.9800   -1.3530    8.0670 hc        1 1BU      0.088333
     41 HAAB       -0.9200   -2.8480    7.4970 hc        1 1BU      0.088333
     42 HAQ         0.0080   -2.5170    5.3270 ha        1 1BU      0.158000
     43 HAI         1.8700   -0.9040    8.5940 ha        1 1BU      0.137000
     44 HAG         3.7210   -0.3180    7.2500 ha        1 1BU      0.142500
     45 HAJ         3.7170   -0.8300    4.9430 ha        1 1BU      0.142500
     46 HAC         4.4820   -3.8120    0.5020 hc        1 1BU      0.078667
     47 HACA        3.3610   -3.4010   -0.5640 hc        1 1BU      0.078667
     48 HACB        3.9520   -4.8880   -0.5590 hc        1 1BU      0.078667
     49 HAD         3.2660   -6.4870    1.2540 hc        1 1BU      0.078667
     50 HADA        3.9740   -5.4450    2.2420 hc        1 1BU      0.078667
     51 HADB        2.4660   -5.9090    2.5150 hc        1 1BU      0.078667
     52 HAB         1.1170   -4.2800   -0.4080 hc        1 1BU      0.078667
     53 HABA        1.6050   -5.8020   -0.3110 hc        1 1BU      0.078667
     54 HABB        0.6660   -5.1870    0.8310 hc        1 1BU      0.078667
     55 HAR         1.4860   -1.9510    0.5490 DU        1 1BU      0.192000
     56 HNAX        1.0000    0.3930    3.3570 hn        1 1BU      0.224000
     57 HNAW       -0.1620    2.2490    2.2060 hn        1 1BU      0.219000
     58 HAL         0.8150    3.1220   -0.5340 ha        1 1BU      0.129000
     59 HAN        -0.2790    3.9990   -2.4360 ha        1 1BU      0.129000
     60 HAK        -2.7320    1.5630    0.7850 ha        1 1BU      0.175000
     61 HAM        -3.8260    2.4400   -1.1190 ha        1 1BU      0.159000
     62 HNAY       -3.3670    4.5170   -3.0350 hn        1 1BU      0.219000
     63 HAS        -2.8900    5.4820   -5.5660 ha        1 1BU      0.131000
     64 HNAE       -3.0200    6.2920   -9.1270 hn        1 1BU      0.188000
     65 HNAA       -3.0340    7.0190   -7.7200 hn        1 1BU      0.188000
     66 HAO        -2.8630    4.1190   -9.4210 ha        1 1BU      0.139000
     67 HAP        -2.6140    1.9070   -8.6360 ha        1 1BU      0.156000
     68 H2         -2.3350   -0.0510   -4.4890 ha        1 1BU      0.191000
@<TRIPOS>BOND
     1    1    5 1   
     2    1   37 1   
     3    2    3 1   
     4    2   33 1   
     5    3    4 1   
     6    4   38 1   
     7    6    7 1   
     8    6   39 1   
     9    6   40 1   
    10    6   41 1   
    11    7    8 1   
    12    7    9 1   
    13    8   12 1   
    14    8   42 1   
    15    9   43 1   
    16   10   11 1   
    17   10   44 1   
    18   11   45 1   
    19   13   14 1   
    20   13   21 1   
    21   14   15 1   
    22   15   20 1   
    23   16   17 1   
    24   16   18 1   
    25   16   19 1   
    26   17   46 1   
    27   17   47 1   
    28   17   48 1   
    29   18   49 1   
    30   18   50 1   
    31   18   51 1   
    32   19   52 1   
    33   19   53 1   
    34   19   54 1   
    35   20   21 1   
    36   22   23 1   
    37   22   56 1   
    38   23   24 1   
    39   23   25 1   
    40   25   26 1   
    41   25   57 1   
    42   26   27 1   
    43   26   29 1   
    44   27   28 1   
    45   27   58 1   
    46   28   59 1   
    47   29   60 1   
    48   30   31 1   
    49   30   61 1   
    50   31   32 1   
    51   32   62 1   
    52   33   63 1   
    53   34   35 1   
    54   34   36 1   
    55   35   64 1   
    56   35   65 1   
    57   36   66 1   
    58   37   67 1   
    59   38   68 1   
@<TRIPOS>SUBSTRUCTURE
     1 1BU         1 TEMP              0 ****  ****    0 ROOT
