@<TRIPOS>MOLECULE
1BU
   68    72     1     0     0
SMALL
bcc


@<TRIPOS>ATOM
      1 C4         -8.1870    0.6330    1.2240 ca        1 1BU      0.395600
      2 C5         -7.2970    0.3670    0.1390 ca        1 1BU     -0.240600
      3 C6         -5.8720    0.6250    0.3930 ca        1 1BU      0.681200
      4 N1         -5.4560    1.0990    1.5850 nb        1 1BU     -0.760000
      5 N3         -7.7370    1.1190    2.4400 nb        1 1BU     -0.703000
      6 CBA         7.3740    2.6940   -0.0360 ca        1 1BU     -0.063300
      7 CAQ         6.8890    1.4030    0.2010 ca        1 1BU     -0.119000
      8 CAI         6.7230    3.5230   -0.9550 ca        1 1BU     -0.132000
      9 CAG         5.6040    3.0600   -1.6430 ca        1 1BU     -0.117000
     10 CAJ         5.1150    1.7750   -1.4260 ca        1 1BU     -0.158000
     11 CBE         5.7520    0.9380   -0.4860 ca        1 1BU      0.016800
     12 NBK         5.2470   -0.3760   -0.2640 na        1 1BU      0.127300
     13 NAV         6.0430   -1.4510   -0.0980 nc        1 1BU     -0.500800
     14 CBF         5.2650   -2.4680    0.3620 cd        1 1BU      0.334600
     15 CBL         5.7630   -3.8610    0.6010 c3        1 1BU     -0.074300
     16 CAC         6.8930   -3.8330    1.6250 c3        1 1BU     -0.086433
     17 CAD         4.6330   -4.7340    1.1310 c3        1 1BU     -0.086433
     18 CAB         6.2790   -4.4510   -0.7070 c3        1 1BU     -0.086433
     19 CAR         3.9060   -2.0090    0.5750 cd        1 1BU     -0.267300
     20 CBG         3.9170   -0.6510    0.2040 cc        1 1BU      0.020300
     21 NAX         2.8930    0.2960    0.2640 n         1 1BU     -0.440100
     22 CAZ         1.5650   -0.0770   -0.0740 c         1 1BU      0.763100
     23 OAF         1.2370   -1.2800   -0.1480 o         1 1BU     -0.592100
     24 CBC        -0.7440    0.7770   -0.3390 ca        1 1BU      0.040600
     25 CAL        -1.5910    1.8190    0.1020 ca        1 1BU     -0.139000
     26 CAN        -2.9710    1.7020    0.0190 ca        1 1BU     -0.119000
     27 CAK        -1.3330   -0.3940   -0.8560 ca        1 1BU     -0.139000
     28 CAM        -2.7150   -0.5170   -0.9200 ca        1 1BU     -0.119000
     29 CBD        -3.5620    0.5270   -0.4880 ca        1 1BU      0.115600
     30 NAY        -4.9620    0.4130   -0.6530 nh        1 1BU     -0.717300
     31 CAS        -7.8060   -0.1060   -1.0860 ca        1 1BU     -0.179000
     32 CBB        -9.1730   -0.3320   -1.2600 ca        1 1BU      0.135600
     33 NAE        -9.6970   -0.7100   -2.4990 nh        1 1BU     -0.819200
     34 CAO       -10.0580   -0.0840   -0.1610 ca        1 1BU     -0.150000
     35 CAP        -9.5820    0.3860    1.0330 ca        1 1BU     -0.143300
     36 C2         -6.4260    1.3240    2.5360 ca        1 1BU      0.653900
     37 HAA         8.6050    2.7760    1.7260 hc        1 1BU      0.049033
     38 HAAA        9.5010    2.8040    0.1510 hc        1 1BU      0.049033
     39 HAAB        8.6170    4.2830    0.7150 hc        1 1BU      0.049033
     40 HAQ         7.4120    0.7540    0.9220 ha        1 1BU      0.157000
     41 HAI         7.0990    4.5400   -1.1380 ha        1 1BU      0.138000
     42 HAG         5.1040    3.7110   -2.3770 ha        1 1BU      0.137000
     43 HAJ         4.2550    1.4150   -2.0110 ha        1 1BU      0.144000
     44 HAC         6.5420   -3.3690    2.5770 hc        1 1BU      0.039589
     45 HACA        7.2350   -4.8740    1.8380 hc        1 1BU      0.039589
     46 HACB        7.7600   -3.2460    1.2370 hc        1 1BU      0.039589
     47 HAD         3.7980   -4.7830    0.3920 hc        1 1BU      0.039589
     48 HADA        5.0100   -5.7690    1.3130 hc        1 1BU      0.039589
     49 HADB        4.2390   -4.3230    2.0910 hc        1 1BU      0.039589
     50 HAB         7.1430   -3.8590   -1.0910 hc        1 1BU      0.039589
     51 HABA        6.6130   -5.5040   -0.5390 hc        1 1BU      0.039589
     52 HABB        5.4720   -4.4500   -1.4770 hc        1 1BU      0.039589
     53 HAR         3.0510   -2.5830    0.9160 ha        1 1BU      0.191000
     54 HNAX        3.1710    1.2460    0.1290 hn        1 1BU      0.316500
     55 HNAW        0.9250    1.8900   -0.0190 hn        1 1BU      0.306500
     56 HAL        -1.1670    2.7480    0.5130 ha        1 1BU      0.152000
     57 HAN        -3.5980    2.5400    0.3640 ha        1 1BU      0.144500
     58 HAK        -0.7040   -1.2320   -1.2000 ha        1 1BU      0.152000
     59 HAM        -3.1400   -1.4510   -1.3200 ha        1 1BU      0.144500
     60 HNAY       -5.2340   -0.3120   -1.2840 hn        1 1BU      0.425800
     61 HAS        -7.1320   -0.2780   -1.9390 ha        1 1BU      0.131000
     62 HNAE       -9.0470   -1.1500   -3.1100 hn        1 1BU      0.393800
     63 HNAA      -10.5770   -1.1740   -2.4530 hn        1 1BU      0.393800
     64 HAO       -11.1370   -0.2630   -0.2860 ha        1 1BU      0.139000
     65 HAP       -10.2740    0.5830    1.8690 ha        1 1BU      0.156000
     66 H2         -6.0420    1.7170    3.5010 h5        1 1BU      0.052100
     67 NAW         0.6540    0.9760   -0.3140 n         1 1BU     -0.452100
     68 CAA         8.5830    3.1670    0.6780 c3        1 1BU     -0.057800
@<TRIPOS>BOND
     1    1    2 ar  
     2    1    5 ar  
     3    1   35 ar  
     4    2    3 ar  
     5    2   31 ar  
     6    3    4 ar  
     7    3   30 1   
     8    4   36 ar  
     9    5   36 ar  
    10    6    7 ar  
    11    6    8 ar  
    12    6   68 1   
    13    7   11 ar  
    14    7   40 1   
    15    8    9 ar  
    16    8   41 1   
    17    9   10 ar  
    18    9   42 1   
    19   10   11 ar  
    20   10   43 1   
    21   11   12 1   
    22   12   13 1   
    23   12   20 1   
    24   13   14 2   
    25   14   15 1   
    26   14   19 1   
    27   15   16 1   
    28   15   17 1   
    29   15   18 1   
    30   16   44 1   
    31   16   45 1   
    32   16   46 1   
    33   17   47 1   
    34   17   48 1   
    35   17   49 1   
    36   18   50 1   
    37   18   51 1   
    38   18   52 1   
    39   19   20 2   
    40   19   53 1   
    41   20   21 1   
    42   21   22 1   
    43   21   54 1   
    44   22   23 2   
    45   22   67 1   
    46   24   25 ar  
    47   24   27 ar  
    48   24   67 1   
    49   25   26 ar  
    50   25   56 1   
    51   26   29 ar  
    52   26   57 1   
    53   27   28 ar  
    54   27   58 1   
    55   28   29 ar  
    56   28   59 1   
    57   29   30 1   
    58   30   60 1   
    59   31   32 ar  
    60   31   61 1   
    61   32   33 1   
    62   32   34 ar  
    63   33   62 1   
    64   33   63 1   
    65   34   35 ar  
    66   34   64 1   
    67   35   65 1   
    68   36   66 1   
    69   37   68 1   
    70   38   68 1   
    71   39   68 1   
    72   55   67 1   
@<TRIPOS>SUBSTRUCTURE
     1 1BU         1 TEMP              0 ****  ****    0 ROOT
