@<TRIPOS>MOLECULE
1BW
   36    36     1     0     0
SMALL
bcc


@<TRIPOS>ATOM
      1 C1         -1.6290    0.2920    0.1160 c3        1 1BW      0.148800
      2 C2         -0.1160    0.3170    0.0820 c3        1 1BW      0.110700
      3 N2          0.3800   -0.8500   -0.5460 n         1 1BW     -0.559900
      4 C7          1.0500   -0.7550   -1.7930 c         1 1BW      0.651100
      5 C8          1.5700   -2.0040   -2.4700 c3        1 1BW     -0.150400
      6 O7          1.1980    0.3290   -2.3220 o         1 1BW     -0.604100
      7 C3          0.3040    0.3560    1.4970 c3        1 1BW      0.100100
      8 O3          1.7590    0.5600    1.5400 oh        1 1BW     -0.607800
      9 C4         -0.3450    1.4270    2.3240 c3        1 1BW      0.104100
     10 O4          0.1340    1.2990    3.6930 oh        1 1BW     -0.599800
     11 C5         -1.8500    1.3950    2.3460 c3        1 1BW      0.149500
     12 C6         -2.3750    2.6040    2.9870 c3        1 1BW      0.127400
     13 O6         -3.6550    2.3370    3.5160 oh        1 1BW     -0.609800
     14 N5         -2.2610    1.3460    0.9400 n3        1 1BW     -0.819200
     15 C9          2.1300   -1.6450   -3.8290 c3        1 1BW     -0.075400
     16 C10         2.7010   -2.8850   -4.4810 c3        1 1BW     -0.095100
     17 H1         -1.9130   -0.5780    0.4620 h1        1 1BW      0.054700
     18 H2         -1.9580    0.3820   -0.8010 h1        1 1BW      0.054700
     19 H3          0.1990    1.1150   -0.3870 h1        1 1BW      0.078700
     20 H4          0.2660   -1.6640   -0.1510 hn        1 1BW      0.314500
     21 H5          2.2750   -2.4020   -1.9210 hc        1 1BW      0.062700
     22 H6          0.8390   -2.6450   -2.5770 hc        1 1BW      0.062700
     23 H7          0.1010   -0.5090    1.9020 h1        1 1BW      0.039700
     24 H8          2.1230   -0.0190    2.1090 ho        1 1BW      0.422000
     25 H9         -0.0610    2.2960    1.9780 h1        1 1BW      0.105700
     26 H10        -0.1220    0.5150    4.0240 ho        1 1BW      0.404000
     27 H11        -2.1640    0.6000    2.8170 h1        1 1BW      0.029700
     28 H12        -1.7730    2.8770    3.7100 h1        1 1BW      0.043200
     29 H13        -2.4390    3.3230    2.3250 h1        1 1BW      0.043200
     30 H14        -3.9250    3.0310    4.0020 ho        1 1BW      0.407000
     31 H15        -3.1710    1.2670    0.8900 hn        1 1BW      0.389800
     32 H17         1.4160   -1.2810   -4.3890 hc        1 1BW      0.058200
     33 H18         2.8360   -0.9770   -3.7240 hc        1 1BW      0.058200
     34 H19         3.3730   -3.2850   -3.8900 hc        1 1BW      0.034033
     35 H20         3.1200   -2.6420   -5.3340 hc        1 1BW      0.034033
     36 H21         1.9820   -3.5300   -4.6430 hc        1 1BW      0.034033
@<TRIPOS>BOND
     1    1    2 1   
     2    1   14 1   
     3    1   17 1   
     4    1   18 1   
     5    2    3 1   
     6    2    7 1   
     7    2   19 1   
     8    3    4 1   
     9    3   20 1   
    10    4    5 1   
    11    4    6 2   
    12    5   15 1   
    13    5   21 1   
    14    5   22 1   
    15    7    8 1   
    16    7    9 1   
    17    7   23 1   
    18    8   24 1   
    19    9   10 1   
    20    9   11 1   
    21    9   25 1   
    22   10   26 1   
    23   11   12 1   
    24   11   14 1   
    25   11   27 1   
    26   12   13 1   
    27   12   28 1   
    28   12   29 1   
    29   13   30 1   
    30   14   31 1   
    31   15   16 1   
    32   15   32 1   
    33   15   33 1   
    34   16   34 1   
    35   16   35 1   
    36   16   36 1   
@<TRIPOS>SUBSTRUCTURE
     1 1BW         1 TEMP              0 ****  ****    0 ROOT
