@<TRIPOS>MOLECULE
1BW
   36    36     1     0     0
SMALL
bcc


@<TRIPOS>ATOM
      1 C1          0.4880   -1.2360   -0.3560 c3        1 1BW      0.150800
      2 C2         -0.0950    0.1440    0.0680 c3        1 1BW      0.111700
      3 N2         -1.4230    0.3580   -0.4650 n         1 1BW     -0.560900
      4 C7         -2.5210   -0.3120    0.0530 c         1 1BW      0.651100
      5 C8         -3.8850    0.1670   -0.4100 c3        1 1BW     -0.150400
      6 O7         -2.3800   -1.2840    0.8200 o         1 1BW     -0.603100
      7 C3          0.8980    1.2320   -0.4040 c3        1 1BW      0.097100
      8 O3          0.4030    2.4950    0.0190 oh        1 1BW     -0.605800
      9 C4          2.2800    0.9690    0.2220 c3        1 1BW      0.110100
     10 O4          3.2000    1.9270   -0.2830 oh        1 1BW     -0.601800
     11 C5          2.7770   -0.4300   -0.2140 c3        1 1BW      0.176500
     12 C6          4.1620   -0.6850    0.4080 c3        1 1BW      0.130400
     13 O6          4.6720   -1.8620   -0.2000 oh        1 1BW     -0.608800
     14 N5          1.8130   -1.4460    0.1870 n3        1 1BW     -0.824200
     15 C9         -4.9900   -0.6780    0.1860 c3        1 1BW     -0.075400
     16 C10        -6.3450   -0.2040   -0.2700 c3        1 1BW     -0.095100
     17 H1         -0.1820   -2.0410    0.0620 h1        1 1BW      0.053700
     18 H2          0.4680   -1.3060   -1.4830 h1        1 1BW      0.053700
     19 H3         -0.1480    0.1710    1.1990 h1        1 1BW      0.078700
     20 H4         -1.5730    1.2370   -0.9040 hn        1 1BW      0.311500
     21 H5         -4.0210    1.2390   -0.1070 hc        1 1BW      0.062700
     22 H6         -3.9330    0.1190   -1.5300 hc        1 1BW      0.062700
     23 H7          0.9920    1.2200   -1.5260 h1        1 1BW      0.054700
     24 H8          0.9720    3.1600   -0.3890 ho        1 1BW      0.407000
     25 H9          2.2150    1.0340    1.3420 h1        1 1BW      0.066700
     26 H10         3.1420    2.6950    0.2970 ho        1 1BW      0.405000
     27 H11         2.9180   -0.4030   -1.3390 h1        1 1BW      0.047700
     28 H12         4.8270    0.1890    0.1760 h1        1 1BW      0.039700
     29 H13         4.0900   -0.8200    1.5190 h1        1 1BW      0.039700
     30 H14         5.5140   -2.0490    0.2290 ho        1 1BW      0.404000
     31 H15         2.1620   -2.3540   -0.0570 hn        1 1BW      0.390800
     32 H17        -4.8360   -1.7500   -0.1070 hc        1 1BW      0.058700
     33 H18        -4.9230   -0.6380    1.3060 hc        1 1BW      0.058700
     34 H19        -6.5200    0.8550    0.0390 hc        1 1BW      0.033700
     35 H20        -6.4330   -0.2640   -1.3820 hc        1 1BW      0.033700
     36 H21        -7.1460   -0.8400    0.1800 hc        1 1BW      0.033700
@<TRIPOS>BOND
     1    1    2 1   
     2    1   14 1   
     3    1   17 1   
     4    1   18 1   
     5    2    3 1   
     6    2    7 1   
     7    2   19 1   
     8    3    4 1   
     9    3   20 1   
    10    4    5 1   
    11    4    6 2   
    12    5   15 1   
    13    5   21 1   
    14    5   22 1   
    15    7    8 1   
    16    7    9 1   
    17    7   23 1   
    18    8   24 1   
    19    9   10 1   
    20    9   11 1   
    21    9   25 1   
    22   10   26 1   
    23   11   12 1   
    24   11   14 1   
    25   11   27 1   
    26   12   13 1   
    27   12   28 1   
    28   12   29 1   
    29   13   30 1   
    30   14   31 1   
    31   15   16 1   
    32   15   32 1   
    33   15   33 1   
    34   16   34 1   
    35   16   35 1   
    36   16   36 1   
@<TRIPOS>SUBSTRUCTURE
     1 1BW         1 TEMP              0 ****  ****    0 ROOT
