@<TRIPOS>MOLECULE
1BX
   30    31     1     0     0
SMALL
bcc


@<TRIPOS>ATOM
      1 C01         0.0130    0.0800    0.0480 cc        1 1BX     -0.253000
      2 C02         1.3830   -0.0580   -0.0360 cd        1 1BX      0.099400
      3 C03         1.5170   -0.2670    2.4220 c         1 1BX      0.684700
      4 C04         0.0750   -0.1020    2.4580 cd        1 1BX     -0.270200
      5 C05        -0.6500    0.0640    1.3130 cc        1 1BX      0.032800
      6 C06        -2.1200    0.2400    1.3390 c3        1 1BX     -0.068900
      7 C07         2.0740   -0.0020   -1.3720 c3        1 1BX      0.006100
      8 C08         2.3890    1.3980   -1.7750 ca        1 1BX     -0.125300
      9 C09         1.6630    2.0190   -2.7990 ca        1 1BX     -0.082000
     10 C10         1.9640    3.3160   -3.1990 ca        1 1BX     -0.185500
     11 C11         3.0110    4.0010   -2.5600 ca        1 1BX      0.129100
     12 C12         3.7460    3.3920   -1.5330 ca        1 1BX     -0.185500
     13 C           3.4300    2.0920   -1.1480 ca        1 1BX     -0.082000
     14 N           2.1170   -0.2770    1.1260 n         1 1BX     -0.218500
     15 O01         2.2730   -0.4470    3.3970 o         1 1BX     -0.650500
     16 O02         3.2640    5.2800   -2.9970 oh        1 1BX     -0.497100
     17 O           3.4430   -0.2810    1.0200 oh        1 1BX     -0.401100
     18 H1         -0.5760    0.2200   -0.8680 ha        1 1BX      0.153000
     19 H2         -0.3750   -0.1030    3.4600 ha        1 1BX      0.167000
     20 H3         -2.3960    1.2210    0.8760 hc        1 1BX      0.054700
     21 H4         -2.6130   -0.5750    0.7520 hc        1 1BX      0.054700
     22 H5         -2.5160    0.2160    2.3840 hc        1 1BX      0.054700
     23 H6          1.3960   -0.4800   -2.1300 hc        1 1BX      0.072700
     24 H7          3.0260   -0.6020   -1.3460 hc        1 1BX      0.072700
     25 H8          0.8430    1.4780   -3.2960 ha        1 1BX      0.142000
     26 H9          1.4010    3.8120   -4.0020 ha        1 1BX      0.144000
     27 H10         4.5630    3.9340   -1.0370 ha        1 1BX      0.144000
     28 H11         3.9980    1.6030   -0.3400 ha        1 1BX      0.142000
     29 H12         3.9960    5.6360   -2.4730 ho        1 1BX      0.421000
     30 H13         3.7770   -0.8260    1.7680 ho        1 1BX      0.447000
@<TRIPOS>BOND
     1    1    2 2   
     2    1    5 1   
     3    1   18 1   
     4    2    7 1   
     5    2   14 1   
     6    3    4 1   
     7    3   14 1   
     8    3   15 2   
     9    4    5 2   
    10    4   19 1   
    11    5    6 1   
    12    6   20 1   
    13    6   21 1   
    14    6   22 1   
    15    7    8 1   
    16    7   23 1   
    17    7   24 1   
    18    8    9 ar  
    19    8   13 ar  
    20    9   10 ar  
    21    9   25 1   
    22   10   11 ar  
    23   10   26 1   
    24   11   12 ar  
    25   11   16 1   
    26   12   13 ar  
    27   12   27 1   
    28   13   28 1   
    29   14   17 1   
    30   16   29 1   
    31   17   30 1   
@<TRIPOS>SUBSTRUCTURE
     1 1BX         1 TEMP              0 ****  ****    0 ROOT
