@<TRIPOS>MOLECULE
1BX
   30    31     1     0     0
SMALL
bcc


@<TRIPOS>ATOM
      1 C01        -1.6810    1.3340   -0.5070 cc        1 1BX     -0.255000
      2 C02        -1.0570    0.1370   -0.7910 cd        1 1BX      0.101400
      3 C03        -2.7760   -1.0710    0.5060 c         1 1BX      0.683700
      4 C04        -3.3960    0.2130    0.7760 cd        1 1BX     -0.269200
      5 C05        -2.8680    1.3730    0.2870 cc        1 1BX      0.032800
      6 C06        -3.4960    2.6890    0.5500 c3        1 1BX     -0.068900
      7 C07         0.1700    0.1040   -1.6620 c3        1 1BX      0.005100
      8 C08         1.4240    0.1630   -0.8590 ca        1 1BX     -0.123300
      9 C09         2.1270    1.3680   -0.7310 ca        1 1BX     -0.082000
     10 C10         3.3110    1.4270   -0.0040 ca        1 1BX     -0.185500
     11 C11         3.7960    0.2580    0.6050 ca        1 1BX      0.129100
     12 C12         3.1030   -0.9550    0.4850 ca        1 1BX     -0.185500
     13 C           1.9210   -0.9930   -0.2470 ca        1 1BX     -0.082000
     14 N          -1.5670   -1.0410   -0.2540 n         1 1BX     -0.215500
     15 O01        -3.1660   -2.1870    0.9050 o         1 1BX     -0.652500
     16 O02         4.9720    0.3770    1.3100 oh        1 1BX     -0.496100
     17 O          -1.0340   -2.1840   -0.6800 oh        1 1BX     -0.403100
     18 H1         -1.2620    2.2710   -0.8950 ha        1 1BX      0.152000
     19 H2         -4.3160    0.1770    1.3760 ha        1 1BX      0.167000
     20 H3         -4.4290    2.5820    1.1540 hc        1 1BX      0.054367
     21 H4         -2.7830    3.3460    1.1080 hc        1 1BX      0.054367
     22 H5         -3.7520    3.1910   -0.4160 hc        1 1BX      0.054367
     23 H6          0.1710   -0.8290   -2.2910 hc        1 1BX      0.074200
     24 H7          0.1210    0.9820   -2.3630 hc        1 1BX      0.074200
     25 H8          1.7410    2.2800   -1.2110 ha        1 1BX      0.139000
     26 H9          3.8700    2.3670    0.1010 ha        1 1BX      0.144000
     27 H10         3.4900   -1.8650    0.9660 ha        1 1BX      0.144000
     28 H11         1.3630   -1.9390   -0.3460 ha        1 1BX      0.139000
     29 H12         5.1870   -0.4920    1.6790 ho        1 1BX      0.420000
     30 H13        -1.2520   -2.8610    0.0010 ho        1 1BX      0.449000
@<TRIPOS>BOND
     1    1    2 2   
     2    1    5 1   
     3    1   18 1   
     4    2    7 1   
     5    2   14 1   
     6    3    4 1   
     7    3   14 1   
     8    3   15 2   
     9    4    5 2   
    10    4   19 1   
    11    5    6 1   
    12    6   20 1   
    13    6   21 1   
    14    6   22 1   
    15    7    8 1   
    16    7   23 1   
    17    7   24 1   
    18    8    9 ar  
    19    8   13 ar  
    20    9   10 ar  
    21    9   25 1   
    22   10   11 ar  
    23   10   26 1   
    24   11   12 ar  
    25   11   16 1   
    26   12   13 ar  
    27   12   27 1   
    28   13   28 1   
    29   14   17 1   
    30   16   29 1   
    31   17   30 1   
@<TRIPOS>SUBSTRUCTURE
     1 1BX         1 TEMP              0 ****  ****    0 ROOT
