@<TRIPOS>MOLECULE
1BX
   30    25     1     0     0
SMALL
bcc


@<TRIPOS>ATOM
      1 C01        -1.4010    1.1670    0.4690 c1        1 1BX     -0.254000
      2 C02         0.1110    1.1510    0.5160 c1        1 1BX      0.101000
      3 C03         0.0390    1.0810    3.0480 c1        1 1BX      0.323000
      4 C04        -1.4730    1.0480    3.0080 c1        1 1BX     -0.250000
      5 C05        -2.1730    1.0810    1.7160 c1        1 1BX      0.037000
      6 C06        -3.6840    1.1340    1.6760 c2        1 1BX     -0.191000
      7 C07         0.9070    1.2010   -0.7710 c3        1 1BX     -0.084000
      8 C08         1.0070   -0.1910   -1.3570 c2        1 1BX     -0.118000
      9 C09         1.8470   -1.1270   -0.7760 c2        1 1BX     -0.081000
     10 C10         2.0070   -2.3730   -1.3620 c1        1 1BX     -0.155000
     11 C11         1.3250   -2.6830   -2.5280 c1        1 1BX      0.084000
     12 C12         0.4840   -1.7480   -3.1090 c1        1 1BX     -0.216000
     13 C           0.3250   -0.5020   -2.5240 c1        1 1BX     -0.083000
     14 N           0.8030    1.1670    1.8040 n2        1 1BX     -0.142000
     15 O01         0.6190    1.0540    4.1160 o         1 1BX     -0.375000
     16 O02         1.4920   -3.9450   -3.1250 oh        1 1BX     -0.249000
     17 O           2.1670    1.2650    1.8450 oh        1 1BX     -0.206000
     18 H1         -1.8630    1.1890   -0.3910 ha        1 1BX      0.152000
     19 H2         -1.9830    0.9910    3.8390 ha        1 1BX      0.167000
     20 H3         -4.0280    1.3310    2.5730 ha        1 1BX      0.093667
     21 H4         -3.9700    1.8360    1.0550 ha        1 1BX      0.093667
     22 H5         -4.0340    0.2700    1.3750 ha        1 1BX      0.093667
     23 H6          0.4580    1.7920   -1.4090 hc        1 1BX      0.112000
     24 H7          1.8050    1.5420   -0.5860 hc        1 1BX      0.112000
     25 H8          2.3280   -0.9090    0.0450 ha        1 1BX      0.153000
     26 H9          2.6000   -3.0330   -0.9520 ha        1 1BX      0.154000
     27 H10         0.0040   -1.9660   -3.9300 ha        1 1BX      0.134000
     28 H11        -0.2670    0.1570   -2.9330 ha        1 1BX      0.130000
     29 H12         2.1480   -3.9050   -3.7240 ho        1 1BX      0.218000
     30 H13         2.4010    1.9270    2.3920 ho        1 1BX      0.247000
@<TRIPOS>BOND
     1    1    2 1   
     2    1   18 1   
     3    2    7 1   
     4    3   14 1   
     5    3   15 1   
     6    4    5 1   
     7    4   19 1   
     8    6   20 1   
     9    6   21 1   
    10    6   22 1   
    11    7    8 1   
    12    7   23 1   
    13    7   24 1   
    14    8    9 1   
    15    8   13 1   
    16    9   10 1   
    17    9   25 1   
    18   10   26 1   
    19   11   12 1   
    20   11   16 1   
    21   12   27 1   
    22   13   28 1   
    23   14   17 1   
    24   16   29 1   
    25   17   30 1   
@<TRIPOS>SUBSTRUCTURE
     1 1BX         1 TEMP              0 ****  ****    0 ROOT
