@<TRIPOS>MOLECULE
1BX
   30    31     1     0     0
SMALL
bcc


@<TRIPOS>ATOM
      1 C01         0.0280    0.0900    0.0360 cc        1 1BX     -0.254000
      2 C02         1.3980   -0.0610   -0.0250 cd        1 1BX      0.099400
      3 C03         1.4830   -0.3150    2.4310 c         1 1BX      0.684700
      4 C04         0.0430   -0.1350    2.4430 cd        1 1BX     -0.269200
      5 C05        -0.6590    0.0590    1.2880 cc        1 1BX      0.032800
      6 C06        -2.1280    0.2500    1.2900 c3        1 1BX     -0.068900
      7 C07         2.1140    0.0100   -1.3470 c3        1 1BX      0.006100
      8 C08         2.4510    1.4130   -1.7200 ca        1 1BX     -0.125300
      9 C09         1.7470    2.0620   -2.7380 ca        1 1BX     -0.082000
     10 C10         2.0760    3.3640   -3.1090 ca        1 1BX     -0.185500
     11 C11         3.1240    4.0200   -2.4490 ca        1 1BX      0.129100
     12 C12         3.8410    3.3800   -1.4220 ca        1 1BX     -0.185500
     13 C           3.4970    2.0810   -1.0690 ca        1 1BX     -0.082000
     14 N           2.1070   -0.3080    1.1460 n         1 1BX     -0.217500
     15 O01         2.2190   -0.5210    3.4160 o         1 1BX     -0.650500
     16 O02         3.5100    5.3030   -2.7580 oh        1 1BX     -0.495100
     17 O           3.4350   -0.3250    1.0630 oh        1 1BX     -0.401100
     18 H1         -0.5420    0.2520   -0.8880 ha        1 1BX      0.152000
     19 H2         -0.4260   -0.1490    3.4370 ha        1 1BX      0.167000
     20 H3         -2.6180   -0.5490    0.6800 hc        1 1BX      0.054367
     21 H4         -2.5430    0.2110    2.3270 hc        1 1BX      0.054367
     22 H5         -2.3850    1.2420    0.8400 hc        1 1BX      0.054367
     23 H6          3.0590   -0.6000   -1.3130 hc        1 1BX      0.072700
     24 H7          1.4440   -0.4480   -2.1250 hc        1 1BX      0.072700
     25 H8          0.9240    1.5450   -3.2550 ha        1 1BX      0.141500
     26 H9          1.5210    3.8710   -3.9100 ha        1 1BX      0.144000
     27 H10         4.6580    3.9130   -0.9160 ha        1 1BX      0.144000
     28 H11         4.0480    1.5670   -0.2630 ha        1 1BX      0.141500
     29 H12         2.9380    5.6240   -3.4700 ho        1 1BX      0.419000
     30 H13         3.7510   -0.8720    1.8180 ho        1 1BX      0.448000
@<TRIPOS>BOND
     1    1    2 2   
     2    1    5 1   
     3    1   18 1   
     4    2    7 1   
     5    2   14 1   
     6    3    4 1   
     7    3   14 1   
     8    3   15 2   
     9    4    5 2   
    10    4   19 1   
    11    5    6 1   
    12    6   20 1   
    13    6   21 1   
    14    6   22 1   
    15    7    8 1   
    16    7   23 1   
    17    7   24 1   
    18    8    9 ar  
    19    8   13 ar  
    20    9   10 ar  
    21    9   25 1   
    22   10   11 ar  
    23   10   26 1   
    24   11   12 ar  
    25   11   16 1   
    26   12   13 ar  
    27   12   27 1   
    28   13   28 1   
    29   14   17 1   
    30   16   29 1   
    31   17   30 1   
@<TRIPOS>SUBSTRUCTURE
     1 1BX         1 TEMP              0 ****  ****    0 ROOT
