@<TRIPOS>MOLECULE
1BX
   30    31     1     0     0
SMALL
bcc


@<TRIPOS>ATOM
      1 C01         0.0320    0.0850    0.0370 cc        1 1BX     -0.254000
      2 C02         1.4030   -0.0600   -0.0220 cd        1 1BX      0.099400
      3 C03         1.4850   -0.3080    2.4350 c         1 1BX      0.684700
      4 C04         0.0440   -0.1350    2.4440 cd        1 1BX     -0.269200
      5 C05        -0.6570    0.0540    1.2880 cc        1 1BX      0.032800
      6 C06        -2.1260    0.2380    1.2860 c3        1 1BX     -0.068900
      7 C07         2.1210    0.0110   -1.3430 c3        1 1BX      0.006100
      8 C08         2.4530    1.4140   -1.7190 ca        1 1BX     -0.125300
      9 C09         1.7480    2.0580   -2.7400 ca        1 1BX     -0.082000
     10 C10         2.0720    3.3600   -3.1130 ca        1 1BX     -0.185500
     11 C11         3.1150    4.0230   -2.4520 ca        1 1BX      0.129100
     12 C12         3.8320    3.3890   -1.4220 ca        1 1BX     -0.185500
     13 C           3.4940    2.0890   -1.0660 ca        1 1BX     -0.082000
     14 N           2.1110   -0.3020    1.1510 n         1 1BX     -0.217500
     15 O01         2.2200   -0.5090    3.4220 o         1 1BX     -0.650500
     16 O02         3.4960    5.3070   -2.7630 oh        1 1BX     -0.495100
     17 O           3.4390   -0.3130    1.0710 oh        1 1BX     -0.401100
     18 H1         -0.5370    0.2430   -0.8890 ha        1 1BX      0.152000
     19 H2         -0.4270   -0.1490    3.4370 ha        1 1BX      0.167000
     20 H3         -2.3870    1.2280    0.8340 hc        1 1BX      0.054367
     21 H4         -2.6120   -0.5640    0.6760 hc        1 1BX      0.054367
     22 H5         -2.5430    0.2000    2.3220 hc        1 1BX      0.054367
     23 H6          1.4550   -0.4520   -2.1210 hc        1 1BX      0.072700
     24 H7          3.0690   -0.5950   -1.3060 hc        1 1BX      0.072700
     25 H8          0.9290    1.5360   -3.2580 ha        1 1BX      0.141500
     26 H9          1.5170    3.8620   -3.9170 ha        1 1BX      0.144000
     27 H10         4.6450    3.9270   -0.9150 ha        1 1BX      0.144000
     28 H11         4.0440    1.5800   -0.2570 ha        1 1BX      0.141500
     29 H12         2.9230    5.6230   -3.4770 ho        1 1BX      0.419000
     30 H13         3.7560   -0.8580    1.8270 ho        1 1BX      0.448000
@<TRIPOS>BOND
     1    1    2 2   
     2    1    5 1   
     3    1   18 1   
     4    2    7 1   
     5    2   14 1   
     6    3    4 1   
     7    3   14 1   
     8    3   15 2   
     9    4    5 2   
    10    4   19 1   
    11    5    6 1   
    12    6   20 1   
    13    6   21 1   
    14    6   22 1   
    15    7    8 1   
    16    7   23 1   
    17    7   24 1   
    18    8    9 ar  
    19    8   13 ar  
    20    9   10 ar  
    21    9   25 1   
    22   10   11 ar  
    23   10   26 1   
    24   11   12 ar  
    25   11   16 1   
    26   12   13 ar  
    27   12   27 1   
    28   13   28 1   
    29   14   17 1   
    30   16   29 1   
    31   17   30 1   
@<TRIPOS>SUBSTRUCTURE
     1 1BX         1 TEMP              0 ****  ****    0 ROOT
