@<TRIPOS>MOLECULE
1BY
   25    24     1     0     0
SMALL
bcc


@<TRIPOS>ATOM
      1 C5          0.0370    0.0570   -0.2540 c2        1 1BY     -0.063000
      2 C4          1.3890    0.0880   -0.1020 c2        1 1BY     -0.308000
      3 C6         -0.8190   -0.0330    0.8660 c2        1 1BY     -0.545000
      4 C7         -0.1620   -0.0720    2.1190 c2        1 1BY     -0.008000
      5 N2          1.1280   -0.0480    2.3590 n2        1 1BY     -0.266000
      6 C3          2.0330    0.0220    1.2400 c2        1 1BY      0.050000
      7 N1          3.3250    0.0200    1.4710 n2        1 1BY     -0.203000
      8 C2          4.2490    0.0660    0.3460 c3        1 1BY     -0.017000
      9 C1          5.7350   -0.0620    0.5250 c2        1 1BY     -1.398000
     10 P1          6.2660   -1.5550    0.9840 p5        1 1BY      2.080000
     11 O1          5.8290   -1.7440    2.5820 oh        1 1BY     -0.851000
     12 O2          7.7500   -1.7890    1.0090 o         1 1BY     -0.954000
     13 O3          5.5600   -2.6750    0.2660 o         1 1BY     -0.954000
     14 P2          6.3070    1.9290    0.8960 p3        1 1BY      2.595000
     15 O4          7.5400    2.0480    0.0340 o         1 1BY     -1.258333
     16 O5          5.1940    2.7690    0.3250 o         1 1BY     -1.258333
     17 O6          6.5560    2.1190    2.3650 o         1 1BY     -1.258333
     18 H5         -0.4140    0.1060   -1.2600 ha        1 1BY      0.023000
     19 H4          2.0550    0.1750   -0.9680 ha        1 1BY      0.107000
     20 H6         -1.9030   -0.0640    0.7770 ha        1 1BY      0.043000
     21 H7         -0.7970   -0.1310    3.0290 h4        1 1BY      0.032000
     22 HN1         5.3430   -0.9930    2.8980 ho        1 1BY      0.216000
     23 H21         4.0670    1.0500   -0.1940 h1        1 1BY      0.049500
     24 H22         3.9540   -0.7730   -0.3680 h1        1 1BY      0.049500
     25 H1          6.1830    0.1270   -0.4810 ha        1 1BY      0.097000
@<TRIPOS>BOND
     1    1    2 1   
     2    1    3 1   
     3    1   18 1   
     4    2    6 1   
     5    2   19 1   
     6    3    4 1   
     7    3   20 1   
     8    4    5 1   
     9    4   21 1   
    10    5    6 1   
    11    6    7 1   
    12    7    8 1   
    13    8    9 1   
    14    8   23 1   
    15    8   24 1   
    16    9   10 1   
    17    9   25 1   
    18   10   11 1   
    19   10   12 1   
    20   10   13 1   
    21   11   22 1   
    22   14   15 1   
    23   14   16 1   
    24   14   17 1   
@<TRIPOS>SUBSTRUCTURE
     1 1BY         1 TEMP              0 ****  ****    0 ROOT
