@<TRIPOS>MOLECULE
1BY
   25    22     1     0     0
SMALL
bcc


@<TRIPOS>ATOM
      1 C5         -0.0350   -3.7750   -0.9300 c1        1 1BY     -0.251500
      2 C4          0.2760   -2.6700   -0.1860 c1        1 1BY     -0.232500
      3 C6         -1.0830   -3.7330   -1.8170 c1        1 1BY     -0.251500
      4 C7         -1.8260   -2.5680   -1.9580 c1        1 1BY      0.384300
      5 N2         -1.5150   -1.4630   -1.2140 n1        1 1BY     -0.607800
      6 C3         -0.4700   -1.5040   -0.3290 c1        1 1BY      0.101800
      7 N1         -0.2040   -0.3620    0.5350 n3        1 1BY     -0.660800
      8 C2          0.4410    0.8160   -0.0030 c3        1 1BY      0.212800
      9 C1          0.0500    2.0550    0.8430 c3        1 1BY     -0.560100
     10 P1          1.1680    2.1860    2.2770 p5        1 1BY      1.291200
     11 O1          0.9420    1.0140    3.2000 o         1 1BY     -0.871000
     12 O2          0.8860    3.4760    3.0210 o         1 1BY     -0.871000
     13 O3          2.5950    2.1830    1.8020 o         1 1BY     -0.871000
     14 P2          0.1920    3.5510   -0.1730 p5        1 1BY      1.291200
     15 O4          1.5140    3.5440   -0.8950 o         1 1BY     -0.871000
     16 O5          0.1090    4.7730    0.7140 o         1 1BY     -0.871000
     17 O6         -0.9310    3.5840   -1.1800 o         1 1BY     -0.871000
     18 H5          0.4710   -4.6060   -0.8090 ha        1 1BY     -0.026000
     19 H4          1.0180   -2.6990    0.4420 ha        1 1BY      0.031500
     20 H6         -1.2600   -4.4960   -2.3980 ha        1 1BY     -0.026000
     21 H7         -2.5720   -2.5380   -2.5890 ha        1 1BY     -0.018500
     22 HN1        -0.4700   -0.3790    1.4070 hn        1 1BY      0.382800
     23 H21         0.1540    0.9510   -0.9340 h1        1 1BY      0.039200
     24 H22         1.4130    0.6970    0.0240 h1        1 1BY      0.039200
     25 H1         -0.8620    1.9600    1.1520 hc        1 1BY      0.085700
@<TRIPOS>BOND
     1    1    3 3   
     2    1   18 1   
     3    2    6 3   
     4    2   19 1   
     5    3   20 1   
     6    4    5 3   
     7    4   21 1   
     8    6    7 1   
     9    7    8 1   
    10    7   22 1   
    11    8    9 1   
    12    8   23 1   
    13    8   24 1   
    14    9   10 1   
    15    9   14 1   
    16    9   25 1   
    17   10   11 1   
    18   10   12 1   
    19   10   13 1   
    20   14   15 1   
    21   14   16 1   
    22   14   17 1   
@<TRIPOS>SUBSTRUCTURE
     1 1BY         1 TEMP              0 ****  ****    0 ROOT
