@<TRIPOS>MOLECULE
1BY
   25    24     1     0     0
SMALL
bcc


@<TRIPOS>ATOM
      1 C5          0.0240    0.0860   -0.2110 c2        1 1BY     -0.063000
      2 C4          1.3780    0.1030   -0.0760 c2        1 1BY     -0.308000
      3 C6         -0.8180    0.0180    0.9210 c2        1 1BY     -0.545000
      4 C7         -0.1460   -0.0160    2.1660 c2        1 1BY     -0.008000
      5 N2          1.1480   -0.0030    2.3890 n2        1 1BY     -0.266000
      6 C3          2.0380    0.0430    1.2580 c2        1 1BY      0.050000
      7 N1          3.3330    0.0280    1.4720 n2        1 1BY     -0.203000
      8 C2          4.2430    0.0510    0.3350 c3        1 1BY     -0.017000
      9 C1          5.7300   -0.0920    0.4970 c2        1 1BY     -1.398000
     10 P1          6.2500   -1.5850    0.9660 p5        1 1BY      2.080000
     11 O1          5.8320   -1.7520    2.5710 oh        1 1BY     -0.851000
     12 O2          7.7310   -1.8370    0.9740 o         1 1BY     -0.954000
     13 O3          5.5210   -2.7060    0.2690 o         1 1BY     -0.954000
     14 P2          6.3300    1.8970    0.8390 p3        1 1BY      2.595000
     15 O4          7.5530    1.9910   -0.0400 o         1 1BY     -1.258333
     16 O5          5.2180    2.7420    0.2720 o         1 1BY     -1.258333
     17 O6          6.5990    2.1000    2.3020 o         1 1BY     -1.258333
     18 H5         -0.4390    0.1290   -1.2110 ha        1 1BY      0.023000
     19 H4          2.0340    0.1720   -0.9520 ha        1 1BY      0.107000
     20 H6         -1.9030   -0.0010    0.8460 ha        1 1BY      0.043000
     21 H7         -0.7700   -0.0570    3.0850 h4        1 1BY      0.032000
     22 HN1         5.3580   -0.9930    2.8850 ho        1 1BY      0.216000
     23 H21         4.0660    1.0320   -0.2130 h1        1 1BY      0.049500
     24 H22         3.9300   -0.7920   -0.3650 h1        1 1BY      0.049500
     25 H1          6.1670    0.0810   -0.5170 ha        1 1BY      0.097000
@<TRIPOS>BOND
     1    1    2 1   
     2    1    3 1   
     3    1   18 1   
     4    2    6 1   
     5    2   19 1   
     6    3    4 1   
     7    3   20 1   
     8    4    5 1   
     9    4   21 1   
    10    5    6 1   
    11    6    7 1   
    12    7    8 1   
    13    8    9 1   
    14    8   23 1   
    15    8   24 1   
    16    9   10 1   
    17    9   25 1   
    18   10   11 1   
    19   10   12 1   
    20   10   13 1   
    21   11   22 1   
    22   14   15 1   
    23   14   16 1   
    24   14   17 1   
@<TRIPOS>SUBSTRUCTURE
     1 1BY         1 TEMP              0 ****  ****    0 ROOT
