@<TRIPOS>MOLECULE
1BY
   25    24     1     0     0
SMALL
bcc


@<TRIPOS>ATOM
      1 C5          0.0140    0.0760   -0.1800 c2        1 1BY     -0.063000
      2 C4          1.3700    0.1000   -0.0570 c2        1 1BY     -0.308000
      3 C6         -0.8170   -0.0090    0.9590 c2        1 1BY     -0.545000
      4 C7         -0.1330   -0.0520    2.1970 c2        1 1BY     -0.008000
      5 N2          1.1620   -0.0350    2.4090 n2        1 1BY     -0.266000
      6 C3          2.0420    0.0300    1.2710 c2        1 1BY      0.050000
      7 N1          3.3390    0.0210    1.4730 n2        1 1BY     -0.203000
      8 C2          4.2390    0.0610    0.3290 c3        1 1BY     -0.017000
      9 C1          5.7280   -0.0740    0.4760 c2        1 1BY     -1.398000
     10 P1          6.2610   -1.5700    0.9240 p5        1 1BY      2.080000
     11 O1          5.8570   -1.7560    2.5310 oh        1 1BY     -0.851000
     12 O2          7.7430   -1.8130    0.9160 o         1 1BY     -0.954000
     13 O3          5.5330   -2.6870    0.2220 o         1 1BY     -0.954000
     14 P2          6.3190    1.9140    0.8340 p3        1 1BY      2.595000
     15 O4          7.5340    2.0250   -0.0550 o         1 1BY     -1.258333
     16 O5          5.1970    2.7590    0.2860 o         1 1BY     -1.258333
     17 O6          6.5990    2.1030    2.2970 o         1 1BY     -1.258333
     18 H5         -0.4580    0.1280   -1.1750 ha        1 1BY      0.023000
     19 H4          2.0170    0.1820   -0.9380 ha        1 1BY      0.107000
     20 H6         -1.9030   -0.0340    0.8930 ha        1 1BY      0.043000
     21 H7         -0.7490   -0.1070    3.1210 h4        1 1BY      0.032000
     22 HN1         5.3820   -1.0030    2.8570 ho        1 1BY      0.216000
     23 H21         3.9240   -0.7760   -0.3780 h1        1 1BY      0.049500
     24 H22         4.0510    1.0470   -0.2070 h1        1 1BY      0.049500
     25 H1          6.1550    0.1110   -0.5400 ha        1 1BY      0.097000
@<TRIPOS>BOND
     1    1    2 1   
     2    1    3 1   
     3    1   18 1   
     4    2    6 1   
     5    2   19 1   
     6    3    4 1   
     7    3   20 1   
     8    4    5 1   
     9    4   21 1   
    10    5    6 1   
    11    6    7 1   
    12    7    8 1   
    13    8    9 1   
    14    8   23 1   
    15    8   24 1   
    16    9   10 1   
    17    9   25 1   
    18   10   11 1   
    19   10   12 1   
    20   10   13 1   
    21   11   22 1   
    22   14   15 1   
    23   14   16 1   
    24   14   17 1   
@<TRIPOS>SUBSTRUCTURE
     1 1BY         1 TEMP              0 ****  ****    0 ROOT
