@<TRIPOS>MOLECULE
1BY
   25    24     1     0     0
SMALL
bcc


@<TRIPOS>ATOM
      1 C5          2.6650    3.0140    0.3910 c2        1 1BY     -0.063000
      2 C4          1.5850    2.1940    0.5040 c2        1 1BY     -0.308000
      3 C6          3.2080    3.6620    1.5220 c2        1 1BY     -0.545000
      4 C7          2.5550    3.3770    2.7450 c2        1 1BY     -0.008000
      5 N2          1.5140    2.6040    2.9480 n2        1 1BY     -0.266000
      6 C3          0.9190    1.9440    1.8130 c2        1 1BY      0.050000
      7 N1         -0.1390    1.1910    2.0040 n2        1 1BY     -0.203000
      8 C2         -0.7620    0.5380    0.8610 c3        1 1BY     -0.017000
      9 C1         -2.0460   -0.2330    0.9830 c2        1 1BY     -1.398000
     10 P1         -3.3910    0.6750    1.2800 p5        1 1BY      2.080000
     11 O1         -3.2820    1.1810    2.8650 oh        1 1BY     -0.851000
     12 O2         -4.7230   -0.0180    1.2370 o         1 1BY     -0.954000
     13 O3         -3.4260    1.9510    0.4790 o         1 1BY     -0.954000
     14 P2         -1.3610   -2.1480    1.5250 p3        1 1BY      2.595000
     15 O4         -2.2120   -3.0270    0.6420 o         1 1BY     -1.258333
     16 O5          0.0750   -2.1920    1.0710 o         1 1BY     -1.258333
     17 O6         -1.5680   -2.3610    2.9980 o         1 1BY     -1.258333
     18 H5          3.1380    3.1830   -0.5910 ha        1 1BY      0.023000
     19 H4          1.1710    1.6770   -0.3690 ha        1 1BY      0.107000
     20 H6          4.0680    4.3260    1.4640 ha        1 1BY      0.043000
     21 H7          2.9570    3.8560    3.6650 h4        1 1BY      0.032000
     22 HN1        -2.4740    0.8870    3.2660 ho        1 1BY      0.216000
     23 H21        -0.9630    1.3430    0.0800 h1        1 1BY      0.049500
     24 H22         0.0080   -0.1750    0.4240 h1        1 1BY      0.049500
     25 H1         -2.2130   -0.7100   -0.0140 ha        1 1BY      0.097000
@<TRIPOS>BOND
     1    1    2 1   
     2    1    3 1   
     3    1   18 1   
     4    2    6 1   
     5    2   19 1   
     6    3    4 1   
     7    3   20 1   
     8    4    5 1   
     9    4   21 1   
    10    5    6 1   
    11    6    7 1   
    12    7    8 1   
    13    8    9 1   
    14    8   23 1   
    15    8   24 1   
    16    9   10 1   
    17    9   25 1   
    18   10   11 1   
    19   10   12 1   
    20   10   13 1   
    21   11   22 1   
    22   14   15 1   
    23   14   16 1   
    24   14   17 1   
@<TRIPOS>SUBSTRUCTURE
     1 1BY         1 TEMP              0 ****  ****    0 ROOT
