@<TRIPOS>MOLECULE
1BZ
   29    30     1     0     0
SMALL
bcc


@<TRIPOS>ATOM
      1 C1         -1.2830    1.3310   -0.4830 cc        1 1BZ     -0.255000
      2 C2         -0.6260    0.1490   -0.7570 cd        1 1BZ      0.101400
      3 N1         -1.1650   -1.0510   -0.3010 n         1 1BZ     -0.215500
      4 C3         -2.4300   -1.1160    0.3600 c         1 1BZ      0.683700
      5 C4         -3.0820    0.1540    0.6220 cd        1 1BZ     -0.269200
      6 C5         -2.5290    1.3340    0.2150 cc        1 1BZ      0.031800
      7 O1         -2.8380   -2.2470    0.6910 o         1 1BZ     -0.650500
      8 C6          0.6650    0.1550   -1.5300 c3        1 1BZ     -0.000900
      9 C7          4.1090    0.2580    1.0230 ca        1 1BZ     -0.125000
     10 C8          3.6540    1.4290    0.4170 ca        1 1BZ     -0.129500
     11 C9          2.5300    1.4000   -0.4060 ca        1 1BZ     -0.118500
     12 C10         1.8520    0.1970   -0.6290 ca        1 1BZ     -0.086300
     13 C11         2.3130   -0.9760   -0.0190 ca        1 1BZ     -0.118500
     14 C12         3.4370   -0.9440    0.8040 ca        1 1BZ     -0.129500
     15 C13        -3.1890    2.6350    0.4700 c3        1 1BZ     -0.068900
     16 O2         -0.5950   -2.1750   -0.7280 oh        1 1BZ     -0.401100
     17 H1         -0.8440    2.2840   -0.8050 ha        1 1BZ      0.152000
     18 H3         -4.0460    0.0910    1.1450 ha        1 1BZ      0.166000
     19 H5          0.7250   -0.7570   -2.1860 hc        1 1BZ      0.075200
     20 H6          0.6610    1.0550   -2.2040 hc        1 1BZ      0.075200
     21 H8          4.1830    2.3780    0.5890 ha        1 1BZ      0.133000
     22 H9          2.1750    2.3270   -0.8820 ha        1 1BZ      0.135500
     23 H10         1.7750   -1.9230   -0.1940 ha        1 1BZ      0.135500
     24 H11         3.7930   -1.8690    1.2800 ha        1 1BZ      0.133000
     25 H12        -3.3750    3.1670   -0.4960 hc        1 1BZ      0.054367
     26 H13        -4.1660    2.5010    0.9970 hc        1 1BZ      0.054367
     27 H14        -2.5290    3.2790    1.1040 hc        1 1BZ      0.054367
     28 H15        -0.8180   -2.8650   -0.0630 ho        1 1BZ      0.448000
     29 H7          4.9960    0.2830    1.6720 ha        1 1BZ      0.133000
@<TRIPOS>BOND
     1    1    2 2   
     2    1    6 1   
     3    1   17 1   
     4    2    3 1   
     5    2    8 1   
     6    3    4 1   
     7    3   16 1   
     8    4    5 1   
     9    4    7 2   
    10    5    6 2   
    11    5   18 1   
    12    6   15 1   
    13    8   12 1   
    14    8   19 1   
    15    8   20 1   
    16    9   10 ar  
    17    9   14 ar  
    18    9   29 1   
    19   10   11 ar  
    20   10   21 1   
    21   11   12 ar  
    22   11   22 1   
    23   12   13 ar  
    24   13   14 ar  
    25   13   23 1   
    26   14   24 1   
    27   15   25 1   
    28   15   26 1   
    29   15   27 1   
    30   16   28 1   
@<TRIPOS>SUBSTRUCTURE
     1 1BZ         1 TEMP              0 ****  ****    0 ROOT
