@<TRIPOS>MOLECULE
1BZ
   29    30     1     0     0
SMALL
bcc


@<TRIPOS>ATOM
      1 C1          0.0250    0.0790    0.0660 cc        1 1BZ     -0.253000
      2 C2          1.3970   -0.0480   -0.0050 cd        1 1BZ      0.099400
      3 N1          2.1200   -0.2730    1.1620 n         1 1BZ     -0.217500
      4 C3          1.5070   -0.2780    2.4520 c         1 1BZ      0.684700
      5 C4          0.0640   -0.1250    2.4750 cd        1 1BZ     -0.270200
      6 C5         -0.6510    0.0470    1.3240 cc        1 1BZ      0.032800
      7 O1          2.2540   -0.4620    3.4330 o         1 1BZ     -0.650500
      8 C6          2.1000    0.0250   -1.3340 c3        1 1BZ      0.000100
      9 C7          2.9980    4.0540   -2.4950 ca        1 1BZ     -0.125000
     10 C8          1.9830    3.3500   -3.1430 ca        1 1BZ     -0.129500
     11 C9          1.6830    2.0440   -2.7610 ca        1 1BZ     -0.118500
     12 C10         2.3990    1.4310   -1.7260 ca        1 1BZ     -0.088300
     13 C11         3.4180    2.1410   -1.0790 ca        1 1BZ     -0.118500
     14 C12         3.7140    3.4470   -1.4630 ca        1 1BZ     -0.129500
     15 C13        -2.1230    0.2120    1.3370 c3        1 1BZ     -0.068900
     16 O2          3.4470   -0.2640    1.0690 oh        1 1BZ     -0.401100
     17 H1         -0.5550    0.2240   -0.8540 ha        1 1BZ      0.153000
     18 H3         -0.3970   -0.1380    3.4720 ha        1 1BZ      0.166000
     19 H5          1.4360   -0.4590   -2.1010 hc        1 1BZ      0.074200
     20 H6          3.0610   -0.5600   -1.3020 hc        1 1BZ      0.074200
     21 H8          1.4170    3.8260   -3.9570 ha        1 1BZ      0.133000
     22 H9          0.8810    1.4940   -3.2750 ha        1 1BZ      0.138500
     23 H10         3.9800    1.6590   -0.2620 ha        1 1BZ      0.138500
     24 H11         4.5150    4.0000   -0.9490 ha        1 1BZ      0.133000
     25 H12        -2.4010    1.1950    0.8790 hc        1 1BZ      0.054367
     26 H13        -2.6040   -0.6020    0.7380 hc        1 1BZ      0.054367
     27 H14        -2.5290    0.1760    2.3770 hc        1 1BZ      0.054367
     28 H15         3.7800   -0.8040    1.8210 ho        1 1BZ      0.447000
     29 H7          3.2340    5.0850   -2.7970 ha        1 1BZ      0.132000
@<TRIPOS>BOND
     1    1    2 2   
     2    1    6 1   
     3    1   17 1   
     4    2    3 1   
     5    2    8 1   
     6    3    4 1   
     7    3   16 1   
     8    4    5 1   
     9    4    7 2   
    10    5    6 2   
    11    5   18 1   
    12    6   15 1   
    13    8   12 1   
    14    8   19 1   
    15    8   20 1   
    16    9   10 ar  
    17    9   14 ar  
    18    9   29 1   
    19   10   11 ar  
    20   10   21 1   
    21   11   12 ar  
    22   11   22 1   
    23   12   13 ar  
    24   13   14 ar  
    25   13   23 1   
    26   14   24 1   
    27   15   25 1   
    28   15   26 1   
    29   15   27 1   
    30   16   28 1   
@<TRIPOS>SUBSTRUCTURE
     1 1BZ         1 TEMP              0 ****  ****    0 ROOT
