@<TRIPOS>MOLECULE
1BZ
   29    30     1     0     0
SMALL
bcc


@<TRIPOS>ATOM
      1 C1          0.0260    0.0770    0.0670 cc        1 1BZ     -0.253000
      2 C2          1.3970   -0.0500   -0.0110 cd        1 1BZ      0.099400
      3 N1          2.1260   -0.2800    1.1510 n         1 1BZ     -0.217500
      4 C3          1.5200   -0.2900    2.4440 c         1 1BZ      0.684700
      5 C4          0.0770   -0.1360    2.4750 cd        1 1BZ     -0.270200
      6 C5         -0.6440    0.0400    1.3280 cc        1 1BZ      0.032800
      7 O1          2.2720   -0.4770    3.4210 o         1 1BZ     -0.650500
      8 C6          2.0940    0.0280   -1.3430 c3        1 1BZ      0.000100
      9 C7          2.9890    4.0620   -2.4910 ca        1 1BZ     -0.125000
     10 C8          1.9690    3.3620   -3.1360 ca        1 1BZ     -0.129500
     11 C9          1.6700    2.0540   -2.7580 ca        1 1BZ     -0.118500
     12 C10         2.3920    1.4360   -1.7310 ca        1 1BZ     -0.088300
     13 C11         3.4160    2.1410   -1.0880 ca        1 1BZ     -0.118500
     14 C12         3.7110    3.4490   -1.4670 ca        1 1BZ     -0.129500
     15 C13        -2.1150    0.2050    1.3490 c3        1 1BZ     -0.068900
     16 O2          3.4530   -0.2710    1.0520 oh        1 1BZ     -0.401100
     17 H1         -0.5590    0.2250   -0.8500 ha        1 1BZ      0.153000
     18 H3         -0.3790   -0.1530    3.4740 ha        1 1BZ      0.166000
     19 H5          1.4260   -0.4520   -2.1090 hc        1 1BZ      0.074200
     20 H6          3.0540   -0.5580   -1.3180 hc        1 1BZ      0.074200
     21 H8          1.3980    3.8420   -3.9440 ha        1 1BZ      0.133000
     22 H9          0.8640    1.5070   -3.2700 ha        1 1BZ      0.138500
     23 H10         3.9820    1.6550   -0.2770 ha        1 1BZ      0.138500
     24 H11         4.5150    3.9990   -0.9560 ha        1 1BZ      0.133000
     25 H12        -2.3960    1.1900    0.8970 hc        1 1BZ      0.054367
     26 H13        -2.5990   -0.6060    0.7500 hc        1 1BZ      0.054367
     27 H14        -2.5160    0.1650    2.3910 hc        1 1BZ      0.054367
     28 H15         3.7890   -0.8140    1.8000 ho        1 1BZ      0.447000
     29 H7          3.2230    5.0940   -2.7900 ha        1 1BZ      0.132000
@<TRIPOS>BOND
     1    1    2 2   
     2    1    6 1   
     3    1   17 1   
     4    2    3 1   
     5    2    8 1   
     6    3    4 1   
     7    3   16 1   
     8    4    5 1   
     9    4    7 2   
    10    5    6 2   
    11    5   18 1   
    12    6   15 1   
    13    8   12 1   
    14    8   19 1   
    15    8   20 1   
    16    9   10 ar  
    17    9   14 ar  
    18    9   29 1   
    19   10   11 ar  
    20   10   21 1   
    21   11   12 ar  
    22   11   22 1   
    23   12   13 ar  
    24   13   14 ar  
    25   13   23 1   
    26   14   24 1   
    27   15   25 1   
    28   15   26 1   
    29   15   27 1   
    30   16   28 1   
@<TRIPOS>SUBSTRUCTURE
     1 1BZ         1 TEMP              0 ****  ****    0 ROOT
