@<TRIPOS>MOLECULE
1BZ
   29    26     1     0     0
SMALL
bcc


@<TRIPOS>ATOM
      1 C1         -1.1670   -0.9090    0.4850 c1        1 1BZ     -0.253000
      2 C2          0.3450   -0.8770    0.4790 c1        1 1BZ      0.101000
      3 N1          1.0820   -0.8550    1.7420 n2        1 1BZ     -0.142000
      4 C3          0.3630   -0.9340    3.0130 c2        1 1BZ      0.323000
      5 C4         -1.1500   -0.9670    3.0260 c2        1 1BZ     -0.251000
      6 C5         -1.8930   -0.9890    1.7590 c1        1 1BZ      0.037000
      7 O1          0.9780   -0.9160    4.0600 o         1 1BZ     -0.375000
      8 C6          1.0970   -0.9450   -0.8330 c3        1 1BZ     -0.090000
      9 C7          0.8850    2.7530   -2.9880 c1        1 1BZ     -0.126500
     10 C8          1.7710    2.6170   -1.9310 c1        1 1BZ     -0.126500
     11 C9          1.8180    1.4310   -1.2130 c1        1 1BZ     -0.114000
     12 C10         0.9780    0.3820   -1.5530 c2        1 1BZ     -0.081000
     13 C11         0.0920    0.5190   -2.6100 c2        1 1BZ     -0.123000
     14 C12         0.0450    1.7040   -3.3280 c1        1 1BZ     -0.131000
     15 C13        -3.3900   -1.2020    1.7650 c3        1 1BZ     -0.191000
     16 O2          2.4450   -0.7610    1.7340 oh        1 1BZ     -0.206000
     17 H1         -1.6580   -0.9240   -0.3580 ha        1 1BZ      0.153000
     18 H3         -1.6290   -1.0200    3.8740 ha        1 1BZ      0.166000
     19 H5          2.0390   -1.1380   -0.6590 hc        1 1BZ      0.113500
     20 H6          0.7160   -1.6540   -1.3900 hc        1 1BZ      0.113500
     21 H7          0.8530    3.5880   -3.4930 ha        1 1BZ      0.133000
     22 H8          2.3630    3.3560   -1.6910 ha        1 1BZ      0.133000
     23 H9          2.4420    1.3350   -0.4690 ha        1 1BZ      0.149000
     24 H10        -0.5000   -0.2200   -2.8500 ha        1 1BZ      0.128000
     25 H11        -0.5790    1.8000   -4.0720 ha        1 1BZ      0.132000
     26 H12        -3.5830   -2.1620    1.7610 hc        1 1BZ      0.093667
     27 H13        -3.7820   -0.7860    0.9680 hc        1 1BZ      0.093667
     28 H14        -3.7750   -0.7940    2.5680 hc        1 1BZ      0.093667
     29 H15         2.7910   -1.4330    2.2040 ho        1 1BZ      0.246000
@<TRIPOS>BOND
     1    1    2 1   
     2    1   17 1   
     3    2    8 1   
     4    3    4 1   
     5    3   16 1   
     6    4    5 1   
     7    4    7 1   
     8    5    6 1   
     9    5   18 1   
    10    6   15 1   
    11    8   12 1   
    12    8   19 1   
    13    8   20 1   
    14    9   10 1   
    15    9   21 1   
    16   10   22 1   
    17   11   12 1   
    18   11   23 1   
    19   12   13 1   
    20   13   14 1   
    21   13   24 1   
    22   14   25 1   
    23   15   26 1   
    24   15   27 1   
    25   15   28 1   
    26   16   29 1   
@<TRIPOS>SUBSTRUCTURE
     1 1BZ         1 TEMP              0 ****  ****    0 ROOT
