@<TRIPOS>MOLECULE
1BZ
   29    30     1     0     0
SMALL
bcc


@<TRIPOS>ATOM
      1 C1          0.0200    0.0830    0.0530 cc        1 1BZ     -0.253000
      2 C2          1.3920   -0.0490   -0.0110 cd        1 1BZ      0.099400
      3 N1          2.1070   -0.2830    1.1600 n         1 1BZ     -0.217500
      4 C3          1.4860   -0.2920    2.4460 c         1 1BZ      0.684700
      5 C4          0.0440   -0.1340    2.4610 cd        1 1BZ     -0.270200
      6 C5         -0.6640    0.0470    1.3070 cc        1 1BZ      0.032800
      7 O1          2.2270   -0.4840    3.4300 o         1 1BZ     -0.650500
      8 C6          2.1030    0.0280   -1.3350 c3        1 1BZ      0.000100
      9 C7          3.0220    4.0590   -2.4700 ca        1 1BZ     -0.125000
     10 C8          2.0090    3.3630   -3.1280 ca        1 1BZ     -0.129500
     11 C9          1.7020    2.0550   -2.7540 ca        1 1BZ     -0.118500
     12 C10         2.4090    1.4350   -1.7180 ca        1 1BZ     -0.088300
     13 C11         3.4260    2.1380   -1.0610 ca        1 1BZ     -0.118500
     14 C12         3.7290    3.4450   -1.4370 ca        1 1BZ     -0.129500
     15 C13        -2.1350    0.2180    1.3120 c3        1 1BZ     -0.068900
     16 O2          3.4350   -0.2790    1.0740 oh        1 1BZ     -0.401100
     17 H1         -0.5550    0.2340   -0.8700 ha        1 1BZ      0.153000
     18 H3         -0.4230   -0.1500    3.4560 ha        1 1BZ      0.166000
     19 H5          1.4420   -0.4500   -2.1080 hc        1 1BZ      0.074200
     20 H6          3.0610   -0.5610   -1.3000 hc        1 1BZ      0.074200
     21 H8          1.4500    3.8440   -3.9440 ha        1 1BZ      0.133000
     22 H9          0.9020    1.5100   -3.2770 ha        1 1BZ      0.138500
     23 H10         3.9810    1.6500   -0.2430 ha        1 1BZ      0.138500
     24 H11         4.5290    3.9930   -0.9150 ha        1 1BZ      0.133000
     25 H12        -2.4070    1.2040    0.8580 hc        1 1BZ      0.054367
     26 H13        -2.6150   -0.5910    0.7060 hc        1 1BZ      0.054367
     27 H14        -2.5470    0.1770    2.3500 hc        1 1BZ      0.054367
     28 H15         3.7610   -0.8250    1.8260 ho        1 1BZ      0.447000
     29 H7          3.2630    5.0910   -2.7660 ha        1 1BZ      0.132000
@<TRIPOS>BOND
     1    1    2 2   
     2    1    6 1   
     3    1   17 1   
     4    2    3 1   
     5    2    8 1   
     6    3    4 1   
     7    3   16 1   
     8    4    5 1   
     9    4    7 2   
    10    5    6 2   
    11    5   18 1   
    12    6   15 1   
    13    8   12 1   
    14    8   19 1   
    15    8   20 1   
    16    9   10 ar  
    17    9   14 ar  
    18    9   29 1   
    19   10   11 ar  
    20   10   21 1   
    21   11   12 ar  
    22   11   22 1   
    23   12   13 ar  
    24   13   14 ar  
    25   13   23 1   
    26   14   24 1   
    27   15   25 1   
    28   15   26 1   
    29   15   27 1   
    30   16   28 1   
@<TRIPOS>SUBSTRUCTURE
     1 1BZ         1 TEMP              0 ****  ****    0 ROOT
