@<TRIPOS>MOLECULE
1C1
   48    50     1     0     0
SMALL
bcc


@<TRIPOS>ATOM
      1 N01        -4.1220    3.9130   -1.3490 nh        1 1C1     -0.522100
      2 C02        -4.6960    3.5340   -0.1570 cz        1 1C1      0.521300
      3 N03        -4.5640    2.2470    0.3140 nh        1 1C1     -0.381200
      4 C04        -3.7920    1.2290   -0.3700 c3        1 1C1      0.007300
      5 C05        -3.5550   -0.0080    0.4940 c3        1 1C1     -0.105700
      6 C06        -4.8370   -0.7950    0.8040 c3        1 1C1     -0.039100
      7 C07        -4.4940   -2.2210    0.5380 ca        1 1C1     -0.086300
      8 C08        -5.2560   -3.3480    0.8050 ca        1 1C1     -0.108000
      9 C09        -4.7340   -4.6060    0.4720 ca        1 1C1     -0.105000
     10 C10        -3.4770   -4.7230   -0.1160 ca        1 1C1     -0.118000
     11 C11        -2.7050   -3.5850   -0.3890 ca        1 1C1     -0.093000
     12 C12        -3.2220   -2.3430   -0.0600 ca        1 1C1     -0.127300
     13 C13        -2.6040   -0.9870   -0.2910 c3        1 1C1      0.168000
     14 N14        -1.2200   -0.9020    0.0980 n         1 1C1     -0.531900
     15 C15        -0.3860    0.0710   -0.3820 c         1 1C1      0.594100
     16 O16        -0.7640    0.9620   -1.1730 o         1 1C1     -0.642100
     17 C17         1.0750    0.0180    0.1240 c         1 1C1      0.604100
     18 O18         1.3050   -0.4240    1.2620 o         1 1C1     -0.564100
     19 N19         2.0060    0.4810   -0.7710 n         1 1C1     -0.435100
     20 C20         3.3990    0.5640   -0.5750 ca        1 1C1      0.072600
     21 C21         4.0330    0.1020    0.5890 ca        1 1C1     -0.186000
     22 C22         5.4310    0.2060    0.7180 ca        1 1C1      0.164900
     23 F23         6.0050   -0.2490    1.8540 f         1 1C1     -0.113900
     24 C24         6.2040    0.7730   -0.3170 ca        1 1C1     -0.039600
     25 CL1         7.8860    0.9140   -0.1960 cl        1 1C1     -0.045400
     26 C26         5.5600    1.2280   -1.4720 ca        1 1C1     -0.076000
     27 C27         4.1830    1.1320   -1.6090 ca        1 1C1     -0.178000
     28 N28        -5.4290    4.4530    0.5670 nh        1 1C1     -0.506200
     29 H1         -3.5440    3.2810   -1.8590 hn        1 1C1      0.327200
     30 H2         -4.1810    4.8550   -1.6650 hn        1 1C1      0.327200
     31 H3         -5.0180    1.9830    1.1650 hn        1 1C1      0.321700
     32 H4         -4.3430    0.9320   -1.3100 h1        1 1C1      0.087700
     33 H5         -2.7770    1.6430   -0.6570 h1        1 1C1      0.087700
     34 H6         -3.0690    0.2910    1.4620 hc        1 1C1      0.081700
     35 H7         -5.1500   -0.6470    1.8690 hc        1 1C1      0.059700
     36 H8         -5.6840   -0.4710    0.1460 hc        1 1C1      0.059700
     37 H9         -6.2480   -3.2640    1.2710 ha        1 1C1      0.145000
     38 H10        -5.3280   -5.5100    0.6810 ha        1 1C1      0.150000
     39 H11        -3.0800   -5.7190   -0.3690 ha        1 1C1      0.151000
     40 H12        -1.7140   -3.6850   -0.8550 ha        1 1C1      0.147000
     41 H13        -2.6620   -0.7390   -1.3960 h1        1 1C1      0.083700
     42 H14        -0.8860   -1.5290    0.7980 hn        1 1C1      0.353500
     43 H15         1.6610    0.8650   -1.6280 hn        1 1C1      0.342500
     44 H16         3.4670   -0.3480    1.4220 ha        1 1C1      0.189000
     45 H17         6.1560    1.6710   -2.2870 ha        1 1C1      0.161000
     46 H18         3.7140    1.5010   -2.5350 ha        1 1C1      0.142000
     47 H19        -5.5500    5.3830    0.2370 hn        1 1C1      0.327200
     48 H20        -5.8720    4.1960    1.4190 hn        1 1C1      0.327200
@<TRIPOS>BOND
     1    1    2 2   
     2    1   29 1   
     3    1   30 1   
     4    2    3 1   
     5    2   28 1   
     6    3    4 1   
     7    3   31 1   
     8    4    5 1   
     9    4   32 1   
    10    4   33 1   
    11    5    6 1   
    12    5   13 1   
    13    5   34 1   
    14    6    7 1   
    15    6   35 1   
    16    6   36 1   
    17    7    8 ar  
    18    7   12 ar  
    19    8    9 ar  
    20    8   37 1   
    21    9   10 ar  
    22    9   38 1   
    23   10   11 ar  
    24   10   39 1   
    25   11   12 ar  
    26   11   40 1   
    27   12   13 1   
    28   13   14 1   
    29   13   41 1   
    30   14   15 1   
    31   14   42 1   
    32   15   16 2   
    33   15   17 1   
    34   17   18 2   
    35   17   19 1   
    36   19   20 1   
    37   19   43 1   
    38   20   21 ar  
    39   20   27 ar  
    40   21   22 ar  
    41   21   44 1   
    42   22   23 1   
    43   22   24 ar  
    44   24   25 1   
    45   24   26 ar  
    46   26   27 ar  
    47   26   45 1   
    48   27   46 1   
    49   28   47 1   
    50   28   48 1   
@<TRIPOS>SUBSTRUCTURE
     1 1C1         1 TEMP              0 ****  ****    0 ROOT
