@<TRIPOS>MOLECULE
1C1
   48    50     1     0     0
SMALL
bcc


@<TRIPOS>ATOM
      1 N01        -0.5120   -0.3390    0.6830 nh        1 1C1     -0.522100
      2 C02         0.8480   -0.2820    0.4800 cz        1 1C1      0.521300
      3 N03         1.7100   -0.0270    1.5220 nh        1 1C1     -0.381200
      4 C04         1.2650    0.1530    2.8910 c3        1 1C1      0.007300
      5 C05         2.4180    0.1230    3.8910 c3        1 1C1     -0.105700
      6 C06         3.3810    1.3120    3.7550 c3        1 1C1     -0.039100
      7 C07         3.5880    1.8080    5.1450 ca        1 1C1     -0.086300
      8 C08         4.4840    2.7710    5.5850 ca        1 1C1     -0.108000
      9 C09         4.5140    3.0860    6.9500 ca        1 1C1     -0.105000
     10 C10         3.6620    2.4490    7.8480 ca        1 1C1     -0.118000
     11 C11         2.7530    1.4770    7.4060 ca        1 1C1     -0.093000
     12 C12         2.7240    1.1660    6.0560 ca        1 1C1     -0.127300
     13 C13         1.8150    0.1950    5.3440 c3        1 1C1      0.168000
     14 N14         1.6980   -1.0820    5.9990 n         1 1C1     -0.531900
     15 C15         0.6540   -1.9320    5.7580 c         1 1C1      0.594100
     16 O16        -0.2610   -1.6730    4.9450 o         1 1C1     -0.642100
     17 C17         0.6690   -3.2610    6.5480 c         1 1C1      0.604100
     18 O18         1.7600   -3.7680    6.8590 o         1 1C1     -0.564100
     19 N19        -0.5740   -3.7650    6.8400 n         1 1C1     -0.435100
     20 C20        -0.8610   -4.9600    7.5300 ca        1 1C1      0.072600
     21 C21         0.1370   -5.7790    8.0820 ca        1 1C1     -0.186000
     22 C22        -0.2180   -6.9560    8.7690 ca        1 1C1      0.164900
     23 F23         0.7700   -7.7190    9.2860 f         1 1C1     -0.113900
     24 C24        -1.5740   -7.3200    8.9090 ca        1 1C1     -0.039600
     25 CL1        -2.0370   -8.7260    9.7280 cl        1 1C1     -0.045400
     26 C26        -2.5580   -6.4940    8.3560 ca        1 1C1     -0.076000
     27 C27        -2.2200   -5.3330    7.6760 ca        1 1C1     -0.178000
     28 N28         1.3530   -0.4660   -0.7920 nh        1 1C1     -0.506200
     29 H1         -0.8920   -0.2620    1.6010 hn        1 1C1      0.327200
     30 H2         -1.1280   -0.5660   -0.0640 hn        1 1C1      0.327200
     31 H3          2.6910    0.0430    1.3470 hn        1 1C1      0.321700
     32 H4          0.7270    1.1440    2.9650 h1        1 1C1      0.087700
     33 H5          0.5460   -0.6760    3.1750 h1        1 1C1      0.087700
     34 H6          3.0000   -0.8310    3.7740 hc        1 1C1      0.081700
     35 H7          4.3490    0.9920    3.2920 hc        1 1C1      0.059700
     36 H8          2.9420    2.1210    3.1150 hc        1 1C1      0.059700
     37 H9          5.1620    3.2760    4.8820 ha        1 1C1      0.145000
     38 H10         5.2230    3.8470    7.3130 ha        1 1C1      0.150000
     39 H11         3.6990    2.7070    8.9180 ha        1 1C1      0.151000
     40 H12         2.0810    0.9790    8.1200 ha        1 1C1      0.147000
     41 H13         0.7750    0.6420    5.2820 h1        1 1C1      0.083700
     42 H14         2.4470   -1.3830    6.5860 hn        1 1C1      0.353500
     43 H15        -1.3630   -3.2750    6.4670 hn        1 1C1      0.342500
     44 H16         1.2080   -5.5310    7.9960 ha        1 1C1      0.189000
     45 H17        -3.6200   -6.7690    8.4620 ha        1 1C1      0.161000
     46 H18        -3.0240   -4.7090    7.2560 ha        1 1C1      0.142000
     47 H19         0.7480   -0.6350   -1.5620 hn        1 1C1      0.327200
     48 H20         2.3300   -0.4080   -0.9670 hn        1 1C1      0.327200
@<TRIPOS>BOND
     1    1    2 2   
     2    1   29 1   
     3    1   30 1   
     4    2    3 1   
     5    2   28 1   
     6    3    4 1   
     7    3   31 1   
     8    4    5 1   
     9    4   32 1   
    10    4   33 1   
    11    5    6 1   
    12    5   13 1   
    13    5   34 1   
    14    6    7 1   
    15    6   35 1   
    16    6   36 1   
    17    7    8 ar  
    18    7   12 ar  
    19    8    9 ar  
    20    8   37 1   
    21    9   10 ar  
    22    9   38 1   
    23   10   11 ar  
    24   10   39 1   
    25   11   12 ar  
    26   11   40 1   
    27   12   13 1   
    28   13   14 1   
    29   13   41 1   
    30   14   15 1   
    31   14   42 1   
    32   15   16 2   
    33   15   17 1   
    34   17   18 2   
    35   17   19 1   
    36   19   20 1   
    37   19   43 1   
    38   20   21 ar  
    39   20   27 ar  
    40   21   22 ar  
    41   21   44 1   
    42   22   23 1   
    43   22   24 ar  
    44   24   25 1   
    45   24   26 ar  
    46   26   27 ar  
    47   26   45 1   
    48   27   46 1   
    49   28   47 1   
    50   28   48 1   
@<TRIPOS>SUBSTRUCTURE
     1 1C1         1 TEMP              0 ****  ****    0 ROOT
