@<TRIPOS>MOLECULE
1C1
   48    40     1     0     0
SMALL
bcc


@<TRIPOS>ATOM
      1 N01        -4.1810   -0.0680   -4.2420 n3        1 1C1     -0.360000
      2 C02        -2.9580    0.5730   -4.5540 c1        1 1C1      0.389000
      3 N03        -1.8350    0.4600   -3.6590 n2        1 1C1     -0.312000
      4 C04        -1.9900    0.8730   -2.2350 c3        1 1C1     -0.052000
      5 C05        -0.6020    1.3220   -1.6660 c3        1 1C1     -0.145000
      6 C06        -0.3560    2.7300   -2.0210 c3        1 1C1     -0.125000
      7 C07        -0.1610    3.5160   -0.7160 c2        1 1C1     -0.079000
      8 C08         0.1500    4.8490   -0.4750 c1        1 1C1     -0.108000
      9 C09         0.3620    5.2920    0.8380 c1        1 1C1     -0.111500
     10 C10         0.2600    4.3860    1.9150 c1        1 1C1     -0.111500
     11 C11        -0.0530    3.0430    1.6760 c1        1 1C1     -0.093000
     12 C12        -0.2640    2.6000    0.3720 c1        1 1C1     -0.120000
     13 C13        -0.6050    1.2170   -0.2020 c2        1 1C1      0.084000
     14 N14         0.3870    0.2580    0.2220 n3        1 1C1     -0.341000
     15 C15         0.0740   -0.7030    1.2620 c1        1 1C1      0.288000
     16 O16        -1.0350   -0.7040    1.7830 o         1 1C1     -0.403000
     17 C17         1.1320   -1.7760    1.6720 c1        1 1C1      0.298000
     18 O18         1.9690   -2.1240    0.8800 o         1 1C1     -0.325000
     19 N19         0.9990   -2.4610    2.8940 n2        1 1C1     -0.289000
     20 C20         1.8560   -3.5630    3.1840 c2        1 1C1      0.080000
     21 C21         3.1870   -3.5000    2.8490 c2        1 1C1     -0.186000
     22 C22         4.0330   -4.5680    3.1460 c1        1 1C1      0.130000
     23 F23         5.3140   -4.5390    2.7480 f         1 1C1     -0.079000
     24 C24         3.5380   -5.6800    3.7730 c1        1 1C1     -0.118000
     25 CL1         4.5920   -7.0240    4.1210 cl        1 1C1      0.033000
     26 C26         2.1880   -5.7450    4.1140 c1        1 1C1     -0.076000
     27 C27         1.3510   -4.6910    3.8200 c1        1 1C1     -0.178000
     28 N28        -2.8470    1.2810   -5.6710 n2        1 1C1     -0.376000
     29 H1         -4.8980    0.0200   -4.8300 hn        1 1C1      0.279500
     30 H2         -4.2840   -0.5200   -3.4660 hn        1 1C1      0.279500
     31 H3         -1.0730    0.0110   -3.9340 hn        1 1C1      0.272000
     32 H4         -2.3270    0.1250   -1.7160 h1        1 1C1      0.127000
     33 H5         -2.6350    1.6360   -2.1780 h1        1 1C1      0.127000
     34 H6          0.0950    0.7670   -2.0300 hc        1 1C1      0.121000
     35 H7         -1.1180    3.0760   -2.4830 hc        1 1C1      0.099000
     36 H8          0.4440    2.7870   -2.5460 hc        1 1C1      0.099000
     37 H9          0.2200    5.4660   -1.2080 ha        1 1C1      0.145000
     38 H10         0.5820    6.2360    1.0090 ha        1 1C1      0.150500
     39 H11         0.4060    4.6930    2.8190 ha        1 1C1      0.150500
     40 H12        -0.1220    2.4290    2.4090 ha        1 1C1      0.147000
     41 H13        -1.4900    0.9400    0.1070 h4        1 1C1      0.123000
     42 H14         1.2290    0.2910   -0.1270 hn        1 1C1      0.267000
     43 H15         0.3190   -2.2770    3.4320 hn        1 1C1      0.256000
     44 H16         3.5430   -2.7050    2.4070 ha        1 1C1      0.189000
     45 H17         1.8320   -6.5450    4.5650 ha        1 1C1      0.161000
     46 H18         0.3970   -4.7370    4.0590 ha        1 1C1      0.142000
     47 H19        -3.5660    1.3540   -6.2420 DU        1 1C1      0.276000
     48 H20        -2.0600    1.6950   -5.8740 hn        1 1C1      0.275000
@<TRIPOS>BOND
     1    1    2 1   
     2    1   29 1   
     3    1   30 1   
     4    2   28 1   
     5    3    4 1   
     6    3   31 1   
     7    4    5 1   
     8    4   32 1   
     9    4   33 1   
    10    5    6 1   
    11    5   13 1   
    12    5   34 1   
    13    6    7 1   
    14    6   35 1   
    15    6   36 1   
    16    7    8 1   
    17    7   12 1   
    18    8   37 1   
    19    9   10 1   
    20    9   38 1   
    21   10   39 1   
    22   11   12 1   
    23   11   40 1   
    24   13   14 1   
    25   13   41 1   
    26   14   15 1   
    27   14   42 1   
    28   15   16 1   
    29   17   18 1   
    30   19   20 1   
    31   19   43 1   
    32   20   21 1   
    33   20   27 1   
    34   21   22 1   
    35   21   44 1   
    36   22   23 1   
    37   24   26 1   
    38   26   45 1   
    39   27   46 1   
    40   28   48 1   
@<TRIPOS>SUBSTRUCTURE
     1 1C1         1 TEMP              0 ****  ****    0 ROOT
