@<TRIPOS>MOLECULE
1C2
   50    50     1     0     0
SMALL
bcc


@<TRIPOS>ATOM
      1 O6         -0.6380    0.0990   -0.6810 o         1 1C2     -0.574733
      2 S1          0.2350   -0.6050    0.0880 s4        1 1C2      1.811000
      3 O4          0.2210   -0.4510    1.4310 o         1 1C2     -0.574733
      4 O5          1.0410   -1.5210   -0.4970 o         1 1C2     -0.694533
      5 N3          2.0470    1.1560   -0.3850 nh        1 1C2     -0.861200
      6 C15         1.6430    2.4920   -0.1190 ca        1 1C2      0.090600
      7 C16         2.3550    3.3140    0.7780 ca        1 1C2     -0.140000
      8 C14         0.4560    2.9820   -0.7100 ca        1 1C2     -0.124000
      9 C13        -0.0020    4.2530   -0.3790 ca        1 1C2     -0.087300
     10 C12        -1.3050    4.7480   -0.9200 c3        1 1C2      0.131300
     11 N2         -1.3290    6.1850   -1.1690 n         1 1C2     -0.470800
     12 C7         -2.5050    6.7360   -1.7180 c         1 1C2      0.749100
     13 O3         -2.5880    7.9440   -2.0290 o         1 1C2     -0.638000
     14 O2         -3.4860    5.8420   -1.9600 os        1 1C2     -0.408900
     15 C8         -4.7550    6.2870   -2.5620 c3        1 1C2      0.186800
     16 C11        -5.5430    4.9830   -2.6220 c3        1 1C2     -0.119767
     17 C10        -4.5070    6.8390   -3.9530 c3        1 1C2     -0.119767
     18 C9         -5.4340    7.2950   -1.6560 c3        1 1C2     -0.119767
     19 C4         -0.5300    7.0700   -0.3530 c3        1 1C2      0.063700
     20 C5          0.5580    7.8050   -1.1690 c         1 1C2      0.525100
     21 O1          1.6560    8.1570   -0.7710 o         1 1C2     -0.412100
     22 N1          0.1750    8.2140   -2.5720 n4        1 1C2     -0.676800
     23 C6          1.1310    9.1470   -3.2040 c3        1 1C2      0.082100
     24 C3          0.1510    6.3960    0.8550 c3        1 1C2     -0.038100
     25 C2          0.7110    5.0660    0.5140 ca        1 1C2     -0.120300
     26 C1          1.8900    4.5890    1.0870 ca        1 1C2     -0.082000
     27 HN3         2.1470    0.9940   -1.3720 hn        1 1C2      0.403300
     28 H16         3.2790    2.9490    1.2570 ha        1 1C2      0.155000
     29 H14        -0.1310    2.3420   -1.3940 ha        1 1C2      0.180000
     30 H121       -1.5470    4.2440   -1.9020 h1        1 1C2      0.087200
     31 H122       -2.1230    4.4750   -0.1870 h1        1 1C2      0.087200
     32 H111       -6.5500    5.1950   -3.0550 hc        1 1C2      0.062367
     33 H112       -5.0160    4.2370   -3.2620 hc        1 1C2      0.062367
     34 H113       -5.6660    4.5560   -1.5980 hc        1 1C2      0.062367
     35 H101       -3.8970    6.1210   -4.5520 hc        1 1C2      0.062367
     36 H102       -3.9760    7.8190   -3.9010 hc        1 1C2      0.062367
     37 H103       -5.4880    6.9910   -4.4650 hc        1 1C2      0.062367
     38 H91        -6.4610    7.5010   -2.0430 hc        1 1C2      0.062367
     39 H92        -4.8620    8.2550   -1.6310 hc        1 1C2      0.062367
     40 H93        -5.5150    6.8910   -0.6190 hc        1 1C2      0.062367
     41 H4         -1.1750    7.9250    0.0400 h1        1 1C2      0.114700
     42 HN1        -0.7700    8.6460   -2.5310 hn        1 1C2      0.479300
     43 H61         2.1500    8.6760   -3.2440 hx        1 1C2      0.108367
     44 H62         1.1910   10.0880   -2.5940 hx        1 1C2      0.108367
     45 H63         0.7780    9.3860   -4.2420 hx        1 1C2      0.108367
     46 H31        -0.6290    6.2710    1.6580 hc        1 1C2      0.095700
     47 H32         0.9460    7.0800    1.2570 hc        1 1C2      0.095700
     48 H1          2.4550    5.2180    1.7950 ha        1 1C2      0.152000
     49 H321        2.8990    0.9210    0.0920 hn        1 1C2      0.403300
     50 H12         0.1000    7.3610   -3.1390 hn        1 1C2      0.479300
@<TRIPOS>BOND
     1    1    2 1   
     2    2    3 1   
     3    2    4 2   
     4    5    6 1   
     5    5   27 1   
     6    5   49 1   
     7    6    7 ar  
     8    6    8 ar  
     9    7   26 ar  
    10    7   28 1   
    11    8    9 ar  
    12    8   29 1   
    13    9   10 1   
    14    9   25 ar  
    15   10   11 1   
    16   10   30 1   
    17   10   31 1   
    18   11   12 1   
    19   11   19 1   
    20   12   13 2   
    21   12   14 1   
    22   14   15 1   
    23   15   16 1   
    24   15   17 1   
    25   15   18 1   
    26   16   32 1   
    27   16   33 1   
    28   16   34 1   
    29   17   35 1   
    30   17   36 1   
    31   17   37 1   
    32   18   38 1   
    33   18   39 1   
    34   18   40 1   
    35   19   20 1   
    36   19   24 1   
    37   19   41 1   
    38   20   21 2   
    39   20   22 1   
    40   22   23 1   
    41   22   42 1   
    42   22   50 1   
    43   23   43 1   
    44   23   44 1   
    45   23   45 1   
    46   24   25 1   
    47   24   46 1   
    48   24   47 1   
    49   25   26 ar  
    50   26   48 1   
@<TRIPOS>SUBSTRUCTURE
     1 1C2         1 TEMP              0 ****  ****    0 ROOT
