@<TRIPOS>MOLECULE
1C2
   49    50     1     0     0
SMALL
bcc


@<TRIPOS>ATOM
      1 O6          0.7890    3.7290   -2.8510 o         1 1C2     -0.738200
      2 S1          0.9970    2.3000   -2.7300 s6        1 1C2      1.550700
      3 O4         -0.2350    1.6280   -2.7130 o         1 1C2     -0.738200
      4 O5          1.9770    1.8150   -3.6080 o         1 1C2     -0.738200
      5 N3          1.7000    2.1400   -1.1550 nh        1 1C2     -0.732500
      6 C15         1.2860    2.9950   -0.1610 ca        1 1C2      0.232600
      7 C16         2.1790    3.6770    0.7070 ca        1 1C2     -0.207000
      8 C14        -0.0980    3.3480   -0.1080 ca        1 1C2     -0.186000
      9 C13        -0.4720    4.5190    0.5180 ca        1 1C2     -0.109300
     10 C12        -1.8750    5.0480    0.4450 c3        1 1C2      0.129300
     11 N2         -1.8850    6.4010   -0.1040 n         1 1C2     -0.453800
     12 C7         -2.6570    6.6910   -1.2350 c         1 1C2      0.744100
     13 O3         -2.3420    7.5460   -2.0870 o         1 1C2     -0.626000
     14 O2         -3.7950    5.9550   -1.3250 os        1 1C2     -0.411900
     15 C8         -4.7070    6.1770   -2.4490 c3        1 1C2      0.184800
     16 C11        -5.8190    5.1720   -2.1570 c3        1 1C2     -0.118433
     17 C10        -4.0190    5.8490   -3.7610 c3        1 1C2     -0.118433
     18 C9         -5.2420    7.5970   -2.4230 c3        1 1C2     -0.118433
     19 C4         -0.7320    7.2300    0.1580 c3        1 1C2      0.059700
     20 C5          0.2920    7.3600   -0.9920 c         1 1C2      0.524100
     21 O1          1.0920    8.2860   -1.0610 o         1 1C2     -0.458100
     22 N1          0.3380    6.3190   -2.0620 n4        1 1C2     -0.651800
     23 C6          1.4390    6.5160   -3.0310 c3        1 1C2      0.095100
     24 C3          0.0730    6.7430    1.3960 c3        1 1C2     -0.019100
     25 C2          0.4890    5.3430    1.1390 ca        1 1C2     -0.204300
     26 C1          1.7810    4.8550    1.3290 ca        1 1C2     -0.071000
     27 HN3         2.5550    1.6650   -1.0050 hn        1 1C2      0.432800
     28 H16         3.2090    3.3120    0.8310 ha        1 1C2      0.144000
     29 H14        -0.8420    2.7200   -0.6310 ha        1 1C2      0.184000
     30 H121       -2.3120    5.1010    1.4840 h1        1 1C2      0.086200
     31 H122       -2.5310    4.3770   -0.1800 h1        1 1C2      0.086200
     32 H111       -6.5940    5.2530   -2.9560 hc        1 1C2      0.058256
     33 H112       -5.4090    4.1350   -2.1430 hc        1 1C2      0.058256
     34 H113       -6.2850    5.3880   -1.1660 hc        1 1C2      0.058256
     35 H101       -3.5270    4.8480   -3.7000 hc        1 1C2      0.058256
     36 H102       -3.2490    6.6190   -4.0060 hc        1 1C2      0.058256
     37 H103       -4.7790    5.8280   -4.5790 hc        1 1C2      0.058256
     38 H91        -6.0600    7.6950   -3.1760 hc        1 1C2      0.058256
     39 H92        -5.6490    7.8370   -1.4120 hc        1 1C2      0.058256
     40 H93        -4.4340    8.3270   -2.6700 hc        1 1C2      0.058256
     41 H4         -1.0980    8.2890    0.3280 h1        1 1C2      0.117700
     42 HN1         0.4390    5.3580   -1.6510 hn        1 1C2      0.495800
     43 H61         1.2650    7.4600   -3.6090 hx        1 1C2      0.105033
     44 H62         2.4110    6.5900   -2.4780 hx        1 1C2      0.105033
     45 H63         1.4620    5.6150   -3.7120 hx        1 1C2      0.105033
     46 H31        -0.5830    6.8170    2.3040 hc        1 1C2      0.081200
     47 H32         0.9520    7.4220    1.5410 hc        1 1C2      0.081200
     48 H1          2.5050    5.4310    1.9260 ha        1 1C2      0.136000
     49 H12        -0.5550    6.3350   -2.5760 hn        1 1C2      0.495800
@<TRIPOS>BOND
     1    1    2 1   
     2    2    3 1   
     3    2    4 1   
     4    2    5 1   
     5    5    6 1   
     6    5   27 1   
     7    6    7 ar  
     8    6    8 ar  
     9    7   26 ar  
    10    7   28 1   
    11    8    9 ar  
    12    8   29 1   
    13    9   10 1   
    14    9   25 ar  
    15   10   11 1   
    16   10   30 1   
    17   10   31 1   
    18   11   12 1   
    19   11   19 1   
    20   12   13 2   
    21   12   14 1   
    22   14   15 1   
    23   15   16 1   
    24   15   17 1   
    25   15   18 1   
    26   16   32 1   
    27   16   33 1   
    28   16   34 1   
    29   17   35 1   
    30   17   36 1   
    31   17   37 1   
    32   18   38 1   
    33   18   39 1   
    34   18   40 1   
    35   19   20 1   
    36   19   24 1   
    37   19   41 1   
    38   20   21 2   
    39   20   22 1   
    40   22   23 1   
    41   22   42 1   
    42   22   49 1   
    43   23   43 1   
    44   23   44 1   
    45   23   45 1   
    46   24   25 1   
    47   24   46 1   
    48   24   47 1   
    49   25   26 ar  
    50   26   48 1   
@<TRIPOS>SUBSTRUCTURE
     1 1C2         1 TEMP              0 ****  ****    0 ROOT
