@<TRIPOS>MOLECULE
1C2
   48    47     1     0     0
SMALL
bcc


@<TRIPOS>ATOM
      1 O6          1.8780   -5.8070    2.8510 o         1 1C2     -1.054333
      2 S1          2.9910   -6.0320    1.8660 s4        1 1C2      2.835000
      3 O4          4.3400   -6.0320    2.5520 o         1 1C2     -1.054333
      4 O5          2.9490   -7.4320    1.3020 o         1 1C2     -1.054333
      5 N3          2.9300   -4.9050    0.6680 n2        1 1C2     -0.769000
      6 C15         2.4080   -3.5950    0.9400 c2        1 1C2      0.183000
      7 C16         2.9090   -2.8460    2.0410 c2        1 1C2     -0.197000
      8 C14         1.4630   -3.0210    0.0690 c1        1 1C2     -0.238000
      9 C13         1.0140   -1.7070    0.2870 c1        1 1C2     -0.027000
     10 C12        -0.0130   -1.0070   -0.6760 c3        1 1C2      0.003000
     11 N2         -0.4810    0.2360   -0.3000 n         1 1C2     -0.259000
     12 C7         -1.7530    0.7260   -0.8300 c2        1 1C2      0.403000
     13 O3         -2.0420    0.5320   -1.9980 o         1 1C2     -0.404000
     14 O2         -2.6770    1.4020    0.0340 os        1 1C2     -0.290000
     15 C8         -3.7980    1.9830   -0.6550 c3        1 1C2      0.116000
     16 C11        -4.9100    2.3280    0.3650 c3        1 1C2     -0.230333
     17 C10        -4.3380    0.9860   -1.6790 c3        1 1C2     -0.230333
     18 C9         -3.3540    3.2490   -1.3670 c3        1 1C2     -0.230333
     19 C4          0.4440    1.1560    0.3160 c3        1 1C2      0.017000
     20 C5          1.4710    1.7250   -0.7730 c2        1 1C2      0.277000
     21 O1          1.6510    1.1240   -1.8020 o         1 1C2     -0.362000
     22 N1          2.1540    2.9760   -0.5370 n         1 1C2     -0.374000
     23 C6          3.1880    3.4170   -1.4470 c3        1 1C2     -0.082000
     24 C3          1.1550    0.5670    1.4860 c3        1 1C2     -0.091000
     25 C2          1.5200   -0.9520    1.3990 c2        1 1C2     -0.178000
     26 C1          2.4590   -1.5250    2.2620 c2        1 1C2     -0.082000
     27 HN3         3.2240   -5.1140   -0.1710 hn        1 1C2      0.206000
     28 H16         3.5350   -3.2590    2.6670 ha        1 1C2      0.175000
     29 H14         1.0920   -3.5470   -0.6580 ha        1 1C2      0.123000
     30 H121       -0.7860   -1.6010   -0.7750 h1        1 1C2      0.111000
     31 H122        0.4110   -0.9150   -1.5500 h1        1 1C2      0.111000
     32 H111       -4.5360    2.8880    1.0810 hc        1 1C2      0.088333
     33 H112       -5.2670    1.4990    0.7510 hc        1 1C2      0.088333
     34 H113       -5.6350    2.8180   -0.0910 hc        1 1C2      0.088333
     35 H101       -3.8280    1.0690   -2.5180 hc        1 1C2      0.088333
     36 H102       -4.2460    0.0780   -1.3290 hc        1 1C2      0.088333
     37 H103       -5.2860    1.1760   -1.8520 hc        1 1C2      0.088333
     38 H91        -2.8890    3.0110   -2.1990 hc        1 1C2      0.088333
     39 H92        -2.7480    3.7540   -0.7870 hc        1 1C2      0.088333
     40 H93        -4.1390    3.7980   -1.5770 hc        1 1C2      0.088333
     41 H4         -0.0150    1.9790    0.5840 h1        1 1C2      0.125000
     42 HN1         1.8860    3.5220    0.1550 hn        1 1C2      0.212000
     43 H61         3.4420    4.3480   -1.2300 h1        1 1C2      0.080000
     44 H62         2.8530    3.3760   -2.3670 h1        1 1C2      0.080000
     45 H63         3.9730    2.8350   -1.3570 h1        1 1C2      0.080000
     46 H31         0.5820    0.6840    2.2630 hc        1 1C2      0.083000
     47 H32         1.9920    1.0630    1.5980 hc        1 1C2      0.083000
     48 H1          2.8260   -1.0050    2.9900 ha        1 1C2      0.112000
@<TRIPOS>BOND
     1    1    2 1   
     2    2    3 1   
     3    2    4 1   
     4    5    6 1   
     5    5   27 1   
     6    6    7 1   
     7    6    8 1   
     8    7   26 1   
     9    7   28 1   
    10    8   29 1   
    11    9   10 1   
    12    9   25 1   
    13   10   11 1   
    14   10   30 1   
    15   10   31 1   
    16   11   12 1   
    17   11   19 1   
    18   12   13 1   
    19   12   14 1   
    20   14   15 1   
    21   15   16 1   
    22   15   17 1   
    23   15   18 1   
    24   16   32 1   
    25   16   33 1   
    26   16   34 1   
    27   17   35 1   
    28   17   36 1   
    29   17   37 1   
    30   18   38 1   
    31   18   39 1   
    32   18   40 1   
    33   19   20 1   
    34   19   24 1   
    35   19   41 1   
    36   20   21 1   
    37   20   22 1   
    38   22   23 1   
    39   22   42 1   
    40   23   43 1   
    41   23   44 1   
    42   23   45 1   
    43   24   25 1   
    44   24   46 1   
    45   24   47 1   
    46   25   26 1   
    47   26   48 1   
@<TRIPOS>SUBSTRUCTURE
     1 1C2         1 TEMP              0 ****  ****    0 ROOT
