@<TRIPOS>MOLECULE
1C2
   48    49     1     0     0
SMALL
bcc


@<TRIPOS>ATOM
      1 O6         -8.1600   46.6180   46.5450 o         1 1C2     -0.730200
      2 S1         -8.3890   47.7750   47.3220 s6        1 1C2      1.530700
      3 O4         -7.5980   47.8200   48.4930 o         1 1C2     -0.730200
      4 O5         -8.3790   48.9740   46.5640 o         1 1C2     -0.730200
      5 N3        -10.0480   47.6870   47.8440 nh        1 1C2     -0.716500
      6 C15       -10.6190   46.9590   48.8540 ca        1 1C2      0.263600
      7 C16        -9.8290   46.1710   49.7450 ca        1 1C2     -0.193000
      8 C14       -12.0240   46.9610   49.0630 ca        1 1C2     -0.246000
      9 C13       -12.6020   46.2130   50.0880 ca        1 1C2     -0.069300
     10 C12       -14.0950   46.2650   50.2280 c3        1 1C2      0.146300
     11 N2        -14.6400   45.5870   51.3860 n         1 1C2     -0.447800
     12 C7        -15.9500   45.1390   51.3690 c         1 1C2      0.756100
     13 O3        -16.5080   44.4350   52.2300 o         1 1C2     -0.603000
     14 O2        -16.6520   45.5670   50.2620 os        1 1C2     -0.442900
     15 C8        -18.0530   45.2180   50.1360 c3        1 1C2      0.186800
     16 C11       -18.4450   45.8840   48.8150 c3        1 1C2     -0.113433
     17 C10       -18.8640   45.8040   51.2800 c3        1 1C2     -0.113433
     18 C9        -18.2300   43.7120   50.0360 c3        1 1C2     -0.113433
     19 C4        -13.7830   45.1930   52.4830 c3        1 1C2      0.048700
     20 C5        -13.5250   46.3390   53.4950 c         1 1C2      0.644100
     21 O1        -13.7680   46.1500   54.7050 o         1 1C2     -0.627100
     22 N1        -13.0370   47.5330   53.0210 n         1 1C2     -0.553900
     23 C6        -12.6480   48.5980   53.8890 c3        1 1C2      0.076300
     24 C3        -12.4270   44.6340   52.0220 c3        1 1C2     -0.027100
     25 C2        -11.8110   45.4450   50.9450 ca        1 1C2     -0.184300
     26 C1        -10.4210   45.4390   50.7540 ca        1 1C2     -0.080000
     27 HN3       -10.6960   48.2330   47.3260 hn        1 1C2      0.409800
     28 H16        -8.7290   46.1680   49.6310 ha        1 1C2      0.178000
     29 H14       -12.6740   47.5570   48.4050 ha        1 1C2      0.122000
     30 H121      -14.5520   45.8160   49.2960 h1        1 1C2      0.057700
     31 H122      -14.4220   47.3470   50.2750 h1        1 1C2      0.057700
     32 H111      -17.8240   45.4780   47.9820 hc        1 1C2      0.049700
     33 H112      -19.5210   45.6780   48.6100 hc        1 1C2      0.049700
     34 H113      -18.2830   46.9850   48.8780 hc        1 1C2      0.049700
     35 H101      -18.6380   46.8910   51.3910 hc        1 1C2      0.049700
     36 H102      -19.9510   45.6770   51.0660 hc        1 1C2      0.049700
     37 H103      -18.6170   45.2860   52.2380 hc        1 1C2      0.049700
     38 H91       -18.0040   43.2270   51.0170 hc        1 1C2      0.049700
     39 H92       -19.2830   43.4800   49.7500 hc        1 1C2      0.049700
     40 H93       -17.5420   43.2970   49.2630 hc        1 1C2      0.049700
     41 H4        -14.3190   44.3900   53.0820 h1        1 1C2      0.110700
     42 HN1       -12.7110   47.5720   52.0800 hn        1 1C2      0.331500
     43 H61       -11.5310   48.6320   54.0110 h1        1 1C2      0.039367
     44 H62       -12.9870   49.5750   53.4500 h1        1 1C2      0.039367
     45 H63       -13.1170   48.4640   54.9000 h1        1 1C2      0.039367
     46 H31       -12.5810   43.5830   51.6530 hc        1 1C2      0.056700
     47 H32       -11.7500   44.5810   52.9160 hc        1 1C2      0.056700
     48 H1         -9.7900   44.8390   51.4290 ha        1 1C2      0.121000
@<TRIPOS>BOND
     1    1    2 1   
     2    2    3 1   
     3    2    4 1   
     4    2    5 1   
     5    5    6 1   
     6    5   27 1   
     7    6    7 ar  
     8    6    8 ar  
     9    7   26 ar  
    10    7   28 1   
    11    8    9 ar  
    12    8   29 1   
    13    9   10 1   
    14    9   25 ar  
    15   10   11 1   
    16   10   30 1   
    17   10   31 1   
    18   11   12 1   
    19   11   19 1   
    20   12   13 2   
    21   12   14 1   
    22   14   15 1   
    23   15   16 1   
    24   15   17 1   
    25   15   18 1   
    26   16   32 1   
    27   16   33 1   
    28   16   34 1   
    29   17   35 1   
    30   17   36 1   
    31   17   37 1   
    32   18   38 1   
    33   18   39 1   
    34   18   40 1   
    35   19   20 1   
    36   19   24 1   
    37   19   41 1   
    38   20   21 2   
    39   20   22 1   
    40   22   23 1   
    41   22   42 1   
    42   23   43 1   
    43   23   44 1   
    44   23   45 1   
    45   24   25 1   
    46   24   46 1   
    47   24   47 1   
    48   25   26 ar  
    49   26   48 1   
@<TRIPOS>SUBSTRUCTURE
     1 1C2         1 TEMP              0 ****  ****    0 ROOT
