@<TRIPOS>MOLECULE
1C2
   49    50     1     0     0
SMALL
bcc


@<TRIPOS>ATOM
      1 O6          0.8170    3.7040   -2.7850 o         1 1C2     -0.738200
      2 S1          1.0330    2.2800   -2.6270 s6        1 1C2      1.550700
      3 O4         -0.1950    1.6000   -2.6060 o         1 1C2     -0.738200
      4 O5          2.0260    1.7800   -3.4810 o         1 1C2     -0.738200
      5 N3          1.7200    2.1640   -1.0400 nu        1 1C2     -0.732500
      6 C15         1.2890    3.0410   -0.0730 ca        1 1C2      0.232600
      7 C16         2.1680    3.7500    0.7870 ca        1 1C2     -0.207000
      8 C14        -0.0970    3.3860   -0.0430 ca        1 1C2     -0.186000
      9 C13        -0.4860    4.5700    0.5490 ca        1 1C2     -0.109300
     10 C12        -1.8910    5.0870    0.4470 c3        1 1C2      0.129300
     11 N2         -1.9040    6.4260   -0.1350 n         1 1C2     -0.453800
     12 C7         -2.6650    6.6820   -1.2820 c         1 1C2      0.744100
     13 O3         -2.3470    7.5180   -2.1520 o         1 1C2     -0.626000
     14 O2         -3.7970    5.9360   -1.3660 os        1 1C2     -0.411900
     15 C8         -4.6990    6.1240   -2.5040 c3        1 1C2      0.184800
     16 C11        -5.8080    5.1200   -2.1990 c3        1 1C2     -0.118433
     17 C10        -3.9940    5.7680   -3.8000 c3        1 1C2     -0.118433
     18 C9         -5.2430    7.5410   -2.5200 c3        1 1C2     -0.118433
     19 C4         -0.7590    7.2690    0.1180 c3        1 1C2      0.059700
     20 C5          0.2770    7.3770   -1.0240 c         1 1C2      0.524100
     21 O1          1.0720    8.3070   -1.1070 o         1 1C2     -0.458100
     22 N1          0.3400    6.3110   -2.0660 ny        1 1C2     -0.651800
     23 C6          1.4510    6.4900   -3.0290 c3        1 1C2      0.095100
     24 C3          0.0350    6.8190    1.3770 c3        1 1C2     -0.019100
     25 C2          0.4630    5.4150    1.1590 ca        1 1C2     -0.204300
     26 C1          1.7560    4.9410    1.3760 ca        1 1C2     -0.071000
     27 HN3         2.5760    1.7000   -0.8690 hn        1 1C2      0.432800
     28 H16         3.1990    3.3960    0.9310 ha        1 1C2      0.144000
     29 H14        -0.8310    2.7400   -0.5590 ha        1 1C2      0.184000
     30 H121       -2.5360    4.3960   -0.1680 h1        1 1C2      0.086200
     31 H122       -2.3400    5.1630    1.4800 h1        1 1C2      0.086200
     32 H111       -6.2860    5.3580   -1.2200 hc        1 1C2      0.058256
     33 H112       -6.5740    5.1740   -3.0080 hc        1 1C2      0.058256
     34 H113       -5.3910    4.0860   -2.1540 hc        1 1C2      0.058256
     35 H101       -4.7440    5.7210   -4.6250 hc        1 1C2      0.058256
     36 H102       -3.4970    4.7720   -3.7090 hc        1 1C2      0.058256
     37 H103       -3.2260    6.5370   -4.0560 hc        1 1C2      0.058256
     38 H91        -4.4370    8.2700   -2.7770 hc        1 1C2      0.058256
     39 H92        -6.0530    7.6140   -3.2840 hc        1 1C2      0.058256
     40 H93        -5.6620    7.8030   -1.5200 hc        1 1C2      0.058256
     41 H4         -1.1340    8.3300    0.2580 h1        1 1C2      0.117700
     42 HN1        -0.5470    6.3070   -2.5910 hn        1 1C2      0.495800
     43 H61         1.2780    7.4180   -3.6320 hx        1 1C2      0.105033
     44 H62         2.4160    6.5840   -2.4670 hx        1 1C2      0.105033
     45 H63         1.4870    5.5720   -3.6860 hx        1 1C2      0.105033
     46 H31        -0.6310    6.9110    2.2750 hc        1 1C2      0.081200
     47 H32         0.9080    7.5070    1.5140 hc        1 1C2      0.081200
     48 H1          2.4700    5.5360    1.9650 ha        1 1C2      0.136000
     49 H12         0.4440    5.3600   -1.6310 hn        1 1C2      0.495800
@<TRIPOS>BOND
     1    1    2 1   
     2    2    3 1   
     3    2    4 1   
     4    2    5 1   
     5    5    6 1   
     6    5   27 1   
     7    6    7 ar  
     8    6    8 ar  
     9    7   26 ar  
    10    7   28 1   
    11    8    9 ar  
    12    8   29 1   
    13    9   10 1   
    14    9   25 ar  
    15   10   11 1   
    16   10   30 1   
    17   10   31 1   
    18   11   12 1   
    19   11   19 1   
    20   12   13 2   
    21   12   14 1   
    22   14   15 1   
    23   15   16 1   
    24   15   17 1   
    25   15   18 1   
    26   16   32 1   
    27   16   33 1   
    28   16   34 1   
    29   17   35 1   
    30   17   36 1   
    31   17   37 1   
    32   18   38 1   
    33   18   39 1   
    34   18   40 1   
    35   19   20 1   
    36   19   24 1   
    37   19   41 1   
    38   20   21 2   
    39   20   22 1   
    40   22   23 1   
    41   22   42 1   
    42   22   49 1   
    43   23   43 1   
    44   23   44 1   
    45   23   45 1   
    46   24   25 1   
    47   24   46 1   
    48   24   47 1   
    49   25   26 ar  
    50   26   48 1   
@<TRIPOS>SUBSTRUCTURE
     1 1C2         1 TEMP              0 ****  ****    0 ROOT
