@<TRIPOS>MOLECULE
1C3
   41    42     1     0     0
SMALL
bcc


@<TRIPOS>ATOM
      1 C2         -1.2930    1.5890   -0.7560 ca        1 1C3     -0.205000
      2 O2         -4.2050   -0.3670    0.4070 os        1 1C3     -0.318900
      3 C4          1.1430    0.9650   -1.0420 c3        1 1C3      0.227100
      4 C5         -0.5640   -0.6740   -0.2680 ca        1 1C3     -0.205000
      5 C6         -1.8770   -1.0310    0.0540 ca        1 1C3      0.115100
      6 C9         -4.9140   -1.2250   -0.4850 c3        1 1C3      0.117700
      7 C8         -2.9180   -0.0780   -0.0180 ca        1 1C3      0.022100
      8 C1         -2.6100    1.2280   -0.4470 ca        1 1C3      0.115100
      9 O20        -3.6880    2.0940   -0.5700 os        1 1C3     -0.333400
     10 C10        -3.3630    3.4750   -0.4980 c3        1 1C3      0.113700
     11 O1         -2.2520   -2.3060    0.4330 os        1 1C3     -0.333400
     12 C7         -1.1760   -3.2260    0.6280 c3        1 1C3      0.113700
     13 C3         -0.2800    0.6340   -0.6650 ca        1 1C3     -0.012300
     14 N           2.0530    0.8220    0.0740 n3        1 1C3     -0.724600
     15 CD          2.4350    2.0540    0.7490 c3        1 1C3      0.179800
     16 CA          3.2660    0.0390   -0.2110 c3        1 1C3      0.067500
     17 CB          4.3650    0.5560    0.7330 c3        1 1C3     -0.081400
     18 CG          3.8760    1.8980    1.2630 c3        1 1C3     -0.086400
     19 C           3.0160   -1.4960   -0.0770 c         1 1C3      0.928600
     20 O           2.2090   -2.0190   -0.9000 o         1 1C3     -0.841300
     21 H1         -1.0570    2.6140   -1.0710 ha        1 1C3      0.175000
     22 H2          1.4350    0.2260   -1.8500 h1        1 1C3      0.043700
     23 H3          1.1720    2.0040   -1.4850 h1        1 1C3      0.043700
     24 H4          0.2770   -1.4010   -0.2230 ha        1 1C3      0.175000
     25 H5         -5.0510   -0.7280   -1.4760 h1        1 1C3      0.032367
     26 H6         -4.3720   -2.1950   -0.6060 h1        1 1C3      0.032367
     27 H7         -5.8990   -1.3790    0.0190 h1        1 1C3      0.032367
     28 H8         -4.3560    3.9760   -0.3680 h1        1 1C3      0.043200
     29 H9         -2.6950    3.6930    0.3690 h1        1 1C3      0.043200
     30 H10        -2.8820    3.8090   -1.4500 h1        1 1C3      0.043200
     31 H11        -0.6280   -3.4010   -0.3310 h1        1 1C3      0.043200
     32 H12        -0.4730   -2.8500    1.4100 h1        1 1C3      0.043200
     33 H13        -1.6940   -4.1570    0.9690 h1        1 1C3      0.043200
     34 H15         2.3620    2.9610    0.0820 h1        1 1C3      0.013200
     35 H16         1.7220    2.2120    1.6040 h1        1 1C3      0.013200
     36 H17         3.6030    0.2040   -1.2780 h1        1 1C3      0.007700
     37 H18         4.5140   -0.1830    1.5620 hc        1 1C3      0.054700
     38 H19         5.3310    0.6620    0.1840 hc        1 1C3      0.054700
     39 H20         4.5120    2.7390    0.8930 hc        1 1C3      0.023700
     40 H21         3.8960    1.9200    2.3790 hc        1 1C3      0.023700
     41 OXT         3.6520   -2.1400    0.7980 o         1 1C3     -0.841300
@<TRIPOS>BOND
     1    1    8 ar  
     2    1   13 ar  
     3    1   21 1   
     4    2    6 1   
     5    2    7 1   
     6    3   13 1   
     7    3   14 1   
     8    3   22 1   
     9    3   23 1   
    10    4    5 ar  
    11    4   13 ar  
    12    4   24 1   
    13    5    7 ar  
    14    5   11 1   
    15    6   25 1   
    16    6   26 1   
    17    6   27 1   
    18    7    8 ar  
    19    8    9 1   
    20    9   10 1   
    21   10   28 1   
    22   10   29 1   
    23   10   30 1   
    24   11   12 1   
    25   12   31 1   
    26   12   32 1   
    27   12   33 1   
    28   14   15 1   
    29   14   16 1   
    30   15   18 1   
    31   15   34 1   
    32   15   35 1   
    33   16   17 1   
    34   16   19 1   
    35   16   36 1   
    36   17   18 1   
    37   17   37 1   
    38   17   38 1   
    39   18   39 1   
    40   18   40 1   
    41   19   20 1   
    42   19   41 1   
@<TRIPOS>SUBSTRUCTURE
     1 1C3         1 TEMP              0 ****  ****    0 ROOT
