@<TRIPOS>MOLECULE
1C3
   41    38     1     0     0
SMALL
bcc


@<TRIPOS>ATOM
      1 C2          0.6830    0.0520   -1.0330 c1        1 1C3     -0.206000
      2 O2          4.1170   -0.0000    0.2390 os        1 1C3     -0.198000
      3 C4         -1.5650    0.4250    0.2760 c3        1 1C3     -0.059000
      4 C5          0.6460    0.0140    1.3880 c1        1 1C3     -0.228000
      5 C6          2.0340   -0.0460    1.4130 c1        1 1C3      0.085000
      6 C9          4.7400   -1.2660    0.2250 c3        1 1C3     -0.072000
      7 C8          2.7560   -0.0560    0.2150 c2        1 1C3     -0.030000
      8 C1          2.0690   -0.0070   -1.0190 c1        1 1C3      0.074000
      9 O20         2.8230   -0.1360   -2.3090 o         1 1C3     -0.210000
     10 C10         3.1000    1.0830   -2.9260 c3        1 1C3     -0.075500
     11 O1          2.6350    0.8060    2.2830 o         1 1C3     -0.210000
     12 C7          2.8760    0.2520    3.5360 c3        1 1C3     -0.075500
     13 C3         -0.0300    0.0620    0.1660 c1        1 1C3      0.014000
     14 N          -2.3230   -0.4930   -0.5080 n3        1 1C3     -0.235000
     15 CD         -3.1060   -1.4320    0.4170 c3        1 1C3     -0.074000
     16 CA         -3.4190    0.3050   -1.3750 c3        1 1C3     -0.105000
     17 CB         -4.5080   -0.3810   -1.1240 c3        1 1C3     -0.159000
     18 CG         -4.3110   -1.0620    0.3410 c3        1 1C3     -0.164000
     19 C          -3.4740    1.7840   -0.9130 c2        1 1C3      0.322000
     20 O          -2.8600    2.7160   -1.6130 o         1 1C3     -0.571000
     21 H1          0.1860    0.0870   -1.9170 ha        1 1C3      0.161000
     22 H2         -1.7080    1.3190   -0.0440 h1        1 1C3      0.119500
     23 H3         -1.8480    0.3670    1.2060 h1        1 1C3      0.119500
     24 H4          0.1500    0.1180    2.2200 ha        1 1C3      0.147000
     25 H5          5.1450   -1.4200   -0.6530 h1        1 1C3      0.072000
     26 H6          5.4640   -1.2960    0.9440 h1        1 1C3      0.072000
     27 H7          4.0430   -1.9910    0.4120 h1        1 1C3      0.072000
     28 H8          2.4090    1.2900   -3.5490 h1        1 1C3      0.080500
     29 H9          3.9600    1.0210   -3.3990 h1        1 1C3      0.080500
     30 H10         3.1520    1.8030   -2.2320 h1        1 1C3      0.080500
     31 H11         2.7380   -0.7350    3.4950 h1        1 1C3      0.080500
     32 H12         2.2510    0.6430    4.1920 h1        1 1C3      0.080500
     33 H13         3.8330    0.4510    3.8180 h1        1 1C3      0.080500
     34 H15        -2.7690   -1.3340    1.3810 h1        1 1C3      0.060500
     35 H16        -3.0150   -2.3780    0.1130 h1        1 1C3      0.060500
     36 H17        -3.2740    0.4060   -2.3220 h1        1 1C3      0.090000
     37 H18        -4.6340   -1.0770   -1.8060 hc        1 1C3      0.084500
     38 H19        -5.3040    0.2350   -1.1080 hc        1 1C3      0.084500
     39 H20        -4.9140   -1.8660    0.4290 hc        1 1C3      0.062500
     40 H21        -4.5230   -0.3790    1.0750 hc        1 1C3      0.062500
     41 OXT        -4.2240    2.1150    0.0680 o         1 1C3     -0.571000
@<TRIPOS>BOND
     1    1    8 1   
     2    1   21 1   
     3    2    6 1   
     4    2    7 1   
     5    3   13 1   
     6    3   14 1   
     7    3   22 1   
     8    3   23 1   
     9    4   13 1   
    10    4   24 1   
    11    5    7 1   
    12    6   25 1   
    13    6   26 1   
    14    6   27 1   
    15    7    8 1   
    16    9   10 1   
    17   10   28 1   
    18   10   29 1   
    19   10   30 1   
    20   11   12 1   
    21   12   31 1   
    22   12   32 1   
    23   12   33 1   
    24   14   15 1   
    25   14   16 1   
    26   15   18 1   
    27   15   34 1   
    28   15   35 1   
    29   16   17 1   
    30   16   19 1   
    31   16   36 1   
    32   17   18 1   
    33   17   37 1   
    34   17   38 1   
    35   18   39 1   
    36   18   40 1   
    37   19   20 1   
    38   19   41 1   
@<TRIPOS>SUBSTRUCTURE
     1 1C3         1 TEMP              0 ****  ****    0 ROOT
