@<TRIPOS>MOLECULE
1C5
   81    75     1     0     0
SMALL
bcc


@<TRIPOS>ATOM
      1 C1         -1.4770   -2.4220    2.6380 c1        1 1C5     -0.219500
      2 C2         -1.7590   -2.0150    1.5490 c1        1 1C5     -0.219500
      3 C3          1.6560   -0.7350    3.5610 c3        1 1C5     -0.215000
      4 C4          1.4670    0.5660    4.3150 c3        1 1C5     -0.103000
      5 C5          0.5360    0.3690    5.5050 c3        1 1C5     -0.157000
      6 C6         -0.9140    0.3220    5.0940 c3        1 1C5     -0.217000
      7 C7          2.8220    1.0980    4.7690 c3        1 1C5     -0.172000
      8 C8          2.7850    2.5940    5.0050 c3        1 1C5     -0.176000
      9 C9          4.0000    3.0860    5.7960 c3        1 1C5     -0.124000
     10 C10         3.7990    4.5800    6.1310 c2        1 1C5      0.300000
     11 C12         7.1530    4.1160    6.1440 c2        1 1C5      0.102000
     12 C13         6.3310    5.3480    2.7350 c3        1 1C5     -0.288000
     13 C14         6.0240    0.0150    3.6320 c1        1 1C5      0.149000
     14 C15         5.2510    2.0570    2.2530 c1        1 1C5      0.149000
     15 C17         9.6760   -1.7760   13.1880 c2        1 1C5     -0.049000
     16 C18         8.2620   -2.2250   13.4360 c3        1 1C5     -0.126000
     17 C19         7.2180   -1.4190   12.7480 c2        1 1C5     -0.027000
     18 C20         6.5300   -0.4450   13.4000 c2        1 1C5     -0.160000
     19 C21         5.5070    0.3360   12.7640 c2        1 1C5      0.010000
     20 C22         5.2090    0.0870   11.4570 c2        1 1C5     -0.039000
     21 C23         5.9030   -0.9470   10.7080 c2        1 1C5      0.281000
     22 C24         6.9710   -1.7510   11.3200 c3        1 1C5     -0.169000
     23 C26        12.1630    2.0050    8.8640 c3        1 1C5     -0.294000
     24 N1          2.9300    4.8920    7.1300 nt        1 1C5     -0.397000
     25 N2          5.2820    2.8960    5.0370 ny        1 1C5      0.043000
     26 N3          8.2490    4.1820    6.9180 n8        1 1C5     -0.339000
     27 N4         10.0270   -1.0430   12.2010 n2        1 1C5     -0.259000
     28 O1          4.4160    5.4640    5.4960 o         1 1C5     -0.400000
     29 O3          5.3420    1.5960    1.1830 o         1 1C5     -0.142333
     30 O4          6.5580   -1.0130    3.7720 o         1 1C5     -0.142333
     31 O6          9.8080    2.4670    8.9190 o         1 1C5     -0.334000
     32 O4P         4.2780    0.7300   10.7070 os        1 1C5     -0.618000
     33 O1P         5.4910   -1.0720    9.4920 os        1 1C5     -0.488000
     34 O2P         2.9590   -0.8900    9.2150 o         1 1C5     -0.731500
     35 O3P         4.5790    0.9630    8.1890 o         1 1C5     -0.731500
     36 P           4.0800    0.0250    9.1980 p5        1 1C5      1.860000
     37 H11        -1.1010   -0.5200    4.3820 hc        1 1C5      0.080000
     38 H12A       -1.2370   -2.7950    3.6010 ha        1 1C5      0.221000
     39 H21A       -2.0120   -1.6570    0.5830 ha        1 1C5      0.221000
     40 H22         0.6640   -1.1570    3.2610 hc        1 1C5      0.081000
     41 H31         2.2600   -0.5690    2.6370 hc        1 1C5      0.081000
     42 H32         2.1800   -1.4870    4.1990 hc        1 1C5      0.081000
     43 H4          1.0030    1.3180    3.6150 hc        1 1C5      0.091000
     44 H51         0.8100   -0.5790    6.0380 hc        1 1C5      0.081000
     45 H52         0.6800    1.2080    6.2360 hc        1 1C5      0.081000
     46 H61        -1.2180    1.2740    4.5960 hc        1 1C5      0.080000
     47 H62        -1.5610    0.1720    5.9920 hc        1 1C5      0.080000
     48 H71         3.5880    0.8610    3.9780 hc        1 1C5      0.089000
     49 H72         3.1350    0.5700    5.7090 hc        1 1C5      0.089000
     50 H81         1.8670    2.8520    5.5990 hc        1 1C5      0.113500
     51 H82         2.7090    3.1380    4.0260 hc        1 1C5      0.113500
     52 H9          4.1070    2.4790    6.7540 hx        1 1C5      0.211000
     53 H12         6.8060    5.0690    5.6780 h4        1 1C5      0.179000
     54 H131        5.9110    4.4300    2.2650 hc        1 1C5      0.073000
     55 H132        5.6090    5.7590    3.4770 hc        1 1C5      0.073000
     56 H141        6.5180    6.1070    1.9450 hc        1 1C5      0.073000
     57 H142        7.2900    5.1000    3.2410 hc        1 1C5      0.073000
     58 H17        10.3720   -2.1740   13.9620 h4        1 1C5      0.114000
     59 H181        8.0870   -2.1970   14.5480 hc        1 1C5      0.124000
     60 H182        8.1870   -3.3020   13.1130 hc        1 1C5      0.124000
     61 H20         6.7390   -0.2220   14.4600 ha        1 1C5      0.165000
     62 H21         4.9770    1.1170   13.3340 ha        1 1C5      0.184000
     63 H23         6.7130   -2.8480   11.2100 hc        1 1C5      0.195500
     64 H24         7.9260   -1.5980   10.7250 hc        1 1C5      0.195500
     65 H261       12.8330    2.3900    9.6730 hc        1 1C5      0.111333
     66 H262       12.2070    2.7050    7.9960 hc        1 1C5      0.111333
     67 H263       12.5420    1.0040    8.5400 hc        1 1C5      0.111333
     68 HN11        6.3600    1.5610    7.1980 ho        1 1C5      0.247000
     69 HN12        2.4600    4.1900    7.6430 hn        1 1C5      0.246000
     70 HN2         5.3550    3.6200    4.3060 hn        1 1C5      0.266500
     71 HN3         8.7020    5.0560    7.0710 hn        1 1C5      0.263000
     72 HN4        10.6560    1.1730   10.2550 h4        1 1C5      0.095000
     73 C11         6.4600    2.9500    5.8960 c2        1 1C5     -0.266000
     74 C16         9.6590    7.0360    7.4280 c1        1 1C5      0.149000
     75 O2          6.8500    1.7190    6.3670 oh        1 1C5     -0.248000
     76 C25        10.7780    1.8660    9.3900 c2        1 1C5      0.201000
     77 O5         10.2160    8.0280    7.6900 o         1 1C5     -0.142333
     78 H13         2.7660    5.8450    7.3530 hn        1 1C5      0.246000
     79 H221        5.2620    1.9650    4.5810 hn        1 1C5      0.266500
     80 H321        8.6030    3.3690    7.3720 hn        1 1C5      0.263000
     81 H42        11.0000   -0.8240   12.1490 hn        1 1C5      0.157000
@<TRIPOS>BOND
     1    1    2 1   
     2    1   38 1   
     3    2   39 1   
     4    3    4 1   
     5    3   40 1   
     6    3   41 1   
     7    3   42 1   
     8    4    5 1   
     9    4    7 1   
    10    4   43 1   
    11    5    6 1   
    12    5   44 1   
    13    5   45 1   
    14    6   37 1   
    15    6   46 1   
    16    6   47 1   
    17    7    8 1   
    18    7   48 1   
    19    7   49 1   
    20    8    9 1   
    21    8   50 1   
    22    8   51 1   
    23    9   10 1   
    24    9   25 1   
    25    9   52 1   
    26   10   24 1   
    27   10   28 1   
    28   11   26 1   
    29   11   53 1   
    30   11   73 1   
    31   12   54 1   
    32   12   55 1   
    33   12   56 1   
    34   12   57 1   
    35   13   30 1   
    36   14   29 1   
    37   15   16 1   
    38   15   27 1   
    39   15   58 1   
    40   16   17 1   
    41   16   59 1   
    42   16   60 1   
    43   17   18 1   
    44   17   22 1   
    45   18   19 1   
    46   18   61 1   
    47   19   20 1   
    48   19   62 1   
    49   20   21 1   
    50   20   32 1   
    51   21   22 1   
    52   21   33 1   
    53   22   63 1   
    54   22   64 1   
    55   23   65 1   
    56   23   66 1   
    57   23   67 1   
    58   23   76 1   
    59   24   69 1   
    60   24   78 1   
    61   25   70 1   
    62   25   73 1   
    63   25   79 1   
    64   26   71 1   
    65   26   80 1   
    66   27   81 1   
    67   31   76 1   
    68   32   36 1   
    69   33   36 1   
    70   34   36 1   
    71   35   36 1   
    72   68   75 1   
    73   72   76 1   
    74   73   75 1   
    75   74   77 1   
@<TRIPOS>SUBSTRUCTURE
     1 1C5         1 TEMP              0 ****  ****    0 ROOT
