@<TRIPOS>MOLECULE
1C5
   77    73     1     0     0
SMALL
bcc


@<TRIPOS>ATOM
      1 C1         -4.4970    6.6630   -4.4840 c3        1 1C5     -0.150000
      2 C2         -2.9810    6.6400   -4.4570 c3        1 1C5     -0.156500
      3 C3         -2.4260    6.7030   -3.0510 c3        1 1C5     -0.148000
      4 C4         -3.0380    5.6550   -2.1390 c3        1 1C5     -0.096000
      5 C5         -4.5550    5.6780   -2.1660 c3        1 1C5     -0.148000
      6 C6         -5.1090    5.6160   -3.5720 c3        1 1C5     -0.156500
      7 C7         -2.5570    4.2730   -2.5820 c3        1 1C5     -0.157000
      8 C8         -2.1060    3.4830   -1.3710 c3        1 1C5     -0.157000
      9 C9         -1.1630    2.3830   -1.8090 c3        1 1C5      0.022000
     10 C10        -1.9560    1.2630   -2.4420 c2        1 1C5      0.281000
     11 C11         0.3520    0.7260   -0.8030 c1        1 1C5      0.293000
     12 C12         1.3800    0.4060    0.2620 c2        1 1C5      0.022000
     13 C13         2.7670    0.6430   -0.2900 c3        1 1C5     -0.146000
     14 C14         3.3270    1.9240    0.2870 c3        1 1C5     -0.224000
     15 C15         4.7830    2.0580   -0.1040 c2        1 1C5      0.331000
     16 C16         1.8110   -1.3980    1.8790 c1        1 1C5      0.298000
     17 C17         1.9370   -2.8790    2.1620 c2        1 1C5      0.001000
     18 C18         0.9220   -3.2800    3.2100 c3        1 1C5     -0.062000
     19 C19         0.8790   -4.7910    3.3190 c2        1 1C5     -0.336000
     20 C20         0.1850   -5.5340    2.3780 c2        1 1C5     -0.049000
     21 C21         0.0950   -6.9110    2.5100 c1        1 1C5     -0.331000
     22 C22         0.7000   -7.5440    3.5840 c1        1 1C5      0.315000
     23 C23         1.3940   -6.8010    4.5260 c1        1 1C5     -0.311000
     24 C24         1.4830   -5.4240    4.3940 c1        1 1C5     -0.072000
     25 C25         4.3100   -3.3360    1.7180 c1        1 1C5      0.296000
     26 C26         5.5280   -4.1390    2.1170 c2        1 1C5     -0.244000
     27 N1         -1.8200    0.9940   -3.8280 n         1 1C5     -0.419000
     28 N2         -0.4600    1.8850   -0.6790 n3        1 1C5     -0.391000
     29 N3          1.2500   -0.9540    0.6510 n3        1 1C5     -0.371000
     30 N4          3.2440   -3.1610    2.6370 n3        1 1C5     -0.333000
     31 O1         -2.7210    0.6030   -1.7670 o         1 1C5     -0.421000
     32 O2          0.2490    0.0140   -1.7810 o         1 1C5     -0.395000
     33 O3          5.6640    2.1890    0.7850 o         1 1C5     -0.591500
     34 O4          5.1110    2.0530   -1.3200 o         1 1C5     -0.591500
     35 O5          2.1920   -0.5880    2.7000 o         1 1C5     -0.427000
     36 O6          4.2450   -2.8400    0.6110 o         1 1C5     -0.414000
     37 O4P         0.6770   -8.9480    3.6750 os        1 1C5     -0.543000
     38 O1P        -1.0630  -10.7660    3.4610 o         1 1C5     -0.854500
     39 O2P        -0.1910  -10.1910    5.6950 o         1 1C5     -0.854500
     40 O3P        -1.6830   -8.6230    4.5120 o         1 1C5     -0.854500
     41 P          -0.5790   -9.6400    4.3430 p5        1 1C5      1.538500
     42 H11        -4.8000    6.5000   -5.4000 hc        1 1C5      0.064000
     43 H12A       -4.8050    7.5470   -4.2010 hc        1 1C5      0.064000
     44 H21A       -2.6700    5.8160   -4.8830 hc        1 1C5      0.081000
     45 H22        -2.6440    7.4060   -4.9640 hc        1 1C5      0.081000
     46 H31        -1.4590    6.5650   -3.0860 hc        1 1C5      0.074750
     47 H32        -2.6060    7.5890   -2.6790 hc        1 1C5      0.074750
     48 H4         -2.7360    5.8170   -1.2250 hc        1 1C5      0.082000
     49 H51        -4.8920    4.9130   -1.6590 hc        1 1C5      0.074750
     50 H52        -4.8660    6.5020   -1.7400 hc        1 1C5      0.074750
     51 H61        -4.9290    4.7290   -3.9440 hc        1 1C5      0.081000
     52 H62        -6.0770    5.7540   -3.5370 hc        1 1C5      0.081000
     53 H71        -3.2890    3.8000   -3.0260 hc        1 1C5      0.089500
     54 H72        -1.8080    4.3720   -3.2040 hc        1 1C5      0.089500
     55 H81        -2.8850    3.0890   -0.9310 hc        1 1C5      0.097000
     56 H82        -1.6450    4.0780   -0.7470 hc        1 1C5      0.097000
     57 H9         -0.5260    2.7390   -2.4590 h1        1 1C5      0.124000
     58 H12         1.2350    0.9820    1.0380 h4        1 1C5      0.116000
     59 H131        3.3470   -0.1060   -0.0450 hc        1 1C5      0.109000
     60 H132        2.7220    0.7160   -1.2650 hc        1 1C5      0.109000
     61 H141        3.2530    1.9030    1.2620 hc        1 1C5      0.065000
     62 H142        2.8240    2.6860   -0.0620 hc        1 1C5      0.065000
     63 H17         1.7730   -3.3830    1.3400 h4        1 1C5      0.111000
     64 H181        1.1760   -2.8970    4.0730 hc        1 1C5      0.078500
     65 H182        0.0390   -2.9460    2.9530 hc        1 1C5      0.078500
     66 H20        -0.2420   -5.0870    1.6210 ha        1 1C5      0.071000
     67 H21        -0.3940   -7.4340    1.8460 ha        1 1C5      0.107000
     68 H23         1.8200   -7.2480    5.2830 ha        1 1C5      0.142000
     69 H24         1.9720   -4.9010    5.0570 ha        1 1C5      0.074000
     70 H261        5.9790   -3.6970    2.8660 ha        1 1C5      0.105667
     71 H262        5.2510   -5.0390    2.3870 ha        1 1C5      0.105667
     72 H263        6.1420   -4.2000    1.3560 ha        1 1C5      0.105667
     73 HN11       -2.3450    0.3600   -4.2240 hn        1 1C5      0.233000
     74 HN12       -1.2040    1.4520   -4.3250 hn        1 1C5      0.233000
     75 HN2        -0.5180    2.3190    0.1210 hn        1 1C5      0.263000
     76 HN3         0.8330   -1.5490    0.0990 hn        1 1C5      0.262000
     77 HN4         3.3940   -3.2520    3.5320 hn        1 1C5      0.247000
@<TRIPOS>BOND
     1    1    2 1   
     2    1    6 1   
     3    1   42 1   
     4    1   43 1   
     5    2    3 1   
     6    2   44 1   
     7    2   45 1   
     8    3    4 1   
     9    3   46 1   
    10    3   47 1   
    11    4    5 1   
    12    4    7 1   
    13    4   48 1   
    14    5    6 1   
    15    5   49 1   
    16    5   50 1   
    17    6   51 1   
    18    6   52 1   
    19    7    8 1   
    20    7   53 1   
    21    7   54 1   
    22    8    9 1   
    23    8   55 1   
    24    8   56 1   
    25    9   10 1   
    26    9   28 1   
    27    9   57 1   
    28   10   27 1   
    29   10   31 1   
    30   11   28 1   
    31   11   32 1   
    32   12   13 1   
    33   12   29 1   
    34   12   58 1   
    35   13   14 1   
    36   13   59 1   
    37   13   60 1   
    38   14   15 1   
    39   14   61 1   
    40   14   62 1   
    41   15   33 1   
    42   15   34 1   
    43   16   29 1   
    44   16   35 1   
    45   17   18 1   
    46   17   30 1   
    47   17   63 1   
    48   18   19 1   
    49   18   64 1   
    50   18   65 1   
    51   19   20 1   
    52   19   24 1   
    53   20   21 1   
    54   20   66 1   
    55   21   67 1   
    56   22   23 1   
    57   22   37 1   
    58   23   68 1   
    59   24   69 1   
    60   25   30 1   
    61   25   36 1   
    62   26   70 1   
    63   26   71 1   
    64   26   72 1   
    65   27   73 1   
    66   27   74 1   
    67   28   75 1   
    68   29   76 1   
    69   30   77 1   
    70   37   41 1   
    71   38   41 1   
    72   39   41 1   
    73   40   41 1   
@<TRIPOS>SUBSTRUCTURE
     1 1C5         1 TEMP              0 ****  ****    0 ROOT
