@<TRIPOS>MOLECULE
1C5
   77    77     1     0     0
SMALL
bcc


@<TRIPOS>ATOM
      1 C1          0.9770    0.9970   10.5850 c3        1 1C5     -0.152000
      2 C2          1.6490    0.0040    9.6570 c3        1 1C5     -0.149000
      3 C3          1.4170    0.3600    8.2040 c3        1 1C5     -0.165000
      4 C4         -0.0710    0.4610    7.8970 c3        1 1C5     -0.088000
      5 C5         -0.7320    1.4760    8.8180 c3        1 1C5     -0.165000
      6 C6         -0.5000    1.1250   10.2740 c3        1 1C5     -0.149000
      7 C7         -0.2590    0.8110    6.4290 c3        1 1C5     -0.175000
      8 C8         -1.6610    0.5190    5.9450 c3        1 1C5     -0.152000
      9 C9         -1.8090    0.8320    4.4480 c3        1 1C5      0.023000
     10 C10        -3.3190    0.8590    4.0960 c2        1 1C5      0.290000
     11 C12         0.4040   -0.6580    1.6750 c3        1 1C5      0.020000
     12 C13         1.8110   -0.4850    2.2920 c3        1 1C5     -0.146000
     13 C14         2.2310   -1.6710    3.1340 c3        1 1C5     -0.220000
     14 C15         1.7860   -1.5430    4.5930 c2        1 1C5      0.319000
     15 C17        -0.3630   -0.9590   -2.1160 c3        1 1C5     -0.008000
     16 C18         0.9390   -1.4470   -2.7900 c3        1 1C5     -0.086000
     17 C19         0.8140   -1.3710   -4.2630 ca        1 1C5     -0.325000
     18 C20         1.3510   -0.2860   -4.9830 ca        1 1C5     -0.063500
     19 C21         1.1970   -0.1710   -6.3430 ca        1 1C5     -0.324500
     20 C22         0.4790   -1.1650   -7.1060 ca        1 1C5      0.315000
     21 C23        -0.0350   -2.2810   -6.3490 ca        1 1C5     -0.324500
     22 C24         0.1340   -2.3640   -4.9860 ca        1 1C5     -0.063500
     23 C26        -0.1390    2.5690   -3.4810 c3        1 1C5     -0.256000
     24 N1         -3.6650    1.1710    2.8090 n         1 1C5     -0.423000
     25 N2         -1.0780   -0.0790    3.6020 n         1 1C5     -0.368000
     26 N3          0.3870   -0.4590    0.2460 n         1 1C5     -0.352000
     27 N4         -0.7440    0.3990   -2.4500 n         1 1C5     -0.323000
     28 O1         -4.2110    0.6720    4.9540 o         1 1C5     -0.430000
     29 O3          0.6690   -2.0400    4.9400 o         1 1C5     -0.595000
     30 O4          2.5420   -0.9520    5.4180 o         1 1C5     -0.595000
     31 O6          1.1810    1.5240   -1.7780 o         1 1C5     -0.389000
     32 O4P         0.3050   -1.0700   -8.3620 o         1 1C5     -0.552000
     33 O1P         1.1890   -1.0300  -11.1020 o         1 1C5     -1.175667
     34 O2P        -1.0490    0.0750  -10.6200 o         1 1C5     -1.175667
     35 O3P         1.1100    1.2160   -9.9050 o         1 1C5     -1.175667
     36 P           0.4100   -0.0030  -10.3730 p3        1 1C5      2.501000
     37 H11         1.1110    0.6740   11.6500 hc        1 1C5      0.057000
     38 H12A        1.4680    2.0000   10.4740 hc        1 1C5      0.057000
     39 H21A        1.2480   -1.0240    9.8580 hc        1 1C5      0.064000
     40 H22         2.7500   -0.0180    9.8670 hc        1 1C5      0.064000
     41 H31         1.8800   -0.4120    7.5230 hc        1 1C5      0.094000
     42 H32         1.9100    1.3410    7.9750 hc        1 1C5      0.094000
     43 H4         -0.5380   -0.5470    8.0840 hc        1 1C5      0.091000
     44 H51        -0.3170    2.4970    8.6080 hc        1 1C5      0.094000
     45 H52        -1.8340    1.5110    8.6130 hc        1 1C5      0.094000
     46 H61        -1.0140    0.1550   10.5080 hc        1 1C5      0.064000
     47 H62        -0.9550    1.9130   10.9300 hc        1 1C5      0.064000
     48 H71         0.4800    0.1910    5.8370 hc        1 1C5      0.111500
     49 H72        -0.0130    1.8910    6.2630 hc        1 1C5      0.111500
     50 H81        -2.4080    1.1450    6.5010 hc        1 1C5      0.094500
     51 H82        -1.9160   -0.5560    6.1350 hc        1 1C5      0.094500
     52 H9         -1.4330    1.8880    4.2630 h1        1 1C5      0.109000
     53 H12         0.0330   -1.7110    1.8780 h1        1 1C5      0.152000
     54 H131        2.5660   -0.3390    1.4740 hc        1 1C5      0.087000
     55 H132        1.8360    0.4440    2.9210 hc        1 1C5      0.087000
     56 H141        1.8230   -2.6230    2.7090 hc        1 1C5      0.076500
     57 H142        3.3500   -1.7390    3.1210 hc        1 1C5      0.076500
     58 H17        -1.1980   -1.6210   -2.5120 h1        1 1C5      0.123000
     59 H181        1.7980   -0.8240   -2.4260 hc        1 1C5      0.081000
     60 H182        1.1070   -2.5050   -2.4570 hc        1 1C5      0.081000
     61 H20         1.9040    0.4880   -4.4260 ha        1 1C5      0.076500
     62 H21         1.6150    0.6780   -6.9020 ha        1 1C5      0.121500
     63 H23        -0.5680   -3.0630   -6.9010 ha        1 1C5      0.121500
     64 H24        -0.2760   -3.2270   -4.4370 ha        1 1C5      0.076500
     65 H261        0.4990    3.4520   -3.2400 hc        1 1C5      0.106333
     66 H262        0.1020    2.2150   -4.5180 hc        1 1C5      0.106333
     67 H263       -1.2120    2.8690   -3.4360 hc        1 1C5      0.106333
     68 HN11       -4.6110    1.1090    2.5310 hn        1 1C5      0.229000
     69 HN12       -2.9690    1.2790    2.1090 hn        1 1C5      0.229000
     70 HN2        -0.7060   -0.9090    4.0390 hn        1 1C5      0.293000
     71 HN3         0.7680    0.3980   -0.0920 hn        1 1C5      0.262000
     72 HN4        -1.3850    0.4060   -3.2200 hn        1 1C5      0.211000
     73 C11        -0.5390    0.3380    2.4030 c2        1 1C5      0.277000
     74 C16        -0.3310   -1.2650   -0.6040 c2        1 1C5      0.304000
     75 O2         -0.8270    1.4610    1.9270 o         1 1C5     -0.429000
     76 C25         0.1740    1.4500   -2.5130 c2        1 1C5      0.303000
     77 O5         -0.9280   -2.2850   -0.1920 o         1 1C5     -0.417000
@<TRIPOS>BOND
     1    1    2 1   
     2    1    6 1   
     3    1   37 1   
     4    1   38 1   
     5    2    3 1   
     6    2   39 1   
     7    2   40 1   
     8    3    4 1   
     9    3   41 1   
    10    3   42 1   
    11    4    5 1   
    12    4    7 1   
    13    4   43 1   
    14    5    6 1   
    15    5   44 1   
    16    5   45 1   
    17    6   46 1   
    18    6   47 1   
    19    7    8 1   
    20    7   48 1   
    21    7   49 1   
    22    8    9 1   
    23    8   50 1   
    24    8   51 1   
    25    9   10 1   
    26    9   25 1   
    27    9   52 1   
    28   10   24 1   
    29   10   28 1   
    30   11   12 1   
    31   11   26 1   
    32   11   53 1   
    33   11   73 1   
    34   12   13 1   
    35   12   54 1   
    36   12   55 1   
    37   13   14 1   
    38   13   56 1   
    39   13   57 1   
    40   14   29 1   
    41   14   30 1   
    42   15   16 1   
    43   15   27 1   
    44   15   58 1   
    45   15   74 1   
    46   16   17 1   
    47   16   59 1   
    48   16   60 1   
    49   17   18 1   
    50   17   22 1   
    51   18   19 1   
    52   18   61 1   
    53   19   20 1   
    54   19   62 1   
    55   20   21 1   
    56   20   32 1   
    57   21   22 1   
    58   21   63 1   
    59   22   64 1   
    60   23   65 1   
    61   23   66 1   
    62   23   67 1   
    63   23   76 1   
    64   24   68 1   
    65   24   69 1   
    66   25   70 1   
    67   25   73 1   
    68   26   71 1   
    69   26   74 1   
    70   27   72 1   
    71   27   76 1   
    72   31   76 1   
    73   33   36 1   
    74   34   36 1   
    75   35   36 1   
    76   73   75 1   
    77   74   77 1   
@<TRIPOS>SUBSTRUCTURE
     1 1C5         1 TEMP              0 ****  ****    0 ROOT
