@<TRIPOS>MOLECULE
1C5
   81    76     1     0     0
SMALL
bcc


@<TRIPOS>ATOM
      1 C1         -0.9550    3.2390    3.0310 c1        1 1C5     -0.223500
      2 C2         -0.6120    4.2980    3.4680 c1        1 1C5     -0.223500
      3 C3          1.3320   -0.5570    3.1830 c3        1 1C5     -0.224000
      4 C4          1.5040    0.6050    4.1270 c3        1 1C5     -0.196000
      5 C5          0.1890    1.9900    6.7150 c1        1 1C5     -0.051000
      6 C6         -1.0540    1.6010    6.1150 c3        1 1C5     -0.285000
      7 C7          1.5830    0.1580    5.5760 c3        1 1C5     -0.006000
      8 C8          1.4610    1.3150    6.5590 c3        1 1C5     -0.239000
      9 C9          4.6630   -0.0150    4.5140 c2        1 1C5     -0.140000
     10 C10         3.9990    0.0230    5.6950 c2        1 1C5      0.081000
     11 C12         7.6010    0.5420    6.1460 c2        1 1C5     -0.256000
     12 C13         8.0820   -0.8230    5.8120 c3        1 1C5     -0.164000
     13 C14         7.7150    2.3140   -0.2240 c1        1 1C5      0.227000
     14 C15         7.1990    0.0880    0.4310 c1        1 1C5      0.227000
     15 C17         8.2180    4.3060   10.8670 c2        1 1C5     -0.753000
     16 C18         7.1750    3.9000   11.8050 c3        1 1C5     -0.022000
     17 C19         6.2650    2.7640   11.3060 c3        1 1C5     -0.125000
     18 C20         6.7760    1.3950   11.8300 c3        1 1C5     -0.198000
     19 C21         6.2620    0.2140   11.0970 c2        1 1C5      0.297000
     20 C22         5.5130    0.4200    9.8190 c2        1 1C5      0.053000
     21 C23         5.6350    1.6370    9.2900 c1        1 1C5     -0.355000
     22 C24         6.2360    2.7150    9.8080 c2        1 1C5      0.076000
     23 C26        11.1150    4.3800   12.2990 c3        1 1C5     -0.247000
     24 N1          4.5010    0.5570    6.9600 n4        1 1C5     -0.058000
     25 N2          5.9900    0.4760    4.2310 n4        1 1C5     -0.052000
     26 N3          8.1760    1.2300    7.2350 n         1 1C5     -0.292000
     27 N4          9.3720    3.5200   10.6350 n4        1 1C5      0.094000
     28 O1          2.7910   -0.6150    5.8360 os        1 1C5     -0.210000
     29 O3          6.7740    0.0710    1.5330 o         1 1C5     -0.225500
     30 O4          8.1490    2.9730   -1.0830 o         1 1C5     -0.225500
     31 O6          9.9980    2.2310   12.4820 o         1 1C5     -0.276000
     32 O4P         4.8220   -0.6650    9.4400 os        1 1C5     -0.641000
     33 O1P         4.1650   -2.5000   11.0750 o         1 1C5     -0.666000
     34 O2P         6.4030   -2.5580    9.5050 o         1 1C5     -0.666000
     35 O3P         6.2100   -0.9840   11.5240 os        1 1C5     -0.431000
     36 P           5.3140   -2.0600   10.3210 p5        1 1C5      1.818000
     37 H11        -1.0830    0.6190    5.5760 hc        1 1C5      0.126000
     38 H12A       -1.2800    2.3130    2.6240 ha        1 1C5      0.225000
     39 H21A       -0.3150    5.2420    3.8560 ha        1 1C5      0.225000
     40 H22         1.3900   -0.2070    2.1250 hc        1 1C5      0.088667
     41 H31         2.1230   -1.3280    3.3530 hc        1 1C5      0.088667
     42 H32         0.3360   -1.0430    3.3370 hc        1 1C5      0.088667
     43 H4         -2.0670   -0.0300    3.1040 ha        1 1C5      0.001750
     44 H51        -1.5210    0.2380    3.4020 ha        1 1C5      0.001750
     45 H52         0.6270    1.3050    4.0250 hc        1 1C5      0.102500
     46 H61        -1.3290    2.4190    5.3810 hc        1 1C5      0.126000
     47 H62        -1.8530    1.6070    6.9080 hc        1 1C5      0.126000
     48 H71         2.4250    1.1880    3.8620 hc        1 1C5      0.102500
     49 H72         0.8050   -0.6370    5.7900 h1        1 1C5      0.158000
     50 H81         2.2120    2.1140    6.2940 hc        1 1C5      0.137000
     51 H82         1.7030    0.9460    7.6020 hc        1 1C5      0.137000
     52 H9          4.1430   -0.4740    3.6420 hx        1 1C5      0.214000
     53 H12         7.4060   -1.9350    2.6970 ha        1 1C5      0.001750
     54 H131        7.2230   -1.5330    5.7020 hc        1 1C5      0.088333
     55 H132        7.5420   -2.1240    3.3340 ha        1 1C5      0.001750
     56 H141        8.6700   -0.8190    4.8580 hc        1 1C5      0.088333
     57 H142        8.7410   -1.2380    6.6170 hc        1 1C5      0.088333
     58 H17         8.2980    5.3540   10.5740 hx        1 1C5      0.152000
     59 H181        6.5210    4.7960   11.9880 hc        1 1C5      0.081000
     60 H182        7.5880    3.5750   12.8030 hc        1 1C5      0.081000
     61 H20         6.5030    1.2980   12.9190 hc        1 1C5      0.172000
     62 H21         7.9070    1.3700   11.7880 hc        1 1C5      0.172000
     63 H23         6.7680    3.5080    9.2500 ha        1 1C5      0.216000
     64 H24         5.2320    2.9280   11.7220 hc        1 1C5      0.129000
     65 H261       10.5590    5.3480   12.3760 hc        1 1C5      0.130333
     66 H262       11.5570    4.1310   13.2970 hc        1 1C5      0.130333
     67 H263       11.9410    4.4920   11.5540 hc        1 1C5      0.130333
     68 HN11        5.4050    0.1160    7.2110 hn        1 1C5      0.290667
     69 HN12        4.6670    1.5820    6.8980 hn        1 1C5      0.290667
     70 HN2         5.9160    1.1420    3.4450 hn        1 1C5      0.263000
     71 HN3        10.1720    0.6770    6.7750 h5        1 1C5      0.152000
     72 HN4         9.1000    2.5950   10.2740 hn        1 1C5      0.227000
     73 C11         6.6770    1.2380    5.3810 c2        1 1C5      0.139000
     74 C16         9.5370    1.3190    7.4250 c2        1 1C5      0.279000
     75 O2          6.1260    2.3590    5.5640 o         1 1C5     -0.454000
     76 C25        10.1930    3.2880   11.8780 c2        1 1C5      0.207000
     77 O5          9.9920    2.0390    8.3360 o         1 1C5     -0.431000
     78 H13         3.8370    0.3580    7.7280 hn        1 1C5      0.290667
     79 H221        6.5750   -0.3140    3.9180 hn        1 1C5      0.263000
     80 H321        7.5850    1.9020    7.6820 hn        1 1C5      0.226000
     81 H42         9.9550    3.9700    9.9260 hn        1 1C5      0.227000
@<TRIPOS>BOND
     1    1    2 1   
     2    1   38 1   
     3    2   39 1   
     4    3    4 1   
     5    3   40 1   
     6    3   41 1   
     7    3   42 1   
     8    4    7 1   
     9    4   45 1   
    10    4   48 1   
    11    5    6 1   
    12    5    8 1   
    13    6   37 1   
    14    6   46 1   
    15    6   47 1   
    16    7    8 1   
    17    7   28 1   
    18    7   49 1   
    19    8   50 1   
    20    8   51 1   
    21    9   10 1   
    22    9   25 1   
    23    9   52 1   
    24   10   24 1   
    25   10   28 1   
    26   11   12 1   
    27   11   26 1   
    28   11   73 1   
    29   12   54 1   
    30   12   56 1   
    31   12   57 1   
    32   13   30 1   
    33   14   29 1   
    34   15   16 1   
    35   15   27 1   
    36   15   58 1   
    37   16   17 1   
    38   16   59 1   
    39   16   60 1   
    40   17   18 1   
    41   17   22 1   
    42   17   64 1   
    43   18   19 1   
    44   18   61 1   
    45   18   62 1   
    46   19   20 1   
    47   19   35 1   
    48   20   21 1   
    49   20   32 1   
    50   21   22 1   
    51   22   63 1   
    52   23   65 1   
    53   23   66 1   
    54   23   67 1   
    55   23   76 1   
    56   24   68 1   
    57   24   69 1   
    58   24   78 1   
    59   25   70 1   
    60   25   73 1   
    61   25   79 1   
    62   26   74 1   
    63   26   80 1   
    64   27   72 1   
    65   27   76 1   
    66   27   81 1   
    67   31   76 1   
    68   32   36 1   
    69   33   36 1   
    70   34   36 1   
    71   35   36 1   
    72   43   44 1   
    73   53   55 1   
    74   71   74 1   
    75   73   75 1   
    76   74   77 1   
@<TRIPOS>SUBSTRUCTURE
     1 1C5         1 TEMP              0 ****  ****    0 ROOT
