@<TRIPOS>MOLECULE
1C6
   42    44     1     0     0
SMALL
bcc


@<TRIPOS>ATOM
      1 S          -0.3240    0.8860   -0.4380 ss        1 1C6     -0.122300
      2 CB         -1.1900    0.1940    0.9540 c3        1 1C6     -0.062600
      3 CG         -2.6460    0.3780    0.6660 ca        1 1C6      0.395600
      4 CD1        -3.3680   -0.6550    0.0170 ca        1 1C6     -0.165600
      5 C3         -2.7130   -1.9110   -0.4090 c3        1 1C6     -0.060800
      6 CE1        -4.7420   -0.4400   -0.2190 ca        1 1C6      0.116100
      7 O2         -5.4550   -1.3810   -0.9520 os        1 1C6     -0.342900
      8 C2         -6.2500   -2.2490   -0.1420 c3        1 1C6      0.115700
      9 CZ         -5.3550    0.7560    0.1840 ca        1 1C6     -0.191600
     10 C1         -6.7890    1.0290   -0.0380 c3        1 1C6     -0.052800
     11 CE2        -4.5320    1.7110    0.8220 ca        1 1C6      0.397200
     12 N1         -3.2260    1.5410    1.0620 nb        1 1C6     -0.649000
     13 CF1         1.2950    0.4730   -0.1280 cc        1 1C6      0.397700
     14 NV          2.3220    0.9120   -0.9970 na        1 1C6     -0.271300
     15 CX2         3.5210    0.4200   -0.4760 ca        1 1C6     -0.035200
     16 CS2         3.1600   -0.3280    0.7180 ca        1 1C6      0.046400
     17 NE1         1.7650   -0.2710    0.8980 nd        1 1C6     -0.583100
     18 CE3         4.8450    0.5350   -0.9030 ca        1 1C6     -0.172000
     19 CZ3         5.8110   -0.1090   -0.1200 ca        1 1C6      0.139100
     20 O3          7.1050    0.0380   -0.5910 os        1 1C6     -0.329900
     21 C4          8.1310   -0.5820    0.1730 c3        1 1C6      0.114700
     22 CH2         5.4810   -0.8400    1.0420 ca        1 1C6     -0.217000
     23 CZ2         4.1650   -0.9530    1.4650 ca        1 1C6     -0.041000
     24 H1         -0.9450   -0.8890    1.0790 h1        1 1C6      0.100200
     25 H2         -0.8820    0.7200    1.8930 h1        1 1C6      0.100200
     26 H3         -2.3910   -2.5040    0.4840 hc        1 1C6      0.058033
     27 H4         -3.4120   -2.5380   -1.0170 hc        1 1C6      0.058033
     28 H5         -1.8080   -1.6860   -1.0290 hc        1 1C6      0.058033
     29 H6         -6.9850   -1.6580    0.4570 h1        1 1C6      0.043367
     30 H7         -6.7720   -2.9000   -0.8860 h1        1 1C6      0.043367
     31 H8         -5.5960   -2.8560    0.5290 h1        1 1C6      0.043367
     32 H9         -7.3770    0.7670    0.8780 hc        1 1C6      0.052367
     33 H10        -6.9550    2.1110   -0.2640 hc        1 1C6      0.052367
     34 H11        -7.1780    0.4200   -0.8930 hc        1 1C6      0.052367
     35 H12        -4.9580    2.6750    1.1570 h4        1 1C6      0.027100
     36 H13         2.2140    1.4950   -1.7820 hn        1 1C6      0.313700
     37 H15         5.1320    1.0950   -1.8000 ha        1 1C6      0.154000
     38 H16         9.0640   -0.3230   -0.3880 h1        1 1C6      0.044367
     39 H17         8.1650   -0.1620    1.2080 h1        1 1C6      0.044367
     40 H18         7.9870   -1.6900    0.2050 h1        1 1C6      0.044367
     41 H19         6.2720   -1.3290    1.6270 ha        1 1C6      0.138000
     42 H20         3.9120   -1.5230    2.3700 ha        1 1C6      0.147000
@<TRIPOS>BOND
     1    1    2 1   
     2    1   13 1   
     3    2    3 1   
     4    2   24 1   
     5    2   25 1   
     6    3    4 ar  
     7    3   12 ar  
     8    4    5 1   
     9    4    6 ar  
    10    5   26 1   
    11    5   27 1   
    12    5   28 1   
    13    6    7 1   
    14    6    9 ar  
    15    7    8 1   
    16    8   29 1   
    17    8   30 1   
    18    8   31 1   
    19    9   10 1   
    20    9   11 ar  
    21   10   32 1   
    22   10   33 1   
    23   10   34 1   
    24   11   12 ar  
    25   11   35 1   
    26   13   14 1   
    27   13   17 2   
    28   14   15 1   
    29   14   36 1   
    30   15   16 ar  
    31   15   18 ar  
    32   16   17 1   
    33   16   23 ar  
    34   18   19 ar  
    35   18   37 1   
    36   19   20 1   
    37   19   22 ar  
    38   20   21 1   
    39   21   38 1   
    40   21   39 1   
    41   21   40 1   
    42   22   23 ar  
    43   22   41 1   
    44   23   42 1   
@<TRIPOS>SUBSTRUCTURE
     1 1C6         1 TEMP              0 ****  ****    0 ROOT
