@<TRIPOS>MOLECULE
1C6
   42    44     1     0     0
SMALL
bcc


@<TRIPOS>ATOM
      1 S           0.3260    0.1790   -0.1650 ss        1 1C6     -0.122300
      2 CB          2.1030    0.1800   -0.0720 c3        1 1C6     -0.062600
      3 CG          2.4400    0.0720    1.3810 ca        1 1C6      0.395600
      4 CD1         2.6560   -1.2050    1.9570 ca        1 1C6     -0.165600
      5 C3          2.5330   -2.4460    1.1630 c3        1 1C6     -0.060800
      6 CE1         2.9850   -1.2530    3.3280 ca        1 1C6      0.116100
      7 O2          3.0930   -2.4900    3.9530 os        1 1C6     -0.342900
      8 C2          4.4430   -2.9200    4.1330 c3        1 1C6      0.115700
      9 CZ          3.0950   -0.0710    4.0760 ca        1 1C6     -0.191600
     10 C1          3.4380   -0.0680    5.5120 c3        1 1C6     -0.052800
     11 CE2         2.8570    1.1410    3.3910 ca        1 1C6      0.397200
     12 N1          2.5430    1.2250    2.0920 nb        1 1C6     -0.649000
     13 CF1         0.0280    0.1170   -1.8370 cc        1 1C6      0.397700
     14 NV         -1.2980    0.1670   -2.3280 na        1 1C6     -0.271300
     15 CX2        -1.2100    0.1020   -3.7200 ca        1 1C6     -0.035200
     16 CS2         0.2080    0.0010   -4.0250 ca        1 1C6      0.046400
     17 NE1         0.9440    0.0130   -2.8250 nd        1 1C6     -0.583100
     18 CE3        -2.1820    0.1120   -4.7210 ca        1 1C6     -0.172000
     19 CZ3        -1.7200    0.0220   -6.0410 ca        1 1C6      0.139100
     20 O3         -2.7260    0.0360   -6.9910 os        1 1C6     -0.329900
     21 C4         -2.3160   -0.0370   -8.3500 c3        1 1C6      0.114700
     22 CH2        -0.3480   -0.0760   -6.3570 ca        1 1C6     -0.217000
     23 CZ2         0.6170   -0.0870   -5.3610 ca        1 1C6     -0.041000
     24 H1          2.5330   -0.6790   -0.6430 h1        1 1C6      0.100200
     25 H2          2.5070    1.1210   -0.5240 h1        1 1C6      0.100200
     26 H3          1.5460   -2.4740    0.6330 hc        1 1C6      0.058033
     27 H4          2.6070   -3.3490    1.8200 hc        1 1C6      0.058033
     28 H5          3.3470   -2.4990    0.3960 hc        1 1C6      0.058033
     29 H6          5.0080   -2.1790    4.7500 h1        1 1C6      0.043367
     30 H7          4.9380   -3.0630    3.1430 h1        1 1C6      0.043367
     31 H8          4.3400   -3.8940    4.6730 h1        1 1C6      0.043367
     32 H9          4.5380    0.0980    5.6440 hc        1 1C6      0.052367
     33 H10         2.8930    0.7490    6.0470 hc        1 1C6      0.052367
     34 H11         3.1700   -1.0470    5.9840 hc        1 1C6      0.052367
     35 H12         2.9240    2.1050    3.9290 h4        1 1C6      0.027100
     36 H13        -2.1160    0.2810   -1.7920 hn        1 1C6      0.313700
     37 H15        -3.2550    0.1870   -4.5070 ha        1 1C6      0.154000
     38 H16        -3.2820   -0.0000   -8.9150 h1        1 1C6      0.044367
     39 H17        -1.6710    0.8360   -8.6170 h1        1 1C6      0.044367
     40 H18        -1.7790   -0.9960   -8.5500 h1        1 1C6      0.044367
     41 H19        -0.0290   -0.1450   -7.4070 ha        1 1C6      0.138000
     42 H20         1.6850   -0.1640   -5.6120 ha        1 1C6      0.147000
@<TRIPOS>BOND
     1    1    2 1   
     2    1   13 1   
     3    2    3 1   
     4    2   24 1   
     5    2   25 1   
     6    3    4 ar  
     7    3   12 ar  
     8    4    5 1   
     9    4    6 ar  
    10    5   26 1   
    11    5   27 1   
    12    5   28 1   
    13    6    7 1   
    14    6    9 ar  
    15    7    8 1   
    16    8   29 1   
    17    8   30 1   
    18    8   31 1   
    19    9   10 1   
    20    9   11 ar  
    21   10   32 1   
    22   10   33 1   
    23   10   34 1   
    24   11   12 ar  
    25   11   35 1   
    26   13   14 1   
    27   13   17 2   
    28   14   15 1   
    29   14   36 1   
    30   15   16 ar  
    31   15   18 ar  
    32   16   17 1   
    33   16   23 ar  
    34   18   19 ar  
    35   18   37 1   
    36   19   20 1   
    37   19   22 ar  
    38   20   21 1   
    39   21   38 1   
    40   21   39 1   
    41   21   40 1   
    42   22   23 ar  
    43   22   41 1   
    44   23   42 1   
@<TRIPOS>SUBSTRUCTURE
     1 1C6         1 TEMP              0 ****  ****    0 ROOT
