@<TRIPOS>MOLECULE
1C6
   42    35     1     0     0
SMALL
bcc


@<TRIPOS>ATOM
      1 S          -0.0930   -1.2060   -0.1660 ss        1 1C6      0.277000
      2 CB          1.4300   -0.3290   -0.0490 c3        1 1C6     -0.227000
      3 CG          1.8510   -0.2300    1.4090 c2        1 1C6     -0.027000
      4 CD1         3.0510    0.4020    1.7440 c2        1 1C6     -0.093000
      5 C3          3.8500    1.1410    0.6630 c3        1 1C6     -0.184000
      6 CE1         3.4770    0.4200    3.0500 c1        1 1C6      0.071000
      7 O2          4.6660    1.1060    3.3970 os        1 1C6     -0.225000
      8 C2          5.8240    0.2740    3.4330 c3        1 1C6     -0.074000
      9 CZ          2.7170   -0.1890    4.0310 c1        1 1C6     -0.039667
     10 C1          3.1170   -0.0710    5.4760 c2        1 1C6     -0.178000
     11 CE2         1.5220   -0.8170    3.6920 c1        1 1C6     -0.108333
     12 N1          1.0980   -0.8330    2.3840 n1        1 1C6     -0.123000
     13 CF1        -1.0320   -0.5990   -1.6000 c2        1 1C6     -0.152000
     14 NV         -1.4180    0.0630   -2.7370 n2        1 1C6     -0.229000
     15 CX2        -2.7650   -0.1710   -2.9300 c1        1 1C6      0.010000
     16 CS2        -3.2030   -0.9730   -1.9170 c1        1 1C6     -0.039667
     17 NE1        -2.1270   -1.2390   -1.0910 n1        1 1C6     -0.154000
     18 CE3        -3.6760    0.2640   -3.9420 c1        1 1C6     -0.172000
     19 CZ3        -5.0080   -0.1280   -3.8940 c1        1 1C6     -0.039667
     20 O3         -5.8110   -0.1820   -5.0600 o         1 1C6     -0.213000
     21 C4         -6.4670    1.0180   -5.3530 c3        1 1C6     -0.075000
     22 CH2        -5.4580   -0.9480   -2.8580 c1        1 1C6     -0.108333
     23 CZ2        -4.5660   -1.3750   -1.8670 c1        1 1C6     -0.108333
     24 H1          2.1270   -0.8080   -0.5610 h1        1 1C6      0.140500
     25 H2          1.3160    0.5680   -0.4140 h1        1 1C6      0.140500
     26 H3          4.3130    0.4750    0.0770 hc        1 1C6      0.096667
     27 H4          3.2330    1.6910    0.1150 hc        1 1C6      0.096667
     28 H5          4.5180    1.7240    1.0890 hc        1 1C6      0.096667
     29 H6          6.2650    0.3670    4.3050 h1        1 1C6      0.082667
     30 H7          5.5550   -0.6820    3.2960 h1        1 1C6      0.082667
     31 H8          6.4590    0.5520    2.7040 h1        1 1C6      0.082667
     32 H9          3.4820    0.8120    5.6400 ha        1 1C6      0.091667
     33 H10         2.3300   -0.2100    6.0440 ha        1 1C6      0.091667
     34 H11         3.7890   -0.7430    5.6820 ha        1 1C6      0.091667
     35 H12         0.9740   -1.2540    4.3970 ha        1 1C6      0.150000
     36 H13        -0.8480    0.5510   -3.3160 DU        1 1C6      0.263000
     37 H15        -3.3650    0.8370   -4.6600 ha        1 1C6      0.153000
     38 H16        -7.0590    1.2510   -4.6180 h1        1 1C6      0.083667
     39 H17        -5.7980    1.7380   -5.4810 h1        1 1C6      0.083667
     40 H18        -6.9810    0.9140   -6.1560 h1        1 1C6      0.083667
     41 H19        -6.4030   -1.2270   -2.8240 ha        1 1C6      0.150000
     42 H20        -4.8830   -1.9560   -1.1330 ha        1 1C6      0.150000
@<TRIPOS>BOND
     1    1    2 1   
     2    1   13 1   
     3    2    3 1   
     4    2   24 1   
     5    2   25 1   
     6    3    4 1   
     7    3   12 1   
     8    4    5 1   
     9    4    6 1   
    10    5   26 1   
    11    5   27 1   
    12    5   28 1   
    13    6    7 1   
    14    7    8 1   
    15    8   29 1   
    16    8   30 1   
    17    8   31 1   
    18    9   11 1   
    19   10   32 1   
    20   10   33 1   
    21   10   34 1   
    22   11   35 1   
    23   13   14 1   
    24   13   17 1   
    25   14   15 1   
    26   15   18 1   
    27   16   23 1   
    28   18   37 1   
    29   19   22 1   
    30   20   21 1   
    31   21   38 1   
    32   21   39 1   
    33   21   40 1   
    34   22   41 1   
    35   23   42 1   
@<TRIPOS>SUBSTRUCTURE
     1 1C6         1 TEMP              0 ****  ****    0 ROOT
