@<TRIPOS>MOLECULE
1C6
   42    44     1     0     0
SMALL
bcc


@<TRIPOS>ATOM
      1 S           0.3220    0.1790   -0.1640 ss        1 1C6     -0.122300
      2 CB          2.0990    0.1880   -0.0690 c3        1 1C6     -0.062600
      3 CG          2.4340    0.0760    1.3840 ca        1 1C6      0.395600
      4 CD1         2.6560   -1.2010    1.9560 ca        1 1C6     -0.165600
      5 C3          2.5410   -2.4400    1.1570 c3        1 1C6     -0.060800
      6 CE1         2.9840   -1.2520    3.3270 ca        1 1C6      0.116100
      7 O2          3.0970   -2.4910    3.9470 os        1 1C6     -0.342900
      8 C2          4.4490   -2.9140    4.1290 c3        1 1C6      0.115700
      9 CZ          3.0870   -0.0720    4.0800 ca        1 1C6     -0.191600
     10 C1          3.4280   -0.0730    5.5160 c3        1 1C6     -0.052800
     11 CE2         2.8440    1.1410    3.3980 ca        1 1C6      0.397200
     12 N1          2.5310    1.2280    2.1000 nb        1 1C6     -0.649000
     13 CF1         0.0270    0.1170   -1.8360 cc        1 1C6      0.397700
     14 NV         -1.3000    0.1600   -2.3280 na        1 1C6     -0.271300
     15 CX2        -1.2100    0.0960   -3.7200 ca        1 1C6     -0.035200
     16 CS2         0.2090    0.0040   -4.0250 ca        1 1C6      0.046400
     17 NE1         0.9440    0.0190   -2.8240 nd        1 1C6     -0.583100
     18 CE3        -2.1810    0.1020   -4.7230 ca        1 1C6     -0.172000
     19 CZ3        -1.7170    0.0150   -6.0420 ca        1 1C6      0.139100
     20 O3         -2.7230    0.0250   -6.9930 os        1 1C6     -0.329900
     21 C4         -2.3100   -0.0460   -8.3520 c3        1 1C6      0.114700
     22 CH2        -0.3440   -0.0750   -6.3570 ca        1 1C6     -0.217000
     23 CZ2         0.6200   -0.0810   -5.3600 ca        1 1C6     -0.041000
     24 H1          2.5340   -0.6670   -0.6420 h1        1 1C6      0.100200
     25 H2          2.4990    1.1330   -0.5170 h1        1 1C6      0.100200
     26 H3          1.5550   -2.4710    0.6270 hc        1 1C6      0.058033
     27 H4          2.6190   -3.3450    1.8110 hc        1 1C6      0.058033
     28 H5          3.3560   -2.4860    0.3910 hc        1 1C6      0.058033
     29 H6          5.0100   -2.1730    4.7490 h1        1 1C6      0.043367
     30 H7          4.9470   -3.0520    3.1380 h1        1 1C6      0.043367
     31 H8          4.3510   -3.8910    4.6650 h1        1 1C6      0.043367
     32 H9          4.5270    0.0990    5.6510 hc        1 1C6      0.052367
     33 H10         2.8780    0.7390    6.0530 hc        1 1C6      0.052367
     34 H11         3.1650   -1.0540    5.9840 hc        1 1C6      0.052367
     35 H12         2.9050    2.1030    3.9400 h4        1 1C6      0.027100
     36 H13        -2.1180    0.2700   -1.7930 hn        1 1C6      0.313700
     37 H15        -3.2540    0.1710   -4.5090 ha        1 1C6      0.154000
     38 H16        -3.2760   -0.0150   -8.9170 h1        1 1C6      0.044367
     39 H17        -1.6710    0.8300   -8.6180 h1        1 1C6      0.044367
     40 H18        -1.7680   -1.0020   -8.5510 h1        1 1C6      0.044367
     41 H19        -0.0240   -0.1410   -7.4070 ha        1 1C6      0.138000
     42 H20         1.6880   -0.1520   -5.6100 ha        1 1C6      0.147000
@<TRIPOS>BOND
     1    1    2 1   
     2    1   13 1   
     3    2    3 1   
     4    2   24 1   
     5    2   25 1   
     6    3    4 ar  
     7    3   12 ar  
     8    4    5 1   
     9    4    6 ar  
    10    5   26 1   
    11    5   27 1   
    12    5   28 1   
    13    6    7 1   
    14    6    9 ar  
    15    7    8 1   
    16    8   29 1   
    17    8   30 1   
    18    8   31 1   
    19    9   10 1   
    20    9   11 ar  
    21   10   32 1   
    22   10   33 1   
    23   10   34 1   
    24   11   12 ar  
    25   11   35 1   
    26   13   14 1   
    27   13   17 2   
    28   14   15 1   
    29   14   36 1   
    30   15   16 ar  
    31   15   18 ar  
    32   16   17 1   
    33   16   23 ar  
    34   18   19 ar  
    35   18   37 1   
    36   19   20 1   
    37   19   22 ar  
    38   20   21 1   
    39   21   38 1   
    40   21   39 1   
    41   21   40 1   
    42   22   23 ar  
    43   22   41 1   
    44   23   42 1   
@<TRIPOS>SUBSTRUCTURE
     1 1C6         1 TEMP              0 ****  ****    0 ROOT
