@<TRIPOS>MOLECULE
1C7
   56    60     1     0     0
SMALL
bcc


@<TRIPOS>ATOM
      1 O18         3.8960   -3.1230    0.2840 o         1 1C7     -0.614500
      2 C8          3.0010   -2.2650    0.2090 c         1 1C7      0.704500
      3 N7          1.7140   -2.5170    0.6810 n         1 1C7     -0.354000
      4 C19         1.3670   -3.7900    1.2540 c3        1 1C7      0.073300
      5 C2          0.7490   -1.5030    0.6200 ca        1 1C7     -0.208000
      6 C9          3.2800   -0.8920   -0.4350 c3        1 1C7      0.139500
      7 C16         3.0980   -1.0300   -1.9580 c3        1 1C7     -0.106400
      8 C17         4.2310   -1.8080   -2.5740 c3        1 1C7     -0.102100
      9 N10         2.5010    0.1690    0.1960 nh        1 1C7     -0.732300
     10 C11         2.8970    1.5420   -0.1190 c3        1 1C7      0.214500
     11 C15         2.4730    2.5760    0.9510 c3        1 1C7     -0.082400
     12 C14         3.5560    3.6470    0.9870 c3        1 1C7     -0.080900
     13 C13         4.6540    3.2210    0.0230 c3        1 1C7     -0.080900
     14 C12         4.4230    1.7470   -0.2650 c3        1 1C7     -0.082400
     15 C3          1.1230   -0.1300    0.3140 ca        1 1C7      0.657200
     16 N4          0.1760    0.8380    0.2060 nb        1 1C7     -0.745000
     17 C5         -1.1360    0.4810    0.4560 ca        1 1C7      0.747500
     18 N6         -1.5670   -0.7840    0.7870 nb        1 1C7     -0.693000
     19 C1         -0.6250   -1.7390    0.8480 ca        1 1C7      0.421200
     20 N20        -2.1030    1.5150    0.3580 na        1 1C7     -0.239700
     21 C24        -1.8240    2.8890    0.4680 cc        1 1C7     -0.218600
     22 C23        -3.0410    3.5500    0.2690 cd        1 1C7      0.289200
     23 N22        -4.0620    2.6280    0.0270 nd        1 1C7     -0.649000
     24 C21        -3.4960    1.4020    0.0800 cc        1 1C7      0.492000
     25 C25        -4.2040    0.1370   -0.1390 ca        1 1C7     -0.120500
     26 C30        -4.5720   -0.6670    0.9460 ca        1 1C7     -0.082500
     27 C29        -5.2850   -1.8440    0.7220 ca        1 1C7     -0.141500
     28 C28        -5.6310   -2.2190   -0.5770 ca        1 1C7     -0.117000
     29 C27        -5.2660   -1.4150   -1.6570 ca        1 1C7     -0.141500
     30 C26        -4.5550   -0.2350   -1.4420 ca        1 1C7     -0.082500
     31 H1          0.6390   -4.3280    0.5880 h1        1 1C7      0.056700
     32 H2          2.2940   -4.4150    1.3640 h1        1 1C7      0.056700
     33 H3          0.8990   -3.6420    2.2640 h1        1 1C7      0.056700
     34 H4          4.3720   -0.6810   -0.2220 h1        1 1C7      0.107700
     35 H5          2.1190   -1.5320   -2.1760 hc        1 1C7      0.055700
     36 H6          3.0590   -0.0060   -2.4170 hc        1 1C7      0.055700
     37 H7          4.0270   -1.9830   -3.6580 hc        1 1C7      0.046700
     38 H8          5.1920   -1.2460   -2.4810 hc        1 1C7      0.046700
     39 H9          4.3540   -2.7980   -2.0680 hc        1 1C7      0.046700
     40 H10         2.4200    1.8450   -1.1010 h1        1 1C7      0.048700
     41 H11         1.4880    3.0300    0.6780 hc        1 1C7      0.055200
     42 H12         2.3630    2.0980    1.9560 hc        1 1C7      0.055200
     43 H13         3.1400    4.6430    0.6940 hc        1 1C7      0.046200
     44 H14         3.9640    3.7490    2.0240 hc        1 1C7      0.046200
     45 H15         4.5950    3.8160   -0.9240 hc        1 1C7      0.046200
     46 H16         5.6690    3.3870    0.4620 hc        1 1C7      0.046200
     47 H17         4.9890    1.1350    0.4830 hc        1 1C7      0.055200
     48 H18         4.7660    1.4630   -1.2890 hc        1 1C7      0.055200
     49 H19        -1.0040   -2.7460    1.1040 h4        1 1C7      0.040100
     50 H20        -0.8230    3.2660    0.6720 h4        1 1C7      0.191000
     51 H21        -3.2430    4.6210    0.2860 h4        1 1C7      0.046100
     52 H22        -4.2940   -0.3720    1.9680 ha        1 1C7      0.141500
     53 H23        -5.5770   -2.4750    1.5730 ha        1 1C7      0.132000
     54 H24        -6.1950   -3.1470   -0.7490 ha        1 1C7      0.130000
     55 H25        -5.5430   -1.7080   -2.6800 ha        1 1C7      0.132000
     56 H26        -4.2780    0.4070   -2.2910 ha        1 1C7      0.141500
@<TRIPOS>BOND
     1    1    2 2   
     2    2    3 1   
     3    2    6 1   
     4    3    4 1   
     5    3    5 1   
     6    4   31 1   
     7    4   32 1   
     8    4   33 1   
     9    5   15 ar  
    10    5   19 ar  
    11    6    7 1   
    12    6    9 1   
    13    6   34 1   
    14    7    8 1   
    15    7   35 1   
    16    7   36 1   
    17    8   37 1   
    18    8   38 1   
    19    8   39 1   
    20    9   10 1   
    21    9   15 1   
    22   10   11 1   
    23   10   14 1   
    24   10   40 1   
    25   11   12 1   
    26   11   41 1   
    27   11   42 1   
    28   12   13 1   
    29   12   43 1   
    30   12   44 1   
    31   13   14 1   
    32   13   45 1   
    33   13   46 1   
    34   14   47 1   
    35   14   48 1   
    36   15   16 ar  
    37   16   17 ar  
    38   17   18 ar  
    39   17   20 1   
    40   18   19 ar  
    41   19   49 1   
    42   20   21 1   
    43   20   24 1   
    44   21   22 2   
    45   21   50 1   
    46   22   23 1   
    47   22   51 1   
    48   23   24 2   
    49   24   25 1   
    50   25   26 ar  
    51   25   30 ar  
    52   26   27 ar  
    53   26   52 1   
    54   27   28 ar  
    55   27   53 1   
    56   28   29 ar  
    57   28   54 1   
    58   29   30 ar  
    59   29   55 1   
    60   30   56 1   
@<TRIPOS>SUBSTRUCTURE
     1 1C7         1 TEMP              0 ****  ****    0 ROOT
