@<TRIPOS>MOLECULE
1C7
   56    60     1     0     0
SMALL
bcc


@<TRIPOS>ATOM
      1 O18        -0.0350    0.2420   -0.0920 o         1 1C7     -0.614500
      2 C8          1.1960    0.0900   -0.0230 c         1 1C7      0.704500
      3 N7          1.8220   -0.2270    1.1810 n         1 1C7     -0.354000
      4 C19         1.0660   -0.3710    2.3970 c3        1 1C7      0.073300
      5 C2          3.2070   -0.4360    1.2020 ca        1 1C7     -0.208000
      6 C9          2.0820    0.2740   -1.2720 c3        1 1C7      0.139500
      7 C16         2.4030    1.7730   -1.4170 c3        1 1C7     -0.106400
      8 C17         1.1950    2.5480   -1.8740 c3        1 1C7     -0.102100
      9 N10         3.2390   -0.6150   -1.2500 nh        1 1C7     -0.732300
     10 C11         3.9810   -0.7490   -2.5050 c3        1 1C7      0.214500
     11 C15         4.7910   -2.0630   -2.6150 c3        1 1C7     -0.082400
     12 C14         4.7790   -2.4690   -4.0830 c3        1 1C7     -0.080900
     13 C13         3.9060   -1.4700   -4.8290 c3        1 1C7     -0.080900
     14 C12         3.0950   -0.7380   -3.7720 c3        1 1C7     -0.082400
     15 C3          3.9620   -0.5770   -0.0340 ca        1 1C7      0.657200
     16 N4          5.3120   -0.7280   -0.0080 nb        1 1C7     -0.745000
     17 C5          5.9240   -0.8010    1.2300 ca        1 1C7      0.747500
     18 N6          5.2790   -0.7130    2.4430 nb        1 1C7     -0.693000
     19 C1          3.9500   -0.5220    2.4000 ca        1 1C7      0.421200
     20 N20         7.3320   -0.9810    1.2300 na        1 1C7     -0.239700
     21 C24         8.0740   -1.5170    0.1620 cc        1 1C7     -0.218600
     22 C23         9.4140   -1.4760    0.5610 cd        1 1C7      0.289200
     23 N22         9.5250   -0.9190    1.8380 nd        1 1C7     -0.649000
     24 C21         8.2700   -0.6210    2.2400 cc        1 1C7      0.492000
     25 C25         7.9210    0.0050    3.5200 ca        1 1C7     -0.120500
     26 C30         7.4110   -0.7660    4.5690 ca        1 1C7     -0.082500
     27 C29         7.1270   -0.1630    5.7950 ca        1 1C7     -0.141500
     28 C28         7.3530    1.2020    5.9740 ca        1 1C7     -0.117000
     29 C27         7.8660    1.9680    4.9270 ca        1 1C7     -0.141500
     30 C26         8.1540    1.3730    3.6990 ca        1 1C7     -0.082500
     31 H1         -0.0310   -0.3260    2.1620 h1        1 1C7      0.056700
     32 H2          1.3230    0.4570    3.1110 h1        1 1C7      0.056700
     33 H3          1.3000   -1.3570    2.8800 h1        1 1C7      0.056700
     34 H4          1.4330   -0.0390   -2.1460 h1        1 1C7      0.107700
     35 H5          3.2300    1.9010   -2.1660 hc        1 1C7      0.055700
     36 H6          2.7730    2.1760   -0.4380 hc        1 1C7      0.055700
     37 H7          0.9030    2.2480   -2.9100 hc        1 1C7      0.046700
     38 H8          1.4210    3.6420   -1.8740 hc        1 1C7      0.046700
     39 H9          0.3230    2.3620   -1.1980 hc        1 1C7      0.046700
     40 H10         4.7090    0.1140   -2.5940 h1        1 1C7      0.048700
     41 H11         5.8400   -1.8990   -2.2660 hc        1 1C7      0.055200
     42 H12         4.3420   -2.8690   -1.9830 hc        1 1C7      0.055200
     43 H13         5.8160   -2.4750   -4.5010 hc        1 1C7      0.046200
     44 H14         4.3690   -3.5050   -4.1940 hc        1 1C7      0.046200
     45 H15         4.5420   -0.7470   -5.4000 hc        1 1C7      0.046200
     46 H16         3.2360   -1.9810   -5.5620 hc        1 1C7      0.046200
     47 H17         2.8560    0.3080   -4.0800 hc        1 1C7      0.055200
     48 H18         2.1340   -1.2880   -3.6020 hc        1 1C7      0.055200
     49 H19         3.4630   -0.4430    3.3900 h4        1 1C7      0.040100
     50 H20         7.6040   -1.8690   -0.7550 h4        1 1C7      0.191000
     51 H21        10.2960   -1.8090    0.0150 h4        1 1C7      0.046100
     52 H22         7.2290   -1.8410    4.4250 ha        1 1C7      0.141500
     53 H23         6.7280   -0.7680    6.6210 ha        1 1C7      0.132000
     54 H24         7.1300    1.6730    6.9420 ha        1 1C7      0.130000
     55 H25         8.0490    3.0430    5.0690 ha        1 1C7      0.132000
     56 H26         8.5710    1.9730    2.8770 ha        1 1C7      0.141500
@<TRIPOS>BOND
     1    1    2 2   
     2    2    3 1   
     3    2    6 1   
     4    3    4 1   
     5    3    5 1   
     6    4   31 1   
     7    4   32 1   
     8    4   33 1   
     9    5   15 ar  
    10    5   19 ar  
    11    6    7 1   
    12    6    9 1   
    13    6   34 1   
    14    7    8 1   
    15    7   35 1   
    16    7   36 1   
    17    8   37 1   
    18    8   38 1   
    19    8   39 1   
    20    9   10 1   
    21    9   15 1   
    22   10   11 1   
    23   10   14 1   
    24   10   40 1   
    25   11   12 1   
    26   11   41 1   
    27   11   42 1   
    28   12   13 1   
    29   12   43 1   
    30   12   44 1   
    31   13   14 1   
    32   13   45 1   
    33   13   46 1   
    34   14   47 1   
    35   14   48 1   
    36   15   16 ar  
    37   16   17 ar  
    38   17   18 ar  
    39   17   20 1   
    40   18   19 ar  
    41   19   49 1   
    42   20   21 1   
    43   20   24 1   
    44   21   22 2   
    45   21   50 1   
    46   22   23 1   
    47   22   51 1   
    48   23   24 2   
    49   24   25 1   
    50   25   26 ar  
    51   25   30 ar  
    52   26   27 ar  
    53   26   52 1   
    54   27   28 ar  
    55   27   53 1   
    56   28   29 ar  
    57   28   54 1   
    58   29   30 ar  
    59   29   55 1   
    60   30   56 1   
@<TRIPOS>SUBSTRUCTURE
     1 1C7         1 TEMP              0 ****  ****    0 ROOT
