@<TRIPOS>MOLECULE
1C7
   56    60     1     0     0
SMALL
bcc


@<TRIPOS>ATOM
      1 O18        -0.0380    0.2070   -0.0900 o         1 1C7     -0.614500
      2 C8          1.1940    0.0660   -0.0220 c         1 1C7      0.704500
      3 N7          1.8230   -0.2490    1.1810 n         1 1C7     -0.354000
      4 C19         1.0700   -0.4030    2.3970 c3        1 1C7      0.073300
      5 C2          3.2100   -0.4470    1.2000 ca        1 1C7     -0.208000
      6 C9          2.0780    0.2610   -1.2710 c3        1 1C7      0.139500
      7 C16         2.3860    1.7630   -1.4120 c3        1 1C7     -0.106400
      8 C17         1.1710    2.5290   -1.8670 c3        1 1C7     -0.102100
      9 N10         3.2420   -0.6190   -1.2520 nh        1 1C7     -0.732300
     10 C11         3.9840   -0.7430   -2.5070 c3        1 1C7      0.214500
     11 C15         4.8040   -2.0510   -2.6220 c3        1 1C7     -0.082400
     12 C14         4.7950   -2.4530   -4.0910 c3        1 1C7     -0.080900
     13 C13         3.9140   -1.4580   -4.8340 c3        1 1C7     -0.080900
     14 C12         3.0980   -0.7370   -3.7740 c3        1 1C7     -0.082400
     15 C3          3.9660   -0.5790   -0.0360 ca        1 1C7      0.657200
     16 N4          5.3170   -0.7190   -0.0110 nb        1 1C7     -0.745000
     17 C5          5.9300   -0.7900    1.2260 ca        1 1C7      0.747500
     18 N6          5.2850   -0.7110    2.4390 nb        1 1C7     -0.693000
     19 C1          3.9550   -0.5310    2.3970 ca        1 1C7      0.421200
     20 N20         7.3390   -0.9580    1.2240 na        1 1C7     -0.239700
     21 C24         8.0850   -1.4840    0.1540 cc        1 1C7     -0.218600
     22 C23         9.4250   -1.4330    0.5520 cd        1 1C7      0.289200
     23 N22         9.5330   -0.8810    1.8310 nd        1 1C7     -0.649000
     24 C21         8.2750   -0.5950    2.2360 cc        1 1C7      0.492000
     25 C25         7.9220    0.0230    3.5180 ca        1 1C7     -0.120500
     26 C30         7.4180   -0.7570    4.5640 ca        1 1C7     -0.082500
     27 C29         7.1310   -0.1610    5.7920 ca        1 1C7     -0.141500
     28 C28         7.3460    1.2050    5.9770 ca        1 1C7     -0.117000
     29 C27         7.8520    1.9800    4.9330 ca        1 1C7     -0.141500
     30 C26         8.1450    1.3920    3.7030 ca        1 1C7     -0.082500
     31 H1          1.3200    0.4250    3.1130 h1        1 1C7      0.056700
     32 H2          1.3120   -1.3890    2.8770 h1        1 1C7      0.056700
     33 H3         -0.0280   -0.3660    2.1630 h1        1 1C7      0.056700
     34 H4          1.4310   -0.0550   -2.1450 h1        1 1C7      0.107700
     35 H5          2.7530    2.1660   -0.4320 hc        1 1C7      0.055700
     36 H6          3.2120    1.8990   -2.1610 hc        1 1C7      0.055700
     37 H7          1.3890    3.6240   -1.8640 hc        1 1C7      0.046700
     38 H8          0.3020    2.3340   -1.1900 hc        1 1C7      0.046700
     39 H9          0.8810    2.2290   -2.9030 hc        1 1C7      0.046700
     40 H10         4.7060    0.1260   -2.5950 h1        1 1C7      0.048700
     41 H11         5.8530   -1.8800   -2.2730 hc        1 1C7      0.055200
     42 H12         4.3620   -2.8630   -1.9920 hc        1 1C7      0.055200
     43 H13         4.3940   -3.4910   -4.2050 hc        1 1C7      0.046200
     44 H14         5.8320   -2.4490   -4.5100 hc        1 1C7      0.046200
     45 H15         3.2470   -1.9730   -5.5680 hc        1 1C7      0.046200
     46 H16         4.5430   -0.7290   -5.4030 hc        1 1C7      0.046200
     47 H17         2.1410   -1.2940   -3.6060 hc        1 1C7      0.055200
     48 H18         2.8490    0.3090   -4.0790 hc        1 1C7      0.055200
     49 H19         3.4670   -0.4590    3.3880 h4        1 1C7      0.040100
     50 H20         7.6180   -1.8370   -0.7640 h4        1 1C7      0.191000
     51 H21        10.3090   -1.7580    0.0040 h4        1 1C7      0.046100
     52 H22         7.2440   -1.8330    4.4150 ha        1 1C7      0.141500
     53 H23         6.7360   -0.7720    6.6160 ha        1 1C7      0.132000
     54 H24         7.1200    1.6710    6.9470 ha        1 1C7      0.130000
     55 H25         8.0270    3.0550    5.0800 ha        1 1C7      0.132000
     56 H26         8.5560    1.9990    2.8820 ha        1 1C7      0.141500
@<TRIPOS>BOND
     1    1    2 2   
     2    2    3 1   
     3    2    6 1   
     4    3    4 1   
     5    3    5 1   
     6    4   31 1   
     7    4   32 1   
     8    4   33 1   
     9    5   15 ar  
    10    5   19 ar  
    11    6    7 1   
    12    6    9 1   
    13    6   34 1   
    14    7    8 1   
    15    7   35 1   
    16    7   36 1   
    17    8   37 1   
    18    8   38 1   
    19    8   39 1   
    20    9   10 1   
    21    9   15 1   
    22   10   11 1   
    23   10   14 1   
    24   10   40 1   
    25   11   12 1   
    26   11   41 1   
    27   11   42 1   
    28   12   13 1   
    29   12   43 1   
    30   12   44 1   
    31   13   14 1   
    32   13   45 1   
    33   13   46 1   
    34   14   47 1   
    35   14   48 1   
    36   15   16 ar  
    37   16   17 ar  
    38   17   18 ar  
    39   17   20 1   
    40   18   19 ar  
    41   19   49 1   
    42   20   21 1   
    43   20   24 1   
    44   21   22 2   
    45   21   50 1   
    46   22   23 1   
    47   22   51 1   
    48   23   24 2   
    49   24   25 1   
    50   25   26 ar  
    51   25   30 ar  
    52   26   27 ar  
    53   26   52 1   
    54   27   28 ar  
    55   27   53 1   
    56   28   29 ar  
    57   28   54 1   
    58   29   30 ar  
    59   29   55 1   
    60   30   56 1   
@<TRIPOS>SUBSTRUCTURE
     1 1C7         1 TEMP              0 ****  ****    0 ROOT
