@<TRIPOS>MOLECULE
1C7
   56    51     1     0     0
SMALL
bcc


@<TRIPOS>ATOM
      1 O18        -4.5550    0.0430    0.1320 o         1 1C7     -0.339000
      2 C8         -3.3560    0.2460    0.0980 c1        1 1C7      0.309000
      3 N7         -2.6670    0.2980    1.2180 n2        1 1C7     -0.258000
      4 C19        -3.3390    0.1820    2.4820 c3        1 1C7     -0.082000
      5 C2         -1.1930    0.0850    1.1320 c1        1 1C7     -0.073000
      6 C9         -2.7270    0.8130   -1.1420 c3        1 1C7      0.004000
      7 C16        -2.7030    2.4440   -1.0700 c3        1 1C7     -0.187000
      8 C17        -4.1330    2.9860   -1.2290 c3        1 1C7     -0.219000
      9 N10        -1.4750    0.2960   -1.3820 n3        1 1C7     -0.241000
     10 C11        -0.7760    1.1440   -2.2780 c3        1 1C7      0.028000
     11 C15         0.5060    0.3170   -2.9740 c3        1 1C7     -0.174000
     12 C14        -0.0160   -0.4000   -3.9890 c3        1 1C7     -0.163500
     13 C13        -1.3260    0.4160   -4.4470 c3        1 1C7     -0.163500
     14 C12        -1.5820    1.5100   -3.2950 c3        1 1C7     -0.174000
     15 C3         -0.5980   -0.0100   -0.1830 c1        1 1C7      0.144000
     16 N4          0.7300   -0.1360   -0.3060 n1        1 1C7     -0.222000
     17 C5          1.5380   -0.1750    0.8320 c1        1 1C7      0.155000
     18 N6          0.9580   -0.0830    2.1120 n1        1 1C7     -0.165000
     19 C1         -0.3960    0.0460    2.2450 c1        1 1C7     -0.044000
     20 N20         2.9720   -0.1160    0.6920 n3        1 1C7     -0.112000
     21 C24         3.6540    0.7880   -0.0250 c1        1 1C7     -0.130000
     22 C23         4.9910    0.5850    0.1980 c1        1 1C7     -0.175000
     23 N22         5.1170   -0.4430    1.0500 n2        1 1C7     -0.126000
     24 C21         3.8720   -0.8860    1.3620 c1        1 1C7      0.035000
     25 C25         3.5380   -1.9620    2.3860 c1        1 1C7     -0.002000
     26 C30         3.1650   -3.2290    1.9620 c2        1 1C7     -0.096000
     27 C29         2.8560   -4.2080    2.8940 c1        1 1C7     -0.137000
     28 C28         2.9210   -3.9190    4.2530 c1        1 1C7     -0.128000
     29 C27         3.2950   -2.6530    4.6760 c1        1 1C7     -0.128000
     30 C26         3.6040   -1.6740    3.7440 c1        1 1C7     -0.085000
     31 H1         -3.0750    0.9330    3.0630 h1        1 1C7      0.095667
     32 H2         -4.3140    0.2030    2.3400 h1        1 1C7      0.095667
     33 H3         -3.0880   -0.6660    2.9100 h1        1 1C7      0.095667
     34 H4         -3.3040    0.6710   -1.9200 h1        1 1C7      0.146000
     35 H5         -2.3390    2.7280   -0.2010 hc        1 1C7      0.096500
     36 H6         -2.1400    2.7930   -1.7890 hc        1 1C7      0.096500
     37 H7         -4.6570    2.7670   -0.4270 hc        1 1C7      0.085333
     38 H8         -4.5530    2.5760   -2.0170 hc        1 1C7      0.085333
     39 H9         -4.1020    3.9670   -1.3440 hc        1 1C7      0.085333
     40 H10        -0.4480    1.9390   -1.8040 h1        1 1C7      0.120000
     41 H11         0.9180   -0.2800   -2.3160 hc        1 1C7      0.096000
     42 H12         1.1700    0.9510   -3.3160 hc        1 1C7      0.096000
     43 H13        -0.2650   -1.2980   -3.6790 hc        1 1C7      0.084500
     44 H14         0.6160   -0.4580   -4.7180 hc        1 1C7      0.084500
     45 H15        -1.1660    0.8590   -5.3030 hc        1 1C7      0.084500
     46 H16        -2.0970   -0.1900   -4.5170 hc        1 1C7      0.084500
     47 H17        -2.5120    1.4910   -3.0110 hc        1 1C7      0.096000
     48 H18        -1.3420    2.4050   -3.6150 hc        1 1C7      0.096000
     49 H19        -0.7910    0.1090    3.1260 ha        1 1C7      0.178000
     50 H20         3.2670    1.4700   -0.6020 DU        1 1C7      0.187500
     51 H21         5.7210    1.0970   -0.1930 DU        1 1C7      0.187500
     52 H22         3.1190   -3.4320    1.0080 ha        1 1C7      0.135000
     53 H23         2.5940   -5.0990    2.5960 ha        1 1C7      0.131000
     54 H24         2.7040   -4.6110    4.9110 ha        1 1C7      0.131500
     55 H25         3.3410   -2.4500    5.6310 ha        1 1C7      0.131500
     56 H26         3.8660   -0.7820    4.0420 ha        1 1C7      0.145000
@<TRIPOS>BOND
     1    1    2 1   
     2    2    6 1   
     3    3    4 1   
     4    3    5 1   
     5    4   31 1   
     6    4   32 1   
     7    4   33 1   
     8    5   15 1   
     9    6    7 1   
    10    6    9 1   
    11    6   34 1   
    12    7    8 1   
    13    7   35 1   
    14    7   36 1   
    15    8   37 1   
    16    8   38 1   
    17    8   39 1   
    18    9   10 1   
    19    9   15 1   
    20   10   11 1   
    21   10   14 1   
    22   10   40 1   
    23   11   12 1   
    24   11   41 1   
    25   11   42 1   
    26   12   13 1   
    27   12   43 1   
    28   12   44 1   
    29   13   14 1   
    30   13   45 1   
    31   13   46 1   
    32   14   47 1   
    33   14   48 1   
    34   16   17 1   
    35   17   20 1   
    36   18   19 1   
    37   19   49 1   
    38   20   21 1   
    39   20   24 1   
    40   21   22 1   
    41   22   23 1   
    42   23   24 1   
    43   25   26 1   
    44   25   30 1   
    45   26   27 1   
    46   26   52 1   
    47   27   53 1   
    48   28   29 1   
    49   28   54 1   
    50   29   55 1   
    51   30   56 1   
@<TRIPOS>SUBSTRUCTURE
     1 1C7         1 TEMP              0 ****  ****    0 ROOT
