@<TRIPOS>MOLECULE
1C7
   56    60     1     0     0
SMALL
bcc


@<TRIPOS>ATOM
      1 O18        -0.0360    0.2240   -0.1030 o         1 1C7     -0.614500
      2 C8          1.1960    0.0780   -0.0320 c         1 1C7      0.704500
      3 N7          1.8200   -0.2350    1.1750 n         1 1C7     -0.354000
      4 C19         1.0620   -0.3820    2.3890 c3        1 1C7      0.073300
      5 C2          3.2060   -0.4390    1.1980 ca        1 1C7     -0.208000
      6 C9          2.0830    0.2640   -1.2790 c3        1 1C7      0.139500
      7 C16         2.3980    1.7640   -1.4250 c3        1 1C7     -0.106400
      8 C17         1.1880    2.5330   -1.8860 c3        1 1C7     -0.102100
      9 N10         3.2440   -0.6200   -1.2530 nh        1 1C7     -0.732300
     10 C11         3.9890   -0.7520   -2.5060 c3        1 1C7      0.214500
     11 C15         4.8040   -2.0640   -2.6140 c3        1 1C7     -0.082400
     12 C14         4.7970   -2.4700   -4.0820 c3        1 1C7     -0.080900
     13 C13         3.9220   -1.4750   -4.8300 c3        1 1C7     -0.080900
     14 C12         3.1060   -0.7460   -3.7750 c3        1 1C7     -0.082400
     15 C3          3.9640   -0.5790   -0.0360 ca        1 1C7      0.657200
     16 N4          5.3150   -0.7240   -0.0060 nb        1 1C7     -0.745000
     17 C5          5.9240   -0.7930    1.2330 ca        1 1C7      0.747500
     18 N6          5.2760   -0.7070    2.4440 nb        1 1C7     -0.693000
     19 C1          3.9470   -0.5210    2.3980 ca        1 1C7      0.421200
     20 N20         7.3330   -0.9670    1.2360 na        1 1C7     -0.239700
     21 C24         8.0800   -1.4980    0.1690 cc        1 1C7     -0.218600
     22 C23         9.4190   -1.4520    0.5710 cd        1 1C7      0.289200
     23 N22         9.5250   -0.8970    1.8490 nd        1 1C7     -0.649000
     24 C21         8.2670   -0.6050    2.2490 cc        1 1C7      0.492000
     25 C25         7.9130    0.0170    3.5290 ca        1 1C7     -0.120500
     26 C30         7.4030   -0.7580    4.5760 ca        1 1C7     -0.082500
     27 C29         7.1140   -0.1590    5.8010 ca        1 1C7     -0.141500
     28 C28         7.3350    1.2060    5.9840 ca        1 1C7     -0.117000
     29 C27         7.8470    1.9770    4.9400 ca        1 1C7     -0.141500
     30 C26         8.1400    1.3860    3.7120 ca        1 1C7     -0.082500
     31 H1         -0.0350   -0.3410    2.1520 h1        1 1C7      0.056700
     32 H2          1.3140    0.4490    3.1030 h1        1 1C7      0.056700
     33 H3          1.2990   -1.3660    2.8740 h1        1 1C7      0.056700
     34 H4          1.4370   -0.0530   -2.1530 h1        1 1C7      0.107700
     35 H5          2.7630    2.1700   -0.4450 hc        1 1C7      0.055700
     36 H6          3.2270    1.8950   -2.1710 hc        1 1C7      0.055700
     37 H7          0.3160    2.3450   -1.2120 hc        1 1C7      0.046700
     38 H8          1.4090    3.6280   -1.8870 hc        1 1C7      0.046700
     39 H9          0.9000    2.2300   -2.9220 hc        1 1C7      0.046700
     40 H10         4.7150    0.1140   -2.5950 h1        1 1C7      0.048700
     41 H11         5.8520   -1.8960   -2.2620 hc        1 1C7      0.055200
     42 H12         4.3560   -2.8710   -1.9830 hc        1 1C7      0.055200
     43 H13         4.3920   -3.5070   -4.1940 hc        1 1C7      0.046200
     44 H14         5.8350   -2.4720   -4.4970 hc        1 1C7      0.046200
     45 H15         3.2560   -1.9890   -5.5650 hc        1 1C7      0.046200
     46 H16         4.5570   -0.7490   -5.4000 hc        1 1C7      0.046200
     47 H17         2.1470   -1.2990   -3.6080 hc        1 1C7      0.055200
     48 H18         2.8630    0.2990   -4.0850 hc        1 1C7      0.055200
     49 H19         3.4570   -0.4440    3.3870 h4        1 1C7      0.040100
     50 H20         7.6140   -1.8510   -0.7500 h4        1 1C7      0.191000
     51 H21        10.3030   -1.7810    0.0260 h4        1 1C7      0.046100
     52 H22         7.2250   -1.8340    4.4280 ha        1 1C7      0.141500
     53 H23         6.7150   -0.7670    6.6260 ha        1 1C7      0.132000
     54 H24         7.1080    1.6750    6.9520 ha        1 1C7      0.130000
     55 H25         8.0260    3.0520    5.0850 ha        1 1C7      0.132000
     56 H26         8.5570    1.9890    2.8910 ha        1 1C7      0.141500
@<TRIPOS>BOND
     1    1    2 2   
     2    2    3 1   
     3    2    6 1   
     4    3    4 1   
     5    3    5 1   
     6    4   31 1   
     7    4   32 1   
     8    4   33 1   
     9    5   15 ar  
    10    5   19 ar  
    11    6    7 1   
    12    6    9 1   
    13    6   34 1   
    14    7    8 1   
    15    7   35 1   
    16    7   36 1   
    17    8   37 1   
    18    8   38 1   
    19    8   39 1   
    20    9   10 1   
    21    9   15 1   
    22   10   11 1   
    23   10   14 1   
    24   10   40 1   
    25   11   12 1   
    26   11   41 1   
    27   11   42 1   
    28   12   13 1   
    29   12   43 1   
    30   12   44 1   
    31   13   14 1   
    32   13   45 1   
    33   13   46 1   
    34   14   47 1   
    35   14   48 1   
    36   15   16 ar  
    37   16   17 ar  
    38   17   18 ar  
    39   17   20 1   
    40   18   19 ar  
    41   19   49 1   
    42   20   21 1   
    43   20   24 1   
    44   21   22 2   
    45   21   50 1   
    46   22   23 1   
    47   22   51 1   
    48   23   24 2   
    49   24   25 1   
    50   25   26 ar  
    51   25   30 ar  
    52   26   27 ar  
    53   26   52 1   
    54   27   28 ar  
    55   27   53 1   
    56   28   29 ar  
    57   28   54 1   
    58   29   30 ar  
    59   29   55 1   
    60   30   56 1   
@<TRIPOS>SUBSTRUCTURE
     1 1C7         1 TEMP              0 ****  ****    0 ROOT
