@<TRIPOS>MOLECULE
1C8
   52    56     1     0     0
SMALL
bcc


@<TRIPOS>ATOM
      1 O12        -0.0010    0.3340    0.0030 o         1 1C8     -0.615500
      2 C9          1.2370    0.2380    0.0220 c         1 1C8      0.704500
      3 N10         1.9370    0.1250    1.2220 n         1 1C8     -0.355000
      4 C11         1.2510    0.1240    2.4860 c3        1 1C8      0.073300
      5 C2          3.3290   -0.0300    1.1940 ca        1 1C8     -0.201000
      6 C8          2.0490    0.2670   -1.2890 c3        1 1C8      0.140500
      7 C13         2.2970    1.7380   -1.6690 c3        1 1C8     -0.105400
      8 C14         1.0340    2.3950   -2.1620 c3        1 1C8     -0.102100
      9 N7          3.2420   -0.5670   -1.2030 nh        1 1C8     -0.733300
     10 C15         3.9200   -0.8730   -2.4630 c3        1 1C8      0.216500
     11 C19         2.9670   -1.0930   -3.6600 c3        1 1C8     -0.083400
     12 C18         3.7490   -1.9570   -4.6360 c3        1 1C8     -0.080900
     13 C17         4.7020   -2.7960   -3.7960 c3        1 1C8     -0.080900
     14 C16         4.7810   -2.1590   -2.4150 c3        1 1C8     -0.083400
     15 C3          4.0250   -0.3270   -0.0490 ca        1 1C8      0.653200
     16 N4          5.3800   -0.4320   -0.0760 nb        1 1C8     -0.729000
     17 C5          6.0500   -0.3020    1.1230 ca        1 1C8      0.750500
     18 N6          5.4730   -0.0290    2.3410 nb        1 1C8     -0.675000
     19 C1          4.1360    0.1010    2.3470 ca        1 1C8      0.417200
     20 N20         7.4660   -0.4380    1.0720 na        1 1C8     -0.221700
     21 C24         8.2960    0.1710    0.1210 cc        1 1C8     -0.218600
     22 C23         9.6110   -0.1300    0.5070 cd        1 1C8      0.290200
     23 N22         9.6140   -0.9110    1.6610 nd        1 1C8     -0.655000
     24 C21         8.3120   -1.0950    1.9990 cc        1 1C8      0.411500
     25 C25         7.8430   -1.9020    3.1170 cc        1 1C8      0.307300
     26 C29         8.5340   -2.0190    4.3210 cd        1 1C8     -0.203400
     27 S28         7.7290   -3.0570    5.3540 ss        1 1C8     -0.084300
     28 C27         6.5080   -3.3150    4.1820 cd        1 1C8      0.366300
     29 N26         6.6680   -2.6580    3.0410 nc        1 1C8     -0.609000
     30 H1          1.4920    1.0620    3.0560 h1        1 1C8      0.056367
     31 H2          1.5650   -0.7650    3.0950 h1        1 1C8      0.056367
     32 H3          0.1420    0.0790    2.3100 h1        1 1C8      0.056367
     33 H4          1.3700   -0.1940   -2.0690 h1        1 1C8      0.107700
     34 H5          3.0760    1.7820   -2.4760 hc        1 1C8      0.054700
     35 H6          2.7010    2.2940   -0.7830 hc        1 1C8      0.054700
     36 H7          1.2130    3.4840   -2.3340 hc        1 1C8      0.046700
     37 H8          0.7000    1.9350   -3.1230 hc        1 1C8      0.046700
     38 H9          0.2090    2.2810   -1.4150 hc        1 1C8      0.046700
     39 H10         4.6030   -0.0090   -2.7290 h1        1 1C8      0.043700
     40 H11         2.0410   -1.6400   -3.3490 hc        1 1C8      0.057700
     41 H12         2.6680   -0.1180   -4.1140 hc        1 1C8      0.057700
     42 H13         3.0620   -2.6000   -5.2380 hc        1 1C8      0.045700
     43 H14         4.3220   -1.3140   -5.3510 hc        1 1C8      0.045700
     44 H15         4.3290   -3.8480   -3.7160 hc        1 1C8      0.045700
     45 H16         5.7140   -2.8370   -4.2710 hc        1 1C8      0.045700
     46 H17         4.4060   -2.8680   -1.6350 hc        1 1C8      0.057700
     47 H18         5.8400   -1.9050   -2.1630 hc        1 1C8      0.057700
     48 H19         3.6960    0.3220    3.3380 h4        1 1C8      0.038100
     49 H20         7.8970    0.7360   -0.7190 h4        1 1C8      0.189000
     50 H21        10.5420    0.1630    0.0230 h4        1 1C8      0.045100
     51 H22         9.4700   -1.5120    4.5510 h4        1 1C8      0.198000
     52 H23         5.6520   -3.9760    4.3460 h5        1 1C8      0.055100
@<TRIPOS>BOND
     1    1    2 2   
     2    2    3 1   
     3    2    6 1   
     4    3    4 1   
     5    3    5 1   
     6    4   30 1   
     7    4   31 1   
     8    4   32 1   
     9    5   15 ar  
    10    5   19 ar  
    11    6    7 1   
    12    6    9 1   
    13    6   33 1   
    14    7    8 1   
    15    7   34 1   
    16    7   35 1   
    17    8   36 1   
    18    8   37 1   
    19    8   38 1   
    20    9   10 1   
    21    9   15 1   
    22   10   11 1   
    23   10   14 1   
    24   10   39 1   
    25   11   12 1   
    26   11   40 1   
    27   11   41 1   
    28   12   13 1   
    29   12   42 1   
    30   12   43 1   
    31   13   14 1   
    32   13   44 1   
    33   13   45 1   
    34   14   46 1   
    35   14   47 1   
    36   15   16 ar  
    37   16   17 ar  
    38   17   18 ar  
    39   17   20 1   
    40   18   19 ar  
    41   19   48 1   
    42   20   21 1   
    43   20   24 1   
    44   21   22 2   
    45   21   49 1   
    46   22   23 1   
    47   22   50 1   
    48   23   24 2   
    49   24   25 1   
    50   25   26 2   
    51   25   29 1   
    52   26   27 1   
    53   26   51 1   
    54   27   28 1   
    55   28   29 2   
    56   28   52 1   
@<TRIPOS>SUBSTRUCTURE
     1 1C8         1 TEMP              0 ****  ****    0 ROOT
