@<TRIPOS>MOLECULE
1C8
   52    56     1     0     0
SMALL
bcc


@<TRIPOS>ATOM
      1 O12         4.1910   -2.8530    0.2490 o         1 1C8     -0.615500
      2 C9          3.2640   -2.0630    0.0050 c         1 1C8      0.704500
      3 N10         1.9540   -2.5110   -0.1530 n         1 1C8     -0.355000
      4 C11         1.6270   -3.9080   -0.0490 c3        1 1C8      0.073300
      5 C2          0.9320   -1.5790   -0.3800 ca        1 1C8     -0.201000
      6 C8          3.5380   -0.5540   -0.1580 c3        1 1C8      0.140500
      7 C13         3.9700   -0.2980   -1.6130 c3        1 1C8     -0.105400
      8 C14         5.3610   -0.8180   -1.8700 c3        1 1C8     -0.102100
      9 N7          2.4180    0.2510    0.3150 nh        1 1C8     -0.733300
     10 C15         2.6730    1.6790    0.5060 c3        1 1C8      0.216500
     11 C19         4.0820    2.0060    1.0540 c3        1 1C8     -0.083400
     12 C18         3.9400    3.3570    1.7350 c3        1 1C8     -0.080900
     13 C17         2.5030    3.4380    2.2280 c3        1 1C8     -0.080900
     14 C16         1.7060    2.3590    1.5050 c3        1 1C8     -0.083400
     15 C3          1.1650   -0.1540   -0.2030 ca        1 1C8      0.653200
     16 N4          0.1820    0.7480   -0.4670 nb        1 1C8     -0.729000
     17 C5         -1.0460    0.2500   -0.8510 ca        1 1C8      0.750500
     18 N6         -1.3550   -1.0770   -1.0360 nb        1 1C8     -0.675000
     19 C1         -0.3650   -1.9540   -0.7990 ca        1 1C8      0.417200
     20 N20        -2.0650    1.2120   -1.1010 na        1 1C8     -0.221700
     21 C24        -1.8950    2.3850   -1.8480 cc        1 1C8     -0.218600
     22 C23        -3.1660    2.9730   -1.9400 cd        1 1C8      0.290200
     23 N22        -4.1100    2.2000   -1.2670 nd        1 1C8     -0.655000
     24 C21        -3.4380    1.1350   -0.7600 cc        1 1C8      0.411500
     25 C25        -4.0260    0.0910    0.0690 cc        1 1C8      0.307300
     26 C29        -5.3330   -0.3640   -0.0860 cd        1 1C8     -0.203400
     27 S28        -5.6820   -1.5280    1.0610 ss        1 1C8     -0.084300
     28 C27        -4.1060   -1.3870    1.7170 cd        1 1C8      0.366300
     29 N26        -3.3190   -0.5050    1.1190 nc        1 1C8     -0.608000
     30 H1          1.3140   -4.3060   -1.0520 h1        1 1C8      0.056367
     31 H2          2.5270   -4.4770    0.3060 h1        1 1C8      0.056367
     32 H3          0.7850   -4.0530    0.6800 h1        1 1C8      0.056367
     33 H4          4.4200   -0.3380    0.5200 h1        1 1C8      0.107700
     34 H5          3.2410   -0.7830   -2.3140 hc        1 1C8      0.054700
     35 H6          3.9450    0.8060   -1.8140 hc        1 1C8      0.054700
     36 H7          5.6130   -0.7130   -2.9530 hc        1 1C8      0.046700
     37 H8          6.1120   -0.2430   -1.2750 hc        1 1C8      0.046700
     38 H9          5.4410   -1.8970   -1.5860 hc        1 1C8      0.046700
     39 H10         2.5680    2.2060   -0.4910 h1        1 1C8      0.043700
     40 H11         4.4120    1.2480    1.8100 hc        1 1C8      0.057700
     41 H12         4.8330    2.0320    0.2280 hc        1 1C8      0.057700
     42 H13         4.6670    3.4560    2.5780 hc        1 1C8      0.045700
     43 H14         4.1510    4.1820    1.0090 hc        1 1C8      0.045700
     44 H15         2.4590    3.2750    3.3340 hc        1 1C8      0.045700
     45 H16         2.0730    4.4510    2.0240 hc        1 1C8      0.045700
     46 H17         0.8430    2.8130    0.9590 hc        1 1C8      0.057700
     47 H18         1.2950    1.6210    2.2370 hc        1 1C8      0.057700
     48 H19        -0.6370   -3.0140   -0.9560 h4        1 1C8      0.038100
     49 H20        -0.9230    2.6940   -2.2270 h4        1 1C8      0.189000
     50 H21        -3.4480    3.8980   -2.4420 h4        1 1C8      0.045100
     51 H22        -6.0310   -0.0050   -0.8420 h4        1 1C8      0.198000
     52 H23        -3.7610   -1.9730    2.5740 h5        1 1C8      0.055100
@<TRIPOS>BOND
     1    1    2 2   
     2    2    3 1   
     3    2    6 1   
     4    3    4 1   
     5    3    5 1   
     6    4   30 1   
     7    4   31 1   
     8    4   32 1   
     9    5   15 ar  
    10    5   19 ar  
    11    6    7 1   
    12    6    9 1   
    13    6   33 1   
    14    7    8 1   
    15    7   34 1   
    16    7   35 1   
    17    8   36 1   
    18    8   37 1   
    19    8   38 1   
    20    9   10 1   
    21    9   15 1   
    22   10   11 1   
    23   10   14 1   
    24   10   39 1   
    25   11   12 1   
    26   11   40 1   
    27   11   41 1   
    28   12   13 1   
    29   12   42 1   
    30   12   43 1   
    31   13   14 1   
    32   13   44 1   
    33   13   45 1   
    34   14   46 1   
    35   14   47 1   
    36   15   16 ar  
    37   16   17 ar  
    38   17   18 ar  
    39   17   20 1   
    40   18   19 ar  
    41   19   48 1   
    42   20   21 1   
    43   20   24 1   
    44   21   22 2   
    45   21   49 1   
    46   22   23 1   
    47   22   50 1   
    48   23   24 2   
    49   24   25 1   
    50   25   26 2   
    51   25   29 1   
    52   26   27 1   
    53   26   51 1   
    54   27   28 1   
    55   28   29 2   
    56   28   52 1   
@<TRIPOS>SUBSTRUCTURE
     1 1C8         1 TEMP              0 ****  ****    0 ROOT
