@<TRIPOS>MOLECULE
1C8
   52    56     1     0     0
SMALL
bcc


@<TRIPOS>ATOM
      1 O12        -0.0010    0.3330    0.0000 o         1 1C8     -0.615500
      2 C9          1.2370    0.2370    0.0200 c         1 1C8      0.704500
      3 N10         1.9360    0.1280    1.2200 n         1 1C8     -0.355000
      4 C11         1.2500    0.1310    2.4840 c3        1 1C8      0.073300
      5 C2          3.3290   -0.0260    1.1930 ca        1 1C8     -0.201000
      6 C8          2.0490    0.2640   -1.2910 c3        1 1C8      0.140500
      7 C13         2.2960    1.7340   -1.6750 c3        1 1C8     -0.105400
      8 C14         1.0330    2.3890   -2.1690 c3        1 1C8     -0.102100
      9 N7          3.2420   -0.5700   -1.2020 nh        1 1C8     -0.733300
     10 C15         3.9210   -0.8780   -2.4620 c3        1 1C8      0.216500
     11 C19         2.9680   -1.1020   -3.6590 c3        1 1C8     -0.083400
     12 C18         3.7510   -1.9680   -4.6330 c3        1 1C8     -0.080900
     13 C17         4.7040   -2.8040   -3.7900 c3        1 1C8     -0.080900
     14 C16         4.7820   -2.1630   -2.4100 c3        1 1C8     -0.083400
     15 C3          4.0250   -0.3260   -0.0490 ca        1 1C8      0.653200
     16 N4          5.3800   -0.4300   -0.0760 nb        1 1C8     -0.729000
     17 C5          6.0490   -0.2980    1.1230 ca        1 1C8      0.750500
     18 N6          5.4720   -0.0220    2.3410 nb        1 1C8     -0.675000
     19 C1          4.1350    0.1070    2.3460 ca        1 1C8      0.417200
     20 N20         7.4650   -0.4320    1.0730 na        1 1C8     -0.221700
     21 C24         8.2960    0.1750    0.1220 cc        1 1C8     -0.218600
     22 C23         9.6110   -0.1250    0.5090 cd        1 1C8      0.290200
     23 N22         9.6140   -0.9040    1.6630 nd        1 1C8     -0.655000
     24 C21         8.3120   -1.0890    2.0010 cc        1 1C8      0.411500
     25 C25         7.8420   -1.8950    3.1190 cc        1 1C8      0.307300
     26 C29         8.5340   -2.0120    4.3230 cd        1 1C8     -0.204400
     27 S28         7.7290   -3.0480    5.3570 ss        1 1C8     -0.084300
     28 C27         6.5060   -3.3060    4.1850 cd        1 1C8      0.366300
     29 N26         6.6670   -2.6500    3.0440 nc        1 1C8     -0.609000
     30 H1          1.4910    1.0700    3.0510 h1        1 1C8      0.056367
     31 H2          1.5650   -0.7570    3.0950 h1        1 1C8      0.056367
     32 H3          0.1410    0.0850    2.3080 h1        1 1C8      0.056367
     33 H4          1.3700   -0.1990   -2.0700 h1        1 1C8      0.107700
     34 H5          2.7000    2.2920   -0.7900 hc        1 1C8      0.054700
     35 H6          3.0750    1.7760   -2.4820 hc        1 1C8      0.054700
     36 H7          0.2080    2.2770   -1.4230 hc        1 1C8      0.046700
     37 H8          1.2110    3.4780   -2.3450 hc        1 1C8      0.046700
     38 H9          0.6990    1.9270   -3.1300 hc        1 1C8      0.046700
     39 H10         4.6040   -0.0150   -2.7300 h1        1 1C8      0.043700
     40 H11         2.0420   -1.6480   -3.3460 hc        1 1C8      0.057700
     41 H12         2.6680   -0.1280   -4.1150 hc        1 1C8      0.057700
     42 H13         3.0640   -2.6130   -5.2330 hc        1 1C8      0.045700
     43 H14         4.3230   -1.3270   -5.3490 hc        1 1C8      0.045700
     44 H15         5.7160   -2.8460   -4.2650 hc        1 1C8      0.045700
     45 H16         4.3320   -3.8560   -3.7070 hc        1 1C8      0.045700
     46 H17         5.8410   -1.9080   -2.1590 hc        1 1C8      0.057700
     47 H18         4.4080   -2.8710   -1.6290 hc        1 1C8      0.057700
     48 H19         3.6950    0.3310    3.3360 h4        1 1C8      0.038100
     49 H20         7.8970    0.7400   -0.7190 h4        1 1C8      0.189000
     50 H21        10.5420    0.1690    0.0240 h4        1 1C8      0.045100
     51 H22         9.4710   -1.5060    4.5520 h4        1 1C8      0.198000
     52 H23         5.6510   -3.9660    4.3500 h5        1 1C8      0.055100
@<TRIPOS>BOND
     1    1    2 2   
     2    2    3 1   
     3    2    6 1   
     4    3    4 1   
     5    3    5 1   
     6    4   30 1   
     7    4   31 1   
     8    4   32 1   
     9    5   15 ar  
    10    5   19 ar  
    11    6    7 1   
    12    6    9 1   
    13    6   33 1   
    14    7    8 1   
    15    7   34 1   
    16    7   35 1   
    17    8   36 1   
    18    8   37 1   
    19    8   38 1   
    20    9   10 1   
    21    9   15 1   
    22   10   11 1   
    23   10   14 1   
    24   10   39 1   
    25   11   12 1   
    26   11   40 1   
    27   11   41 1   
    28   12   13 1   
    29   12   42 1   
    30   12   43 1   
    31   13   14 1   
    32   13   44 1   
    33   13   45 1   
    34   14   46 1   
    35   14   47 1   
    36   15   16 ar  
    37   16   17 ar  
    38   17   18 ar  
    39   17   20 1   
    40   18   19 ar  
    41   19   48 1   
    42   20   21 1   
    43   20   24 1   
    44   21   22 2   
    45   21   49 1   
    46   22   23 1   
    47   22   50 1   
    48   23   24 2   
    49   24   25 1   
    50   25   26 2   
    51   25   29 1   
    52   26   27 1   
    53   26   51 1   
    54   27   28 1   
    55   28   29 2   
    56   28   52 1   
@<TRIPOS>SUBSTRUCTURE
     1 1C8         1 TEMP              0 ****  ****    0 ROOT
