@<TRIPOS>MOLECULE
1C8
   52    56     1     0     0
SMALL
bcc


@<TRIPOS>ATOM
      1 O12        -0.0030    0.3230   -0.0110 o         1 1C8     -0.615500
      2 C9          1.2350    0.2300    0.0120 c         1 1C8      0.704500
      3 N10         1.9310    0.1180    1.2140 n         1 1C8     -0.355000
      4 C11         1.2420    0.1150    2.4760 c3        1 1C8      0.073300
      5 C2          3.3250   -0.0330    1.1900 ca        1 1C8     -0.201000
      6 C8          2.0510    0.2630   -1.2970 c3        1 1C8      0.140500
      7 C13         2.2950    1.7350   -1.6750 c3        1 1C8     -0.105400
      8 C14         1.0310    2.3890   -2.1710 c3        1 1C8     -0.102100
      9 N7          3.2460   -0.5680   -1.2080 nh        1 1C8     -0.733300
     10 C15         3.9290   -0.8700   -2.4660 c3        1 1C8      0.216500
     11 C19         2.9800   -1.0930   -3.6670 c3        1 1C8     -0.083400
     12 C18         3.7670   -1.9540   -4.6410 c3        1 1C8     -0.080900
     13 C17         4.7200   -2.7900   -3.7990 c3        1 1C8     -0.080900
     14 C16         4.7930   -2.1540   -2.4170 c3        1 1C8     -0.083400
     15 C3          4.0240   -0.3260   -0.0510 ca        1 1C8      0.653200
     16 N4          5.3800   -0.4270   -0.0750 nb        1 1C8     -0.729000
     17 C5          6.0460   -0.2970    1.1260 ca        1 1C8      0.750500
     18 N6          5.4650   -0.0260    2.3430 nb        1 1C8     -0.675000
     19 C1          4.1270    0.1000    2.3450 ca        1 1C8      0.417200
     20 N20         7.4620   -0.4280    1.0790 na        1 1C8     -0.221700
     21 C24         8.2930    0.1830    0.1310 cc        1 1C8     -0.218600
     22 C23         9.6090   -0.1140    0.5210 cd        1 1C8      0.290200
     23 N22         9.6110   -0.8940    1.6750 nd        1 1C8     -0.655000
     24 C21         8.3080   -1.0830    2.0090 cc        1 1C8      0.411500
     25 C25         7.8380   -1.8910    3.1250 cc        1 1C8      0.307300
     26 C29         8.5260   -2.0050    4.3320 cd        1 1C8     -0.203400
     27 S28         7.7220   -3.0460    5.3620 ss        1 1C8     -0.084300
     28 C27         6.5040   -3.3080    4.1860 cd        1 1C8      0.366300
     29 N26         6.6660   -2.6510    3.0460 nc        1 1C8     -0.608000
     30 H1          0.1340    0.0660    2.2960 h1        1 1C8      0.056367
     31 H2          1.4780    1.0530    3.0470 h1        1 1C8      0.056367
     32 H3          1.5570   -0.7740    3.0850 h1        1 1C8      0.056367
     33 H4          1.3750   -0.2000   -2.0790 h1        1 1C8      0.107700
     34 H5          3.0760    1.7820   -2.4800 hc        1 1C8      0.054700
     35 H6          2.6950    2.2910   -0.7870 hc        1 1C8      0.054700
     36 H7          0.2050    2.2720   -1.4260 hc        1 1C8      0.046700
     37 H8          0.7010    1.9280   -3.1340 hc        1 1C8      0.046700
     38 H9          1.2080    3.4780   -2.3420 hc        1 1C8      0.046700
     39 H10         4.6100   -0.0040   -2.7300 h1        1 1C8      0.043700
     40 H11         2.6790   -0.1180   -4.1210 hc        1 1C8      0.057700
     41 H12         2.0540   -1.6420   -3.3580 hc        1 1C8      0.057700
     42 H13         4.3400   -1.3080   -5.3540 hc        1 1C8      0.045700
     43 H14         3.0830   -2.5980   -5.2450 hc        1 1C8      0.045700
     44 H15         5.7330   -2.8280   -4.2710 hc        1 1C8      0.045700
     45 H16         4.3500   -3.8430   -3.7210 hc        1 1C8      0.045700
     46 H17         4.4180   -2.8650   -1.6390 hc        1 1C8      0.057700
     47 H18         5.8500   -1.8970   -2.1620 hc        1 1C8      0.057700
     48 H19         3.6830    0.3190    3.3350 h4        1 1C8      0.038100
     49 H20         7.8950    0.7480   -0.7100 h4        1 1C8      0.189000
     50 H21        10.5400    0.1820    0.0390 h4        1 1C8      0.045100
     51 H22         9.4600   -1.4950    4.5640 h4        1 1C8      0.198000
     52 H23         5.6510   -3.9720    4.3470 h5        1 1C8      0.055100
@<TRIPOS>BOND
     1    1    2 2   
     2    2    3 1   
     3    2    6 1   
     4    3    4 1   
     5    3    5 1   
     6    4   30 1   
     7    4   31 1   
     8    4   32 1   
     9    5   15 ar  
    10    5   19 ar  
    11    6    7 1   
    12    6    9 1   
    13    6   33 1   
    14    7    8 1   
    15    7   34 1   
    16    7   35 1   
    17    8   36 1   
    18    8   37 1   
    19    8   38 1   
    20    9   10 1   
    21    9   15 1   
    22   10   11 1   
    23   10   14 1   
    24   10   39 1   
    25   11   12 1   
    26   11   40 1   
    27   11   41 1   
    28   12   13 1   
    29   12   42 1   
    30   12   43 1   
    31   13   14 1   
    32   13   44 1   
    33   13   45 1   
    34   14   46 1   
    35   14   47 1   
    36   15   16 ar  
    37   16   17 ar  
    38   17   18 ar  
    39   17   20 1   
    40   18   19 ar  
    41   19   48 1   
    42   20   21 1   
    43   20   24 1   
    44   21   22 2   
    45   21   49 1   
    46   22   23 1   
    47   22   50 1   
    48   23   24 2   
    49   24   25 1   
    50   25   26 2   
    51   25   29 1   
    52   26   27 1   
    53   26   51 1   
    54   27   28 1   
    55   28   29 2   
    56   28   52 1   
@<TRIPOS>SUBSTRUCTURE
     1 1C8         1 TEMP              0 ****  ****    0 ROOT
