@<TRIPOS>MOLECULE
1C8
   52    47     1     0     0
SMALL
bcc


@<TRIPOS>ATOM
      1 O12        -3.1040    2.9850   -0.1250 o         1 1C8     -0.340000
      2 C9         -2.0480    2.3730   -0.0600 c1        1 1C8      0.312000
      3 N10        -1.3500    2.3730    1.0680 n2        1 1C8     -0.258000
      4 C11        -1.7950    3.1630    2.1910 c3        1 1C8     -0.082000
      5 C2         -0.3750    1.2670    1.2760 c1        1 1C8     -0.063000
      6 C8         -1.3520    1.9400   -1.3210 c3        1 1C8     -0.007000
      7 C13        -0.3100    3.0750   -1.8040 c3        1 1C8     -0.184000
      8 C14        -1.0910    4.2570   -2.4390 c3        1 1C8     -0.220000
      9 N7         -0.7370    0.7030   -1.1900 n3        1 1C8     -0.224000
     10 C15         0.2820    0.5520   -2.2260 c3        1 1C8      0.019000
     11 C19        -0.2680    0.6610   -3.4450 c3        1 1C8     -0.162000
     12 C18        -0.6700   -0.8830   -3.9130 c3        1 1C8     -0.159500
     13 C17         0.3270   -1.6940   -3.4520 c3        1 1C8     -0.159500
     14 C16         0.9140   -0.9460   -2.1810 c3        1 1C8     -0.162000
     15 C3         -0.1350    0.3530    0.1690 c1        1 1C8      0.132000
     16 N4          0.6140   -0.7450    0.3620 n1        1 1C8     -0.203000
     17 C5          1.1600   -1.0080    1.6240 c1        1 1C8      0.161000
     18 N6          0.9250   -0.1140    2.7050 n1        1 1C8     -0.149000
     19 C1          0.1670    1.0000    2.5180 c1        1 1C8     -0.048000
     20 N20         2.0560   -2.1450    1.8050 n3        1 1C8     -0.094000
     21 C24         3.3060   -2.2410    1.3380 c1        1 1C8     -0.129000
     22 C23         3.8420   -3.4210    1.7970 c1        1 1C8     -0.175000
     23 N22         2.9090   -4.0390    2.5450 n2        1 1C8     -0.129000
     24 C21         1.7990   -3.2600    2.5580 c1        1 1C8      0.060000
     25 C25         0.5180   -3.5250    3.3770 c1        1 1C8     -0.021000
     26 C29         0.3500   -3.2700    4.7940 c1        1 1C8     -0.408000
     27 S28        -1.0300   -3.7820    5.2020 ss        1 1C8      0.500000
     28 C27        -1.7000   -4.3690    3.9390 c1        1 1C8     -0.348000
     29 N26        -0.7870   -4.2210    2.8450 n2        1 1C8     -0.082000
     30 H1         -2.3310    3.9130    1.8700 h1        1 1C8      0.095667
     31 H2         -1.0120    3.5040    2.6830 h1        1 1C8      0.095667
     32 H3         -2.3410    2.6020    2.7920 h1        1 1C8      0.095667
     33 H4         -1.9780    1.9260   -2.0790 h1        1 1C8      0.147000
     34 H5          0.3000    2.6970   -2.4650 hc        1 1C8      0.094000
     35 H6          0.2060    3.4000   -1.0270 hc        1 1C8      0.094000
     36 H7         -1.0390    5.0450   -1.8420 hc        1 1C8      0.086000
     37 H8         -0.6940    4.4810   -3.3140 hc        1 1C8      0.086000
     38 H9         -2.0310    4.0010   -2.5620 hc        1 1C8      0.086000
     39 H10         0.9840    1.2190   -2.1100 h1        1 1C8      0.083000
     40 H11        -1.0710    1.2200   -3.4040 hc        1 1C8      0.097000
     41 H12         0.3850    1.0490   -4.0780 hc        1 1C8      0.097000
     42 H13        -0.7240   -0.9360   -4.8850 hc        1 1C8      0.085000
     43 H14        -1.5160   -1.1400   -3.5180 hc        1 1C8      0.085000
     44 H15        -0.0350   -2.5650   -3.1970 hc        1 1C8      0.085000
     45 H16         1.0260   -1.8020   -4.1410 hc        1 1C8      0.085000
     46 H17         1.8950   -0.9040   -2.2340 hc        1 1C8      0.097000
     47 H18         0.6420   -1.3980   -1.3750 hc        1 1C8      0.097000
     48 H19         0.0070    1.6160    3.2660 ha        1 1C8      0.175000
     49 H20         3.7570   -1.5910    0.7730 DU        1 1C8      0.190250
     50 H21         4.7460   -3.7550    1.6130 DU        1 1C8      0.190250
     51 H22         1.0010   -2.8490    5.3800 DU        1 1C8      0.190250
     52 H23        -2.5940   -4.7710    3.8940 DU        1 1C8      0.190250
@<TRIPOS>BOND
     1    1    2 1   
     2    2    6 1   
     3    3    4 1   
     4    3    5 1   
     5    4   30 1   
     6    4   31 1   
     7    4   32 1   
     8    5   15 1   
     9    6    7 1   
    10    6    9 1   
    11    6   33 1   
    12    7    8 1   
    13    7   34 1   
    14    7   35 1   
    15    8   36 1   
    16    8   37 1   
    17    8   38 1   
    18    9   10 1   
    19    9   15 1   
    20   10   11 1   
    21   10   14 1   
    22   10   39 1   
    23   11   12 1   
    24   11   40 1   
    25   11   41 1   
    26   12   13 1   
    27   12   42 1   
    28   12   43 1   
    29   13   14 1   
    30   13   44 1   
    31   13   45 1   
    32   14   46 1   
    33   14   47 1   
    34   16   17 1   
    35   17   20 1   
    36   18   19 1   
    37   19   48 1   
    38   20   21 1   
    39   20   24 1   
    40   21   22 1   
    41   22   23 1   
    42   23   24 1   
    43   25   26 1   
    44   25   29 1   
    45   26   27 1   
    46   27   28 1   
    47   28   29 1   
@<TRIPOS>SUBSTRUCTURE
     1 1C8         1 TEMP              0 ****  ****    0 ROOT
