@<TRIPOS>MOLECULE
1C9
   58    61     1     0     0
SMALL
bcc


@<TRIPOS>ATOM
      1 C1          0.4250    2.6750   -0.0950 ca        1 1C9      0.046600
      2 C2          0.1840    4.0280    0.3640 ca        1 1C9      0.122100
      3 C3         -1.0880    4.4790    0.6330 ca        1 1C9     -0.251300
      4 C4         -2.2120    3.6130    0.4800 ca        1 1C9      0.448600
      5 C5         -1.9860    2.2740    0.0410 ca        1 1C9     -0.289600
      6 C6         -0.6760    1.8430   -0.2600 ca        1 1C9     -0.109000
      7 N7         -3.4810    4.0880    0.7580 nb        1 1C9     -0.718000
      8 C8         -4.4760    3.2170    0.5960 ca        1 1C9      0.670900
      9 N9         -4.4040    1.9030    0.2030 nb        1 1C9     -0.773000
     10 C10        -3.1720    1.4190   -0.0760 ca        1 1C9      0.703200
     11 N14        -3.0070    0.1020   -0.5180 nh        1 1C9     -0.726300
     12 C15        -4.0580   -0.8390   -0.5710 ca        1 1C9      0.137600
     13 C16        -3.8690   -2.1180   -0.0050 ca        1 1C9     -0.146000
     14 C17        -4.8560   -3.0970   -0.1140 ca        1 1C9     -0.004600
     15 C18        -6.0640   -2.8110   -0.7830 ca        1 1C9      0.118900
     16 C19        -6.2520   -1.5330   -1.3440 ca        1 1C9     -0.146000
     17 C20        -5.2660   -0.5630   -1.2480 ca        1 1C9     -0.089000
     18 F21        -7.0460   -3.7350   -0.8990 f         1 1C9     -0.126900
     19 CL         -4.5710   -4.6210    0.5790 cl        1 1C9     -0.068400
     20 O11         1.3150    4.8130    0.5000 os        1 1C9     -0.345900
     21 C12         1.1110    6.1580    0.9200 c3        1 1C9      0.116700
     22 N13         1.7380    2.2730   -0.3860 n         1 1C9     -0.457100
     23 C26         2.2060    0.9630   -0.4160 c         1 1C9      0.672300
     24 C24         3.6660    0.7990   -0.6340 ce        1 1C9     -0.264200
     25 C23         4.2100   -0.4240   -0.6890 c2        1 1C9     -0.062200
     26 C25         5.6670   -0.6300   -0.9620 c3        1 1C9      0.186000
     27 N33         6.2050   -1.8420   -0.3590 n3        1 1C9     -0.727600
     28 O27         1.4440   -0.0180   -0.2880 o         1 1C9     -0.610100
     29 C30         7.5330   -2.1540   -0.8750 c3        1 1C9      0.168800
     30 C31         8.1320   -3.4180   -0.2630 c3        1 1C9     -0.077400
     31 C32         8.1180   -3.3560    1.2480 c3        1 1C9     -0.079400
     32 C33         6.7200   -3.0650    1.7510 c3        1 1C9     -0.077400
     33 C34         6.1530   -1.8060    1.0980 c3        1 1C9      0.168800
     34 H6         -0.5050    0.8230   -0.6460 ha        1 1C9      0.172000
     35 H8         -5.5050    3.5780    0.8110 h5        1 1C9      0.053100
     36 H20        -5.4400    0.4240   -1.7060 ha        1 1C9      0.163000
     37 H24         4.2740    1.7090   -0.7490 ha        1 1C9      0.134000
     38 H19        -7.1950   -1.3150   -1.8670 ha        1 1C9      0.156000
     39 H3         -1.2690    5.5110    0.9730 ha        1 1C9      0.162000
     40 H16        -2.9340   -2.3610    0.5270 ha        1 1C9      0.154000
     41 H12         0.4770    6.7090    0.1830 h1        1 1C9      0.051033
     42 H12A        0.6490    6.1860    1.9370 h1        1 1C9      0.051033
     43 H12B        2.1480    6.5790    0.9450 h1        1 1C9      0.051033
     44 H23         3.5870   -1.3300   -0.5690 ha        1 1C9      0.167000
     45 H25         5.7810   -0.7280   -2.0830 h1        1 1C9      0.046700
     46 H25A        6.2460    0.2890   -0.6440 h1        1 1C9      0.046700
     47 HN14       -2.1070   -0.2930   -0.3360 hn        1 1C9      0.444800
     48 HN13        2.4140    3.0060   -0.3970 hn        1 1C9      0.332500
     49 H161        7.4370   -2.3010   -1.9880 h1        1 1C9      0.031200
     50 H17         8.2520   -1.2980   -0.7050 h1        1 1C9      0.031200
     51 H18         7.5540   -4.3140   -0.6080 hc        1 1C9      0.049450
     52 H191        9.1840   -3.5240   -0.6360 hc        1 1C9      0.049450
     53 H201        8.4790   -4.3280    1.6720 hc        1 1C9      0.041200
     54 H21         8.8190   -2.5540    1.6000 hc        1 1C9      0.041200
     55 H22         6.0510   -3.9380    1.5320 hc        1 1C9      0.049450
     56 H231        6.7320   -2.9120    2.8600 hc        1 1C9      0.049450
     57 H241        6.7100   -0.9110    1.5070 h1        1 1C9      0.031200
     58 H251        5.0710   -1.6980    1.3910 h1        1 1C9      0.031200
@<TRIPOS>BOND
     1    1    2 ar  
     2    1    6 ar  
     3    1   22 1   
     4    2    3 ar  
     5    2   20 1   
     6    3    4 ar  
     7    3   39 1   
     8    4    5 ar  
     9    4    7 ar  
    10    5    6 ar  
    11    5   10 ar  
    12    6   34 1   
    13    7    8 ar  
    14    8    9 ar  
    15    8   35 1   
    16    9   10 ar  
    17   10   11 1   
    18   11   12 1   
    19   11   47 1   
    20   12   13 ar  
    21   12   17 ar  
    22   13   14 ar  
    23   13   40 1   
    24   14   15 ar  
    25   14   19 1   
    26   15   16 ar  
    27   15   18 1   
    28   16   17 ar  
    29   16   38 1   
    30   17   36 1   
    31   20   21 1   
    32   21   41 1   
    33   21   42 1   
    34   21   43 1   
    35   22   23 1   
    36   22   48 1   
    37   23   24 1   
    38   23   28 2   
    39   24   25 2   
    40   24   37 1   
    41   25   26 1   
    42   25   44 1   
    43   26   27 1   
    44   26   45 1   
    45   26   46 1   
    46   27   29 1   
    47   27   33 1   
    48   29   30 1   
    49   29   49 1   
    50   29   50 1   
    51   30   31 1   
    52   30   51 1   
    53   30   52 1   
    54   31   32 1   
    55   31   53 1   
    56   31   54 1   
    57   32   33 1   
    58   32   55 1   
    59   32   56 1   
    60   33   57 1   
    61   33   58 1   
@<TRIPOS>SUBSTRUCTURE
     1 1C9         1 TEMP              0 ****  ****    0 ROOT
