@<TRIPOS>MOLECULE
1C9
   58    51     1     0     0
SMALL
bcc


@<TRIPOS>ATOM
      1 C1          0.9110    0.6580    0.8660 c1        1 1C9      0.051000
      2 C2          2.2410    1.0810    0.9270 c2        1 1C9      0.076000
      3 C3          2.7980    1.4580    2.1530 c1        1 1C9     -0.186000
      4 C4          2.0130    1.4120    3.3310 c1        1 1C9      0.056000
      5 C5          0.6990    0.9940    3.2690 c1        1 1C9     -0.159000
      6 C6          0.1370    0.6130    2.0310 c1        1 1C9     -0.111000
      7 N7          2.5920    1.6540    4.5410 n2        1 1C9     -0.192000
      8 C8          1.8720    1.4810    5.6870 c1        1 1C9      0.008000
      9 N9          0.5290    1.0540    5.6210 n1        1 1C9     -0.247000
     10 C10        -0.0360    0.8190    4.4490 c2        1 1C9      0.183000
     11 N14        -1.4790    0.8260    4.6740 n3        1 1C9     -0.247000
     12 C15        -2.0220    1.5110    5.8100 c1        1 1C9      0.055000
     13 C16        -2.4540    2.8220    5.6830 c1        1 1C9     -0.146000
     14 C17        -3.0940    3.4420    6.7340 c1        1 1C9     -0.083000
     15 C18        -3.3070    2.7500    7.9250 c2        1 1C9      0.085000
     16 C19        -2.8720    1.4340    8.0510 c1        1 1C9     -0.146000
     17 C20        -2.2350    0.8180    7.0020 c1        1 1C9     -0.089000
     18 F21        -3.8970    3.3600    8.9580 f         1 1C9     -0.091000
     19 CL         -3.7810    5.0290    6.5160 cl        1 1C9      0.010000
     20 O11         2.6530    0.5350   -0.2910 os        1 1C9     -0.228000
     21 C12         3.7340    1.2140   -0.8840 c3        1 1C9     -0.074000
     22 N13         0.2190   -0.5020    0.3160 n2        1 1C9     -0.315000
     23 C26        -0.4130   -0.4150   -0.9460 c1        1 1C9      0.346000
     24 C24        -1.2980   -1.5580   -1.4260 c1        1 1C9     -0.226000
     25 C23        -1.2320   -1.9710   -2.7140 c1        1 1C9     -0.096000
     26 C25        -0.2890   -1.3030   -3.6610 c2        1 1C9     -0.056000
     27 N33        -0.3820   -1.9590   -5.0190 n3        1 1C9     -0.254000
     28 O27        -0.3770    0.6100   -1.5610 o         1 1C9     -0.355000
     29 C30        -0.5780   -0.9320   -6.0430 c3        1 1C9     -0.068000
     30 C31        -0.5560   -1.5010   -7.4550 c3        1 1C9     -0.156000
     31 C32         0.6520   -2.3390   -7.7180 c3        1 1C9     -0.158000
     32 C33         0.8480   -3.3740   -6.6950 c3        1 1C9     -0.156000
     33 C34         0.8210   -2.7910   -5.2650 c3        1 1C9     -0.068000
     34 H6         -0.8320    0.3050    1.9850 ha        1 1C9      0.172000
     35 H8          2.2930    1.6580    6.5710 ha        1 1C9      0.190000
     36 H20        -1.9270   -0.1150    7.0920 ha        1 1C9      0.163000
     37 H24        -1.8870   -1.9740   -0.8320 DU        1 1C9      0.157000
     38 H19        -3.0260    0.9290    8.9180 ha        1 1C9      0.156000
     39 H3          3.7890    1.7720    2.2000 ha        1 1C9      0.162000
     40 H16        -2.3120    3.2850    4.8830 ha        1 1C9      0.153000
     41 H12         3.9080    0.8330   -1.8200 h1        1 1C9      0.090667
     42 H12A        4.5370    1.0960   -0.3300 h1        1 1C9      0.090667
     43 H12B        3.5250    2.1480   -0.9530 h1        1 1C9      0.090667
     44 H23        -1.8310   -2.7430   -3.0400 ha        1 1C9      0.149000
     45 H25        -0.5350   -0.3300   -3.7410 h4        1 1C9      0.090500
     46 H25A        0.6360   -1.3820   -3.3170 h4        1 1C9      0.090500
     47 HN14       -2.0280    0.5070    4.0450 hn        1 1C9      0.240000
     48 HN13        0.2630   -1.2840    0.7350 hn        1 1C9      0.249000
     49 H161        0.1270   -0.2730   -5.9620 h1        1 1C9      0.070250
     50 H17        -1.4600   -0.4840   -5.8880 h1        1 1C9      0.070250
     51 H18        -1.4100   -2.0870   -7.5960 hc        1 1C9      0.087750
     52 H191       -0.5720   -0.7180   -8.1290 hc        1 1C9      0.087750
     53 H201        0.5560   -2.7530   -8.5600 hc        1 1C9      0.080500
     54 H21         1.4700   -1.7390   -7.7380 hc        1 1C9      0.080500
     55 H22         1.6910   -3.7980   -6.8410 hc        1 1C9      0.087750
     56 H231        0.1300   -4.0510   -6.7810 hc        1 1C9      0.087750
     57 H241        1.6410   -2.2210   -5.1330 h1        1 1C9      0.070250
     58 H251        0.8380   -3.5090   -4.6330 h1        1 1C9      0.070250
@<TRIPOS>BOND
     1    1    2 1   
     2    1    6 1   
     3    2    3 1   
     4    2   20 1   
     5    3   39 1   
     6    4    5 1   
     7    4    7 1   
     8    5   10 1   
     9    6   34 1   
    10    7    8 1   
    11    8   35 1   
    12    9   10 1   
    13   10   11 1   
    14   11   12 1   
    15   11   47 1   
    16   12   17 1   
    17   13   14 1   
    18   13   40 1   
    19   14   15 1   
    20   15   16 1   
    21   15   18 1   
    22   16   38 1   
    23   17   36 1   
    24   20   21 1   
    25   21   41 1   
    26   21   42 1   
    27   21   43 1   
    28   22   23 1   
    29   22   48 1   
    30   23   28 1   
    31   24   25 1   
    32   25   44 1   
    33   26   27 1   
    34   26   45 1   
    35   26   46 1   
    36   27   29 1   
    37   27   33 1   
    38   29   30 1   
    39   29   49 1   
    40   29   50 1   
    41   30   31 1   
    42   30   51 1   
    43   30   52 1   
    44   31   32 1   
    45   31   53 1   
    46   31   54 1   
    47   32   33 1   
    48   32   55 1   
    49   32   56 1   
    50   33   57 1   
    51   33   58 1   
@<TRIPOS>SUBSTRUCTURE
     1 1C9         1 TEMP              0 ****  ****    0 ROOT
