@<TRIPOS>MOLECULE
1C9
   60    63     1     0     0
SMALL
bcc


@<TRIPOS>ATOM
      1 C1         -1.3180    0.0820   -0.0720 ca        1 1C9     -0.034400
      2 C2          0.0110   -0.4050   -0.3470 ca        1 1C9      0.189100
      3 C3          0.9710   -0.4120    0.6490 ca        1 1C9     -0.222300
      4 C4          0.6660    0.0740    1.9500 ca        1 1C9      0.491600
      5 C5         -0.6560    0.5820    2.2150 ca        1 1C9     -0.289600
      6 C6         -1.6300    0.5510    1.1970 ca        1 1C9     -0.049000
      7 N7          1.6430    0.0470    2.9300 nb        1 1C9     -0.619000
      8 C8          1.3170    0.5200    4.1260 ca        1 1C9      0.702900
      9 N9          0.0890    1.0600    4.4950 nb        1 1C9     -0.667000
     10 C10        -0.8550    1.0910    3.5580 ca        1 1C9      0.567200
     11 N14        -2.1520    1.7090    3.9490 n4        1 1C9     -0.623100
     12 C15        -3.0920    0.7360    4.5220 ca        1 1C9     -0.085400
     13 C16        -4.2670    0.4200    3.8200 ca        1 1C9     -0.094000
     14 C17        -5.1860   -0.4710    4.3720 ca        1 1C9     -0.021600
     15 C18        -4.9270   -1.0530    5.6420 ca        1 1C9      0.219900
     16 C19        -3.7420   -0.7170    6.3330 ca        1 1C9     -0.138000
     17 C20        -2.8280    0.1700    5.7830 ca        1 1C9     -0.056000
     18 F21        -5.7900   -1.9160    6.1990 f         1 1C9     -0.066900
     19 CL         -6.5930   -0.8270    3.5130 cl        1 1C9      0.010600
     20 O11         0.2170   -0.8450   -1.6240 os        1 1C9     -0.347900
     21 C12         1.5240   -1.3490   -1.9490 c3        1 1C9      0.111700
     22 N13        -2.3260    0.0570   -1.1290 n4        1 1C9     -0.547200
     23 C26        -2.9610    1.4310   -1.3960 c         1 1C9      0.631300
     24 C24        -2.6400    2.0210   -2.6910 ce        1 1C9     -0.303200
     25 C23        -3.1550    1.6610   -3.8730 c2        1 1C9     -0.008200
     26 C25        -4.1200    0.5680   -4.1870 c3        1 1C9      0.147000
     27 N33        -4.4090   -0.3260   -3.0710 n3        1 1C9     -0.800600
     28 O27        -3.6230    1.8780   -0.4710 o         1 1C9     -0.462100
     29 C30        -5.7310   -0.0820   -2.4910 c3        1 1C9      0.144300
     30 C31        -6.0330   -0.9910   -1.3010 c3        1 1C9     -0.076900
     31 C32        -5.8520   -2.4480   -1.6650 c3        1 1C9     -0.093400
     32 C33        -4.4830   -2.6870   -2.2630 c3        1 1C9     -0.076900
     33 C34        -4.2070   -1.7320   -3.4230 c3        1 1C9      0.144300
     34 H6         -2.6590    0.8970    1.4030 ha        1 1C9      0.159000
     35 H8          2.0880    0.5050    4.9360 h5        1 1C9      0.118100
     36 H20        -1.9130    0.4200    6.3500 ha        1 1C9      0.184000
     37 H24        -1.9590    2.8910   -2.6000 ha        1 1C9      0.199000
     38 H19        -3.5540   -1.1670    7.3250 ha        1 1C9      0.202000
     39 H3          1.9900   -0.7960    0.4510 ha        1 1C9      0.210000
     40 H16        -4.4950    0.8810    2.8430 ha        1 1C9      0.158000
     41 H12         2.2880   -0.5440   -1.8200 h1        1 1C9      0.082033
     42 H12A        1.7570   -2.2430   -1.3230 h1        1 1C9      0.082033
     43 H12B        1.4120   -1.6300   -3.0290 h1        1 1C9      0.082033
     44 H23        -2.8690    2.2530   -4.7700 ha        1 1C9      0.180000
     45 H25        -5.0610    1.0710   -4.5740 h1        1 1C9      0.098700
     46 H25A       -3.6920   -0.0090   -5.0640 h1        1 1C9      0.098700
     47 HN14       -1.9820    2.4400    4.6640 hn        1 1C9      0.478800
     48 HN13       -3.0770   -0.6030   -0.8670 hn        1 1C9      0.484800
     49 H161       -6.5460   -0.2200   -3.2600 h1        1 1C9      0.055700
     50 H17        -5.7570    0.9920   -2.1510 h1        1 1C9      0.055700
     51 H18        -5.3640   -0.7260   -0.4400 hc        1 1C9      0.044200
     52 H191       -7.0900   -0.8030   -0.9770 hc        1 1C9      0.044200
     53 H201       -6.6410   -2.7490   -2.4060 hc        1 1C9      0.070700
     54 H21        -5.9890   -3.0900   -0.7560 hc        1 1C9      0.070700
     55 H22        -4.4120   -3.7380   -2.6510 hc        1 1C9      0.044200
     56 H231       -3.6960   -2.5710   -1.4720 hc        1 1C9      0.044200
     57 H241       -3.1360   -1.8520   -3.7500 h1        1 1C9      0.055700
     58 H251       -4.8640   -2.0340   -4.2910 h1        1 1C9      0.055700
     59 H142       -2.5680    2.1510    3.1200 hn        1 1C9      0.478800
     60 H132       -1.9000   -0.2820   -2.0070 hn        1 1C9      0.484800
@<TRIPOS>BOND
     1    1    2 ar  
     2    1    6 ar  
     3    1   22 1   
     4    2    3 ar  
     5    2   20 1   
     6    3    4 ar  
     7    3   39 1   
     8    4    5 ar  
     9    4    7 ar  
    10    5    6 ar  
    11    5   10 ar  
    12    6   34 1   
    13    7    8 ar  
    14    8    9 ar  
    15    8   35 1   
    16    9   10 ar  
    17   10   11 1   
    18   11   12 1   
    19   11   47 1   
    20   11   59 1   
    21   12   13 ar  
    22   12   17 ar  
    23   13   14 ar  
    24   13   40 1   
    25   14   15 ar  
    26   14   19 1   
    27   15   16 ar  
    28   15   18 1   
    29   16   17 ar  
    30   16   38 1   
    31   17   36 1   
    32   20   21 1   
    33   21   41 1   
    34   21   42 1   
    35   21   43 1   
    36   22   23 1   
    37   22   48 1   
    38   22   60 1   
    39   23   24 1   
    40   23   28 2   
    41   24   25 2   
    42   24   37 1   
    43   25   26 1   
    44   25   44 1   
    45   26   27 1   
    46   26   45 1   
    47   26   46 1   
    48   27   29 1   
    49   27   33 1   
    50   29   30 1   
    51   29   49 1   
    52   29   50 1   
    53   30   31 1   
    54   30   51 1   
    55   30   52 1   
    56   31   32 1   
    57   31   53 1   
    58   31   54 1   
    59   32   33 1   
    60   32   55 1   
    61   32   56 1   
    62   33   57 1   
    63   33   58 1   
@<TRIPOS>SUBSTRUCTURE
     1 1C9         1 TEMP              0 ****  ****    0 ROOT
