@<TRIPOS>MOLECULE
1C9
   58    61     1     0     0
SMALL
bcc


@<TRIPOS>ATOM
      1 C1         -0.0050    0.7230   -0.1050 ca        1 1C9      0.046600
      2 C2          1.4350    0.5970   -0.2040 ca        1 1C9      0.122100
      3 C3          2.2030    0.2640    0.8880 ca        1 1C9     -0.251300
      4 C4          1.5940    0.0150    2.1550 ca        1 1C9      0.448600
      5 C5          0.1750    0.1220    2.2610 ca        1 1C9     -0.288600
      6 C6         -0.5900    0.4980    1.1360 ca        1 1C9     -0.110000
      7 N7          2.3860   -0.3200    3.2380 nb        1 1C9     -0.717000
      8 C8          1.7420   -0.5410    4.3830 ca        1 1C9      0.669900
      9 N9          0.3900   -0.4950    4.6240 nb        1 1C9     -0.773000
     10 C10        -0.4030   -0.1680    3.5780 ca        1 1C9      0.702200
     11 N14        -1.7880   -0.0620    3.7390 nh        1 1C9     -0.726300
     12 C15        -2.4620   -0.4160    4.9280 ca        1 1C9      0.137600
     13 C16        -3.5920   -1.2600    4.8570 ca        1 1C9     -0.147000
     14 C17        -4.3290   -1.5590    6.0030 ca        1 1C9     -0.004600
     15 C18        -3.9420   -1.0290    7.2510 ca        1 1C9      0.118900
     16 C19        -2.8130   -0.1900    7.3190 ca        1 1C9     -0.146000
     17 C20        -2.0870    0.1190    6.1790 ca        1 1C9     -0.089000
     18 F21        -4.6300   -1.3050    8.3820 f         1 1C9     -0.126900
     19 CL         -5.6840   -2.5720    5.8560 cl        1 1C9     -0.069400
     20 O11         1.9610    0.8420   -1.4600 os        1 1C9     -0.344900
     21 C12         3.3770    0.7610   -1.5840 c3        1 1C9      0.116700
     22 N13        -0.7410    1.0970   -1.2400 n         1 1C9     -0.457100
     23 C26        -2.0940    0.8520   -1.4600 c         1 1C9      0.674300
     24 C24        -2.6150    1.2520   -2.7890 ce        1 1C9     -0.274200
     25 C23        -3.8510    0.9620   -3.2200 c2        1 1C9     -0.048200
     26 C25        -4.8640    0.2100   -2.4210 c3        1 1C9      0.178000
     27 N33        -6.0930   -0.0660   -3.1570 n3        1 1C9     -0.735600
     28 O27        -2.8220    0.3470   -0.5800 o         1 1C9     -0.620100
     29 C30        -5.9160   -1.1260   -4.1410 c3        1 1C9      0.170800
     30 C31        -7.1880   -1.4360   -4.9280 c3        1 1C9     -0.077900
     31 C32        -8.3440   -1.7290   -3.9950 c3        1 1C9     -0.078400
     32 C33        -8.5210   -0.5990   -3.0040 c3        1 1C9     -0.077900
     33 C34        -7.2190   -0.3030   -2.2620 c3        1 1C9      0.170800
     34 H6         -1.6820    0.6290    1.2280 ha        1 1C9      0.171000
     35 H8          2.3590   -0.8090    5.2680 h5        1 1C9      0.053100
     36 H20        -1.2140    0.7850    6.2660 ha        1 1C9      0.163000
     37 H24        -1.9350    1.8290   -3.4390 ha        1 1C9      0.136000
     38 H19        -2.5150    0.2220    8.2960 ha        1 1C9      0.156000
     39 H3          3.2980    0.1780    0.8120 ha        1 1C9      0.162000
     40 H16        -3.9080   -1.6900    3.8930 ha        1 1C9      0.152000
     41 H12         3.8740    1.5110   -0.9210 h1        1 1C9      0.051367
     42 H12A        3.5540    1.0050   -2.6620 h1        1 1C9      0.051367
     43 H12B        3.7330   -0.2720   -1.3490 h1        1 1C9      0.051367
     44 H23        -4.1640    1.3080   -4.2230 ha        1 1C9      0.144000
     45 H25        -4.3820   -0.7370   -2.0260 h1        1 1C9      0.071200
     46 H25A       -5.1120    0.8390   -1.5140 h1        1 1C9      0.071200
     47 HN14       -2.3190   -0.2070    2.9040 hn        1 1C9      0.443800
     48 HN13       -0.1950    1.4060   -2.0160 hn        1 1C9      0.332500
     49 H161       -5.1160   -0.7880   -4.8580 h1        1 1C9      0.030450
     50 H17        -5.5560   -2.0830   -3.6570 h1        1 1C9      0.030450
     51 H18        -6.9900   -2.3190   -5.5870 hc        1 1C9      0.047200
     52 H191       -7.4470   -0.5670   -5.5870 hc        1 1C9      0.047200
     53 H201       -8.1490   -2.6870   -3.4450 hc        1 1C9      0.041200
     54 H21        -9.2850   -1.8660   -4.5880 hc        1 1C9      0.041200
     55 H22        -8.8670    0.3220   -3.5410 hc        1 1C9      0.047200
     56 H231       -9.3030   -0.8690   -2.2480 hc        1 1C9      0.047200
     57 H241       -7.3610    0.6270   -1.6430 h1        1 1C9      0.030450
     58 H251       -7.0080   -1.1580   -1.5530 h1        1 1C9      0.030450
@<TRIPOS>BOND
     1    1    2 ar  
     2    1    6 ar  
     3    1   22 1   
     4    2    3 ar  
     5    2   20 1   
     6    3    4 ar  
     7    3   39 1   
     8    4    5 ar  
     9    4    7 ar  
    10    5    6 ar  
    11    5   10 ar  
    12    6   34 1   
    13    7    8 ar  
    14    8    9 ar  
    15    8   35 1   
    16    9   10 ar  
    17   10   11 1   
    18   11   12 1   
    19   11   47 1   
    20   12   13 ar  
    21   12   17 ar  
    22   13   14 ar  
    23   13   40 1   
    24   14   15 ar  
    25   14   19 1   
    26   15   16 ar  
    27   15   18 1   
    28   16   17 ar  
    29   16   38 1   
    30   17   36 1   
    31   20   21 1   
    32   21   41 1   
    33   21   42 1   
    34   21   43 1   
    35   22   23 1   
    36   22   48 1   
    37   23   24 1   
    38   23   28 2   
    39   24   25 2   
    40   24   37 1   
    41   25   26 1   
    42   25   44 1   
    43   26   27 1   
    44   26   45 1   
    45   26   46 1   
    46   27   29 1   
    47   27   33 1   
    48   29   30 1   
    49   29   49 1   
    50   29   50 1   
    51   30   31 1   
    52   30   51 1   
    53   30   52 1   
    54   31   32 1   
    55   31   53 1   
    56   31   54 1   
    57   32   33 1   
    58   32   55 1   
    59   32   56 1   
    60   33   57 1   
    61   33   58 1   
@<TRIPOS>SUBSTRUCTURE
     1 1C9         1 TEMP              0 ****  ****    0 ROOT
