@<TRIPOS>MOLECULE
1C9
   58    61     1     0     0
SMALL
bcc


@<TRIPOS>ATOM
      1 C1         -0.0270    0.7900   -0.0920 ca        1 1C9      0.046600
      2 C2          1.4160    0.7000   -0.1910 ca        1 1C9      0.122100
      3 C3          2.1910    0.3730    0.8980 ca        1 1C9     -0.251300
      4 C4          1.5870    0.0950    2.1610 ca        1 1C9      0.448600
      5 C5          0.1650    0.1670    2.2670 ca        1 1C9     -0.288600
      6 C6         -0.6070    0.5380    1.1450 ca        1 1C9     -0.110000
      7 N7          2.3860   -0.2340    3.2410 nb        1 1C9     -0.717000
      8 C8          1.7460   -0.4830    4.3830 ca        1 1C9      0.669900
      9 N9          0.3930   -0.4720    4.6230 nb        1 1C9     -0.773000
     10 C10        -0.4060   -0.1510    3.5800 ca        1 1C9      0.702200
     11 N14        -1.7940   -0.0800    3.7410 nu        1 1C9     -0.726300
     12 C15        -2.4600   -0.4640    4.9250 ca        1 1C9      0.137600
     13 C16        -3.5690   -1.3330    4.8430 ca        1 1C9     -0.147000
     14 C17        -4.3000   -1.6630    5.9840 ca        1 1C9     -0.004600
     15 C18        -3.9260   -1.1390    7.2390 ca        1 1C9      0.118900
     16 C19        -2.8180   -0.2740    7.3180 ca        1 1C9     -0.146000
     17 C20        -2.0990    0.0650    6.1830 ca        1 1C9     -0.089000
     18 F21        -4.6090   -1.4450    8.3660 f         1 1C9     -0.126900
     19 Cl         -5.6300   -2.7070    5.8240 cl        1 1C9     -0.069400
     20 O11         1.9370    0.9710   -1.4430 os        1 1C9     -0.344900
     21 C12         3.3560    0.9260   -1.5660 c3        1 1C9      0.116700
     22 N13        -0.7700    1.1600   -1.2240 ns        1 1C9     -0.457100
     23 C26        -2.1170    0.8860   -1.4480 c         1 1C9      0.674300
     24 C24        -2.6460    1.2890   -2.7730 ce        1 1C9     -0.274200
     25 C23        -3.8740    0.9760   -3.2080 c2        1 1C9     -0.048200
     26 C25        -4.8710    0.1930   -2.4180 c3        1 1C9      0.178000
     27 N33        -6.0930   -0.1020   -3.1580 n3        1 1C9     -0.735600
     28 O27        -2.8340    0.3550   -0.5740 o         1 1C9     -0.620100
     29 C30        -5.8930   -1.1470   -4.1530 c3        1 1C9      0.170800
     30 C31        -7.1580   -1.4750   -4.9440 c3        1 1C9     -0.077900
     31 C32        -8.3070   -1.8040   -4.0150 c3        1 1C9     -0.078400
     32 C33        -8.5090   -0.6900   -3.0120 c3        1 1C9     -0.077900
     33 C34        -7.2140   -0.3730   -2.2670 c3        1 1C9      0.170800
     34 H6         -1.7020    0.6420    1.2380 ha        1 1C9      0.171000
     35 H8          2.3680   -0.7470    5.2650 h5        1 1C9      0.053100
     36 H20        -1.2420    0.7510    6.2780 ha        1 1C9      0.163000
     37 H24        -1.9780    1.8870   -3.4160 ha        1 1C9      0.136000
     38 H19        -2.5310    0.1340    8.2990 ha        1 1C9      0.156000
     39 H3          3.2880    0.3130    0.8230 ha        1 1C9      0.162000
     40 H16        -3.8740   -1.7590    3.8730 ha        1 1C9      0.152000
     41 H12         3.7360   -0.1000   -1.3430 h1        1 1C9      0.051367
     42 H12A        3.8330    1.6800   -0.8940 h1        1 1C9      0.051367
     43 H12B        3.5270    1.1870   -2.6420 h1        1 1C9      0.051367
     44 H23        -4.1950    1.3250   -4.2080 ha        1 1C9      0.144000
     45 H25        -4.3680   -0.7470   -2.0330 h1        1 1C9      0.071200
     46 H25A       -5.1340    0.8060   -1.5040 h1        1 1C9      0.071200
     47 HN14       -2.3210   -0.2270    2.9040 hn        1 1C9      0.443800
     48 HN13       -0.2310    1.4900   -1.9960 hn        1 1C9      0.332500
     49 H161       -5.5120   -2.1000   -3.6800 h1        1 1C9      0.030450
     50 H17        -5.1000   -0.7830   -4.8660 h1        1 1C9      0.030450
     51 H18        -6.9400   -2.3470   -5.6130 hc        1 1C9      0.047200
     52 H191       -7.4360   -0.6050   -5.5930 hc        1 1C9      0.047200
     53 H201       -9.2450   -1.9560   -4.6100 hc        1 1C9      0.041200
     54 H21        -8.0920   -2.7630   -3.4750 hc        1 1C9      0.041200
     55 H22        -8.8750    0.2290   -3.5390 hc        1 1C9      0.047200
     56 H231       -9.2850   -0.9840   -2.2590 hc        1 1C9      0.047200
     57 H241       -6.9850   -1.2310   -1.5670 h1        1 1C9      0.030450
     58 H251       -7.3770    0.5470   -1.6370 h1        1 1C9      0.030450
@<TRIPOS>BOND
     1    1    2 ar  
     2    1    6 ar  
     3    1   22 1   
     4    2    3 ar  
     5    2   20 1   
     6    3    4 ar  
     7    3   39 1   
     8    4    5 ar  
     9    4    7 ar  
    10    5    6 ar  
    11    5   10 ar  
    12    6   34 1   
    13    7    8 ar  
    14    8    9 ar  
    15    8   35 1   
    16    9   10 ar  
    17   10   11 1   
    18   11   12 1   
    19   11   47 1   
    20   12   13 ar  
    21   12   17 ar  
    22   13   14 ar  
    23   13   40 1   
    24   14   15 ar  
    25   14   19 1   
    26   15   16 ar  
    27   15   18 1   
    28   16   17 ar  
    29   16   38 1   
    30   17   36 1   
    31   20   21 1   
    32   21   41 1   
    33   21   42 1   
    34   21   43 1   
    35   22   23 1   
    36   22   48 1   
    37   23   24 1   
    38   23   28 2   
    39   24   25 2   
    40   24   37 1   
    41   25   26 1   
    42   25   44 1   
    43   26   27 1   
    44   26   45 1   
    45   26   46 1   
    46   27   29 1   
    47   27   33 1   
    48   29   30 1   
    49   29   49 1   
    50   29   50 1   
    51   30   31 1   
    52   30   51 1   
    53   30   52 1   
    54   31   32 1   
    55   31   53 1   
    56   31   54 1   
    57   32   33 1   
    58   32   55 1   
    59   32   56 1   
    60   33   57 1   
    61   33   58 1   
@<TRIPOS>SUBSTRUCTURE
     1 1C9         1 TEMP              0 ****  ****    0 ROOT
