@<TRIPOS>MOLECULE
1CA
   54    56     1     0     0
SMALL
bcc


@<TRIPOS>ATOM
      1 C1          3.3930    1.0520   -1.9680 c3        1 1CA     -0.147000
      2 C2          5.2120    1.3050   -1.6850 c3        1 1CA     -0.211000
      3 C3          5.4620    0.8050   -1.4410 c2        1 1CA      0.261000
      4 C4          4.4890    0.3300    0.3400 c2        1 1CA     -0.243000
      5 C5          2.8840    0.5350    0.1480 c1        1 1CA     -0.019000
      6 C6          1.5680    0.5100    1.5630 c2        1 1CA     -0.134000
      7 C7          0.6200    1.6960    0.8200 c3        1 1CA     -0.148000
      8 C8          0.2210    1.3450   -0.3680 c3        1 1CA     -0.080000
      9 C9          1.0180    0.3120   -0.8600 c3        1 1CA     -0.085000
     10 C10         2.6240    0.2470   -0.6790 c3        1 1CA     -0.023000
     11 C11         0.5550   -1.2190   -0.1220 c3        1 1CA     -0.150000
     12 C12        -1.0520   -1.5260   -0.2150 c3        1 1CA     -0.150000
     13 C13        -1.8380   -0.4250    0.2720 c3        1 1CA     -0.033000
     14 C14        -1.4700    0.9650   -0.4220 c3        1 1CA     -0.099000
     15 C15        -2.2120    1.7900    0.2190 c3        1 1CA     -0.152000
     16 C16        -3.6310    0.9970    0.3020 c3        1 1CA     -0.155000
     17 C17        -3.1790   -0.5440    0.0000 c3        1 1CA     -0.153000
     18 C18        -1.6330   -0.2980    1.8100 c3        1 1CA     -0.211000
     19 C19         3.0170   -1.2270   -0.7730 c3        1 1CA     -0.203000
     20 C20        -3.9230   -1.6260    0.8380 c2        1 1CA      0.206000
     21 C21        -5.3350   -2.0950    0.4190 c3        1 1CA     -0.071000
     22 O3          6.6530    0.6030   -1.5570 o         1 1CA     -0.300000
     23 O20        -3.3680   -2.1480    1.7800 o         1 1CA     -0.292000
     24 O21        -5.8540   -2.9270    1.4000 oh        1 1CA     -0.317000
     25 H11         3.2720    0.5220   -2.7890 hc        1 1CA      0.087500
     26 H12         2.9620    1.9400   -2.0930 hc        1 1CA      0.087500
     27 H21         5.5770    1.6010   -2.5510 hc        1 1CA      0.113000
     28 H22         5.4330    2.0720   -1.1120 hc        1 1CA      0.113000
     29 H4          4.9090    0.5380    1.1950 ha        1 1CA      0.150000
     30 H61         1.1310   -0.3050    1.8180 ha        1 1CA      0.095000
     31 H62         1.9650    0.8150    2.4140 ha        1 1CA      0.095000
     32 H71         1.1490    2.5280    0.7460 hc        1 1CA      0.089500
     33 H72        -0.1650    1.8700    1.3790 hc        1 1CA      0.089500
     34 H8          0.3590    2.1210   -0.9580 hc        1 1CA      0.086000
     35 H9          0.8300    0.2440   -1.8430 hc        1 1CA      0.085000
     36 H111        1.0550   -1.9670   -0.5850 hc        1 1CA      0.085500
     37 H112        0.8200   -1.2040    0.8320 hc        1 1CA      0.085500
     38 H121       -1.2610   -2.3390    0.3290 hc        1 1CA      0.082000
     39 H122       -1.2880   -1.6970   -1.1440 hc        1 1CA      0.082000
     40 H14        -1.7640    0.9380   -1.3730 hc        1 1CA      0.081000
     41 H151       -1.8510    1.9560    1.1200 hc        1 1CA      0.088000
     42 H152       -2.3120    2.6390   -0.2850 hc        1 1CA      0.088000
     43 H161       -4.2500    1.3190   -0.3840 hc        1 1CA      0.097000
     44 H162       -4.0250    1.0760    1.1970 hc        1 1CA      0.097000
     45 H17        -3.3640   -0.8270   -0.9300 hc        1 1CA      0.104000
     46 H181       -1.5500   -1.1840    2.1990 hc        1 1CA      0.084667
     47 H182       -2.4040    0.1630    2.2060 hc        1 1CA      0.084667
     48 H183       -0.8170    0.2170    1.9890 hc        1 1CA      0.084667
     49 H191        3.9410   -1.3020   -1.1190 hc        1 1CA      0.081000
     50 H192        2.4000   -1.6930   -1.3810 hc        1 1CA      0.081000
     51 H193        2.9670   -1.6320    0.1090 hc        1 1CA      0.081000
     52 H211       -5.2800   -2.5830   -0.4270 h1        1 1CA      0.107500
     53 H212       -5.9210   -1.3130    0.3080 h1        1 1CA      0.107500
     54 HO         -6.7440   -2.9740    1.3110 ho        1 1CA      0.219000
@<TRIPOS>BOND
     1    1    2 1   
     2    1   10 1   
     3    1   25 1   
     4    1   26 1   
     5    2    3 1   
     6    2   27 1   
     7    2   28 1   
     8    3    4 1   
     9    3   22 1   
    10    4    5 1   
    11    4   29 1   
    12    5   10 1   
    13    6    7 1   
    14    6   30 1   
    15    6   31 1   
    16    7    8 1   
    17    7   32 1   
    18    7   33 1   
    19    8    9 1   
    20    8   14 1   
    21    8   34 1   
    22    9   10 1   
    23    9   11 1   
    24    9   35 1   
    25   10   19 1   
    26   11   12 1   
    27   11   36 1   
    28   11   37 1   
    29   12   13 1   
    30   12   38 1   
    31   12   39 1   
    32   13   14 1   
    33   13   17 1   
    34   13   18 1   
    35   14   15 1   
    36   14   40 1   
    37   15   16 1   
    38   15   41 1   
    39   15   42 1   
    40   16   17 1   
    41   16   43 1   
    42   16   44 1   
    43   17   20 1   
    44   17   45 1   
    45   18   46 1   
    46   18   47 1   
    47   18   48 1   
    48   19   49 1   
    49   19   50 1   
    50   19   51 1   
    51   20   21 1   
    52   20   23 1   
    53   21   24 1   
    54   21   52 1   
    55   21   53 1   
    56   24   54 1   
@<TRIPOS>SUBSTRUCTURE
     1 1CA         1 TEMP              0 ****  ****    0 ROOT
