@<TRIPOS>MOLECULE
1CA
   54    57     1     0     0
SMALL
bcc


@<TRIPOS>ATOM
      1 C1          0.0370    0.0250    0.0530 c3        1 1CA     -0.070400
      2 C2          1.5380    0.1850    0.1170 c3        1 1CA     -0.182400
      3 C3          2.0350    0.1450    1.5340 c         1 1CA      0.569300
      4 C4          1.3360   -0.7950    2.4180 ce        1 1CA     -0.264200
      5 C5          0.2110   -1.4430    2.0720 c2        1 1CA     -0.029400
      6 C6         -0.3850   -2.4520    2.9950 c3        1 1CA     -0.054200
      7 C7         -1.8740   -2.2550    3.1740 c3        1 1CA     -0.072400
      8 C8         -2.5730   -2.2240    1.8260 c3        1 1CA     -0.050700
      9 C9         -1.9950   -1.0930    0.9630 c3        1 1CA     -0.048700
     10 C10        -0.4740   -1.2520    0.7400 c3        1 1CA     -0.014800
     11 C11        -2.7520   -0.9390   -0.3520 c3        1 1CA     -0.074400
     12 C12        -4.2590   -0.8250   -0.1840 c3        1 1CA     -0.069400
     13 C13        -4.7950   -1.9880    0.6330 c3        1 1CA     -0.038000
     14 C14        -4.0560   -1.9680    1.9930 c3        1 1CA     -0.061700
     15 C15        -4.8830   -2.8890    2.8790 c3        1 1CA     -0.072400
     16 C16        -6.3250   -2.6830    2.4080 c3        1 1CA     -0.075400
     17 C17        -6.2660   -1.8650    1.1040 c3        1 1CA     -0.160700
     18 C18        -4.6320   -3.2930   -0.1290 c3        1 1CA     -0.094100
     19 C19        -0.1470   -2.4550   -0.1400 c3        1 1CA     -0.086100
     20 C20        -7.2620   -2.3290    0.0800 c         1 1CA      0.545100
     21 C21        -7.7680   -1.2610   -0.8640 c3        1 1CA      0.029400
     22 O3          2.9860    0.8360    1.9180 o         1 1CA     -0.534100
     23 O20        -7.6910   -3.4850    0.0020 o         1 1CA     -0.532100
     24 O21        -8.3720   -1.7920   -2.0220 oh        1 1CA     -0.589800
     25 H11        -0.4450    0.9170    0.5340 hc        1 1CA      0.050200
     26 H12        -0.2770    0.0110   -1.0240 hc        1 1CA      0.050200
     27 H21         1.8370    1.1540   -0.3650 hc        1 1CA      0.072200
     28 H22         2.0440   -0.6430   -0.4490 hc        1 1CA      0.072200
     29 H4          1.8060   -0.9480    3.4050 ha        1 1CA      0.148000
     30 H61        -0.1900   -3.4730    2.5650 hc        1 1CA      0.056200
     31 H62         0.1180   -2.4110    3.9990 hc        1 1CA      0.056200
     32 H71        -2.2920   -3.0920    3.7930 hc        1 1CA      0.048200
     33 H72        -2.0680   -1.2990    3.7260 hc        1 1CA      0.048200
     34 H8         -2.4130   -3.2140    1.3180 hc        1 1CA      0.059700
     35 H9         -2.1360   -0.1350    1.5460 hc        1 1CA      0.051700
     36 H111       -2.3890   -0.0140   -0.8750 hc        1 1CA      0.045700
     37 H112       -2.5260   -1.8110   -1.0210 hc        1 1CA      0.045700
     38 H121       -4.5120    0.1420    0.3240 hc        1 1CA      0.043700
     39 H122       -4.7370   -0.8120   -1.1990 hc        1 1CA      0.043700
     40 H14        -4.1640   -0.9250    2.4170 hc        1 1CA      0.047700
     41 H151       -4.5700   -3.9550    2.7490 hc        1 1CA      0.048200
     42 H152       -4.7640   -2.6270    3.9580 hc        1 1CA      0.048200
     43 H161       -6.8220   -3.6690    2.2260 hc        1 1CA      0.057200
     44 H162       -6.9190   -2.1320    3.1760 hc        1 1CA      0.057200
     45 H17        -6.4790   -0.7840    1.3320 hc        1 1CA      0.064700
     46 H181       -5.1740   -3.2310   -1.1050 hc        1 1CA      0.045367
     47 H182       -5.0630   -4.1400    0.4590 hc        1 1CA      0.045367
     48 H183       -3.5590   -3.5130   -0.3400 hc        1 1CA      0.045367
     49 H191       -0.6340   -3.3780    0.2540 hc        1 1CA      0.041367
     50 H192        0.9570   -2.6210   -0.1660 hc        1 1CA      0.041367
     51 H193       -0.4990   -2.2830   -1.1860 hc        1 1CA      0.041367
     52 H211       -8.5060   -0.6170   -0.3110 h1        1 1CA      0.068200
     53 H212       -6.9190   -0.6250   -1.2350 h1        1 1CA      0.068200
     54 HO         -8.8640   -2.5850   -1.7620 ho        1 1CA      0.420000
@<TRIPOS>BOND
     1    1    2 1   
     2    1   10 1   
     3    1   25 1   
     4    1   26 1   
     5    2    3 1   
     6    2   27 1   
     7    2   28 1   
     8    3    4 1   
     9    3   22 2   
    10    4    5 2   
    11    4   29 1   
    12    5    6 1   
    13    5   10 1   
    14    6    7 1   
    15    6   30 1   
    16    6   31 1   
    17    7    8 1   
    18    7   32 1   
    19    7   33 1   
    20    8    9 1   
    21    8   14 1   
    22    8   34 1   
    23    9   10 1   
    24    9   11 1   
    25    9   35 1   
    26   10   19 1   
    27   11   12 1   
    28   11   36 1   
    29   11   37 1   
    30   12   13 1   
    31   12   38 1   
    32   12   39 1   
    33   13   14 1   
    34   13   17 1   
    35   13   18 1   
    36   14   15 1   
    37   14   40 1   
    38   15   16 1   
    39   15   41 1   
    40   15   42 1   
    41   16   17 1   
    42   16   43 1   
    43   16   44 1   
    44   17   20 1   
    45   17   45 1   
    46   18   46 1   
    47   18   47 1   
    48   18   48 1   
    49   19   49 1   
    50   19   50 1   
    51   19   51 1   
    52   20   21 1   
    53   20   23 2   
    54   21   24 1   
    55   21   52 1   
    56   21   53 1   
    57   24   54 1   
@<TRIPOS>SUBSTRUCTURE
     1 1CA         1 TEMP              0 ****  ****    0 ROOT
