@<TRIPOS>MOLECULE
1CA
   54    57     1     0     0
SMALL
bcc


@<TRIPOS>ATOM
      1 C1          0.0370    0.0310    0.0690 c3        1 1CA     -0.070400
      2 C2          1.5380    0.1900    0.1320 c3        1 1CA     -0.182400
      3 C3          2.0360    0.1360    1.5480 c         1 1CA      0.569300
      4 C4          1.3370   -0.8120    2.4250 ce        1 1CA     -0.264200
      5 C5          0.2110   -1.4560    2.0740 c2        1 1CA     -0.029400
      6 C6         -0.3850   -2.4720    2.9880 c3        1 1CA     -0.054200
      7 C7         -1.8740   -2.2760    3.1700 c3        1 1CA     -0.072400
      8 C8         -2.5750   -2.2310    1.8230 c3        1 1CA     -0.050700
      9 C9         -1.9960   -1.0920    0.9700 c3        1 1CA     -0.048700
     10 C10        -0.4750   -1.2510    0.7440 c3        1 1CA     -0.014800
     11 C11        -2.7540   -0.9250   -0.3430 c3        1 1CA     -0.074400
     12 C12        -4.2610   -0.8100   -0.1720 c3        1 1CA     -0.069400
     13 C13        -4.7980   -1.9810    0.6360 c3        1 1CA     -0.038000
     14 C14        -4.0570   -1.9750    1.9940 c3        1 1CA     -0.061700
     15 C15        -4.8830   -2.9030    2.8730 c3        1 1CA     -0.072400
     16 C16        -6.3260   -2.6900    2.4050 c3        1 1CA     -0.075400
     17 C17        -6.2680   -1.8600    1.1090 c3        1 1CA     -0.160700
     18 C18        -4.6370   -3.2780   -0.1390 c3        1 1CA     -0.094100
     19 C19        -0.1510   -2.4460   -0.1480 c3        1 1CA     -0.086100
     20 C20        -7.2650   -2.3130    0.0820 c         1 1CA      0.545100
     21 C21        -7.7710   -1.2360   -0.8520 c3        1 1CA      0.029400
     22 O3          2.9890    0.8210    1.9380 o         1 1CA     -0.534100
     23 O20        -7.6960   -3.4670   -0.0070 o         1 1CA     -0.532100
     24 O21        -8.3770   -1.7550   -2.0140 oh        1 1CA     -0.589800
     25 H11        -0.2780    0.0280   -1.0080 hc        1 1CA      0.050200
     26 H12        -0.4430    0.9200    0.5580 hc        1 1CA      0.050200
     27 H21         1.8380    1.1620   -0.3410 hc        1 1CA      0.072200
     28 H22         2.0420   -0.6340   -0.4420 hc        1 1CA      0.072200
     29 H4          1.8080   -0.9750    3.4090 ha        1 1CA      0.148000
     30 H61        -0.1920   -3.4900    2.5470 hc        1 1CA      0.056200
     31 H62         0.1190   -2.4420    3.9910 hc        1 1CA      0.056200
     32 H71        -2.2930   -3.1180    3.7810 hc        1 1CA      0.048200
     33 H72        -2.0670   -1.3240    3.7310 hc        1 1CA      0.048200
     34 H8         -2.4160   -3.2160    1.3050 hc        1 1CA      0.059700
     35 H9         -2.1360   -0.1400    1.5620 hc        1 1CA      0.051700
     36 H111       -2.3910    0.0040   -0.8570 hc        1 1CA      0.045700
     37 H112       -2.5300   -1.7910   -1.0200 hc        1 1CA      0.045700
     38 H121       -4.5120    0.1520    0.3450 hc        1 1CA      0.043700
     39 H122       -4.7400   -0.7870   -1.1850 hc        1 1CA      0.043700
     40 H14        -4.1630   -0.9360    2.4290 hc        1 1CA      0.047700
     41 H151       -4.7640   -2.6510    3.9540 hc        1 1CA      0.048200
     42 H152       -4.5730   -3.9680    2.7320 hc        1 1CA      0.048200
     43 H161       -6.8240   -3.6740    2.2140 hc        1 1CA      0.057200
     44 H162       -6.9190   -2.1460    3.1790 hc        1 1CA      0.057200
     45 H17        -6.4790   -0.7820    1.3470 hc        1 1CA      0.064700
     46 H181       -5.0680   -4.1310    0.4410 hc        1 1CA      0.045367
     47 H182       -3.5650   -3.4980   -0.3540 hc        1 1CA      0.045367
     48 H183       -5.1800   -3.2070   -1.1140 hc        1 1CA      0.045367
     49 H191       -0.5040   -2.2640   -1.1910 hc        1 1CA      0.041367
     50 H192        0.9530   -2.6140   -0.1770 hc        1 1CA      0.041367
     51 H193       -0.6390   -3.3730    0.2380 hc        1 1CA      0.041367
     52 H211       -8.5080   -0.5960   -0.2920 h1        1 1CA      0.068200
     53 H212       -6.9220   -0.5970   -1.2170 h1        1 1CA      0.068200
     54 HO         -8.8700   -2.5500   -1.7610 ho        1 1CA      0.420000
@<TRIPOS>BOND
     1    1    2 1   
     2    1   10 1   
     3    1   25 1   
     4    1   26 1   
     5    2    3 1   
     6    2   27 1   
     7    2   28 1   
     8    3    4 1   
     9    3   22 2   
    10    4    5 2   
    11    4   29 1   
    12    5    6 1   
    13    5   10 1   
    14    6    7 1   
    15    6   30 1   
    16    6   31 1   
    17    7    8 1   
    18    7   32 1   
    19    7   33 1   
    20    8    9 1   
    21    8   14 1   
    22    8   34 1   
    23    9   10 1   
    24    9   11 1   
    25    9   35 1   
    26   10   19 1   
    27   11   12 1   
    28   11   36 1   
    29   11   37 1   
    30   12   13 1   
    31   12   38 1   
    32   12   39 1   
    33   13   14 1   
    34   13   17 1   
    35   13   18 1   
    36   14   15 1   
    37   14   40 1   
    38   15   16 1   
    39   15   41 1   
    40   15   42 1   
    41   16   17 1   
    42   16   43 1   
    43   16   44 1   
    44   17   20 1   
    45   17   45 1   
    46   18   46 1   
    47   18   47 1   
    48   18   48 1   
    49   19   49 1   
    50   19   50 1   
    51   19   51 1   
    52   20   21 1   
    53   20   23 2   
    54   21   24 1   
    55   21   52 1   
    56   21   53 1   
    57   24   54 1   
@<TRIPOS>SUBSTRUCTURE
     1 1CA         1 TEMP              0 ****  ****    0 ROOT
