@<TRIPOS>MOLECULE
1CA
   54    57     1     0     0
SMALL
bcc


@<TRIPOS>ATOM
      1 C1          3.0570    1.6730    0.3080 c3        1 1CA     -0.070400
      2 C2          4.5430    1.7710    0.0490 c3        1 1CA     -0.182400
      3 C3          5.2470    0.4940    0.4050 c         1 1CA      0.569300
      4 C4          4.5070   -0.7380    0.1060 ce        1 1CA     -0.264200
      5 C5          3.2190   -0.7540   -0.2780 c2        1 1CA     -0.029400
      6 C6          2.5670   -2.0420   -0.6520 c3        1 1CA     -0.054200
      7 C7          1.2170   -2.2150    0.0100 c3        1 1CA     -0.072400
      8 C8          0.3280   -1.0160   -0.2720 c3        1 1CA     -0.050700
      9 C9          1.0030    0.2670    0.2390 c3        1 1CA     -0.048700
     10 C10         2.3840    0.4960   -0.4160 c3        1 1CA     -0.014800
     11 C11         0.0930    1.4820    0.0940 c3        1 1CA     -0.074400
     12 C12        -1.2950    1.2850    0.6840 c3        1 1CA     -0.069400
     13 C13        -1.9440    0.0330    0.1170 c3        1 1CA     -0.038000
     14 C14        -1.0030   -1.1530    0.4370 c3        1 1CA     -0.061700
     15 C15        -1.8610   -2.3860    0.1910 c3        1 1CA     -0.072400
     16 C16        -3.2730   -1.9590    0.6040 c3        1 1CA     -0.075400
     17 C17        -3.2440   -0.4340    0.8190 c3        1 1CA     -0.160700
     18 C18        -2.2230    0.2060   -1.3670 c3        1 1CA     -0.094100
     19 C19         2.2650    0.8280   -1.9010 c3        1 1CA     -0.086100
     20 C20        -4.4780    0.2500    0.3070 c         1 1CA      0.545100
     21 C21        -4.8710    1.5150    1.0370 c3        1 1CA      0.029400
     22 O3          6.3850    0.4820    0.8890 o         1 1CA     -0.534100
     23 O20        -5.1750   -0.1760   -0.6210 o         1 1CA     -0.532100
     24 O21        -5.7690    2.3170    0.3040 oh        1 1CA     -0.589800
     25 H11         2.8870    1.5700    1.4120 hc        1 1CA      0.050200
     26 H12         2.5720    2.6300   -0.0210 hc        1 1CA      0.050200
     27 H21         4.9760    2.6220    0.6370 hc        1 1CA      0.072200
     28 H22         4.7370    1.9790   -1.0380 hc        1 1CA      0.072200
     29 H4          5.0870   -1.6710    0.2090 ha        1 1CA      0.148000
     30 H61         3.2260   -2.9100   -0.3810 hc        1 1CA      0.056200
     31 H62         2.4400   -2.0550   -1.7700 hc        1 1CA      0.056200
     32 H71         1.3490   -2.3400    1.1170 hc        1 1CA      0.048200
     33 H72         0.7240   -3.1450   -0.3770 hc        1 1CA      0.048200
     34 H8          0.1630   -0.9470   -1.3810 hc        1 1CA      0.059700
     35 H9          1.1900    0.1170    1.3430 hc        1 1CA      0.051700
     36 H111       -0.0090    1.7490   -0.9910 hc        1 1CA      0.045700
     37 H112        0.5690    2.3570    0.6110 hc        1 1CA      0.045700
     38 H121       -1.9210    2.1850    0.4500 hc        1 1CA      0.043700
     39 H122       -1.2240    1.2010    1.8000 hc        1 1CA      0.043700
     40 H14        -0.7890   -1.1210    1.5470 hc        1 1CA      0.047700
     41 H151       -1.8350   -2.6830   -0.8870 hc        1 1CA      0.048200
     42 H152       -1.5050   -3.2550    0.7950 hc        1 1CA      0.048200
     43 H161       -4.0110   -2.2250   -0.1940 hc        1 1CA      0.057200
     44 H162       -3.5830   -2.4710    1.5480 hc        1 1CA      0.057200
     45 H17        -3.1550   -0.2140    1.9180 hc        1 1CA      0.064700
     46 H181       -1.2840    0.3730   -1.9440 hc        1 1CA      0.045367
     47 H182       -2.7360   -0.7010   -1.7710 hc        1 1CA      0.045367
     48 H183       -2.8920    1.0870   -1.5250 hc        1 1CA      0.045367
     49 H191        3.2790    0.8500   -2.3700 hc        1 1CA      0.041367
     50 H192        1.6480    0.0630   -2.4300 hc        1 1CA      0.041367
     51 H193        1.7920    1.8290   -2.0420 hc        1 1CA      0.041367
     52 H211       -5.3330    1.2290    2.0220 h1        1 1CA      0.068200
     53 H212       -3.9710    2.1630    1.2190 h1        1 1CA      0.068200
     54 HO         -6.3830    1.7270   -0.1590 ho        1 1CA      0.420000
@<TRIPOS>BOND
     1    1    2 1   
     2    1   10 1   
     3    1   25 1   
     4    1   26 1   
     5    2    3 1   
     6    2   27 1   
     7    2   28 1   
     8    3    4 1   
     9    3   22 2   
    10    4    5 2   
    11    4   29 1   
    12    5    6 1   
    13    5   10 1   
    14    6    7 1   
    15    6   30 1   
    16    6   31 1   
    17    7    8 1   
    18    7   32 1   
    19    7   33 1   
    20    8    9 1   
    21    8   14 1   
    22    8   34 1   
    23    9   10 1   
    24    9   11 1   
    25    9   35 1   
    26   10   19 1   
    27   11   12 1   
    28   11   36 1   
    29   11   37 1   
    30   12   13 1   
    31   12   38 1   
    32   12   39 1   
    33   13   14 1   
    34   13   17 1   
    35   13   18 1   
    36   14   15 1   
    37   14   40 1   
    38   15   16 1   
    39   15   41 1   
    40   15   42 1   
    41   16   17 1   
    42   16   43 1   
    43   16   44 1   
    44   17   20 1   
    45   17   45 1   
    46   18   46 1   
    47   18   47 1   
    48   18   48 1   
    49   19   49 1   
    50   19   50 1   
    51   19   51 1   
    52   20   21 1   
    53   20   23 2   
    54   21   24 1   
    55   21   52 1   
    56   21   53 1   
    57   24   54 1   
@<TRIPOS>SUBSTRUCTURE
     1 1CA         1 TEMP              0 ****  ****    0 ROOT
