@<TRIPOS>MOLECULE
1CB
   17    17     1     0     0
SMALL
bcc


@<TRIPOS>ATOM
      1 C2         -0.0380   -1.2180    0.0250 c3        1 1CB     -0.096900
      2 C1          0.7830    0.0170   -0.4000 c3        1 1CB      0.161500
      3 C4         -0.0670    1.2300    0.0460 c3        1 1CB     -0.096900
      4 C5         -1.5080    0.7510    0.1110 c3        1 1CB     -0.078400
      5 C3         -1.4910   -0.7720    0.0740 c3        1 1CB     -0.078400
      6 N2          2.1530   -0.0110    0.0600 n3        1 1CB     -0.899800
      7 H21         0.1110   -2.0490   -0.7060 hc        1 1CB      0.043700
      8 H22         0.2860   -1.5910    1.0290 hc        1 1CB      0.043700
      9 H1          0.8310    0.0310   -1.5300 h1        1 1CB      0.058700
     10 H41         0.2620    1.5980    1.0500 hc        1 1CB      0.043700
     11 H42         0.0480    2.0740   -0.6760 hc        1 1CB      0.043700
     12 H51        -2.0930    1.1530   -0.7540 hc        1 1CB      0.040950
     13 H52        -2.0030    1.1200    1.0440 hc        1 1CB      0.040950
     14 H31        -2.0420   -1.1430   -0.8260 hc        1 1CB      0.040950
     15 H32        -2.0010   -1.1980    0.9740 hc        1 1CB      0.040950
     16 HN21        2.6120    0.8470   -0.1770 hn        1 1CB      0.345800
     17 HN22        2.1960   -0.1370    1.0520 hn        1 1CB      0.345800
@<TRIPOS>BOND
     1    1    2 1   
     2    1    5 1   
     3    1    7 1   
     4    1    8 1   
     5    2    3 1   
     6    2    6 1   
     7    2    9 1   
     8    3    4 1   
     9    3   10 1   
    10    3   11 1   
    11    4    5 1   
    12    4   12 1   
    13    4   13 1   
    14    5   14 1   
    15    5   15 1   
    16    6   16 1   
    17    6   17 1   
@<TRIPOS>SUBSTRUCTURE
     1 1CB         1 TEMP              0 ****  ****    0 ROOT
