@<TRIPOS>MOLECULE
1CB
   18    18     1     0     0
SMALL
bcc


@<TRIPOS>ATOM
      1 C2          0.0550    0.2130   -0.1020 c3        1 1CB     -0.108400
      2 C1          1.5830    0.0320   -0.0620 c3        1 1CB      0.117500
      3 C4          1.9860    0.3950    1.3770 c3        1 1CB     -0.108400
      4 C5          0.7660    0.1300    2.2480 c3        1 1CB     -0.096400
      5 C3         -0.4400    0.0150    1.3240 c3        1 1CB     -0.096400
      6 N2          1.9790   -1.3800   -0.4060 nz        1 1CB     -0.841600
      7 H21        -0.4540   -0.4780   -0.8190 hc        1 1CB      0.086200
      8 H22        -0.1530    1.2600   -0.4470 hc        1 1CB      0.086200
      9 H1          2.0980    0.6940   -0.8160 hx        1 1CB      0.113700
     10 H41         2.8850   -0.1630    1.7390 hc        1 1CB      0.086200
     11 H42         2.2480    1.4860    1.3910 hc        1 1CB      0.086200
     12 H51         0.8990   -0.8100    2.8410 hc        1 1CB      0.074700
     13 H52         0.6280    0.9630    2.9840 hc        1 1CB      0.074700
     14 H31        -1.2120    0.7880    1.5760 hc        1 1CB      0.074700
     15 H32        -0.9310   -0.9840    1.4380 hc        1 1CB      0.074700
     16 HN21        1.5350   -2.0280    0.2530 hn        1 1CB      0.458800
     17 HN22        2.9950   -1.4830   -0.3410 hn        1 1CB      0.458800
     18 H23         1.6720   -1.6080   -1.3550 hn        1 1CB      0.458800
@<TRIPOS>BOND
     1    1    2 1   
     2    1    5 1   
     3    1    7 1   
     4    1    8 1   
     5    2    3 1   
     6    2    6 1   
     7    2    9 1   
     8    3    4 1   
     9    3   10 1   
    10    3   11 1   
    11    4    5 1   
    12    4   12 1   
    13    4   13 1   
    14    5   14 1   
    15    5   15 1   
    16    6   16 1   
    17    6   17 1   
    18    6   18 1   
@<TRIPOS>SUBSTRUCTURE
     1 1CB         1 TEMP              0 ****  ****    0 ROOT
