@<TRIPOS>MOLECULE
1CB
   18    18     1     0     0
SMALL
bcc


@<TRIPOS>ATOM
      1 C2          0.0440    0.2030   -0.0920 c3        1 1CB     -0.108400
      2 C1          1.5680   -0.0060   -0.0820 c3        1 1CB      0.117500
      3 C4          2.0130    0.3970    1.3350 c3        1 1CB     -0.108400
      4 C5          0.8080    0.1870    2.2420 c3        1 1CB     -0.096400
      5 C3         -0.4220    0.0660    1.3510 c3        1 1CB     -0.096400
      6 N2          1.9280   -1.4370   -0.3850 n4        1 1CB     -0.841600
      7 H21        -0.1520    1.2420   -0.4700 hc        1 1CB      0.086200
      8 H22        -0.4950   -0.5010   -0.7730 hc        1 1CB      0.086200
      9 H1          2.0780    0.6190   -0.8700 hx        1 1CB      0.113700
     10 H41         2.2950    1.4830    1.3040 hc        1 1CB      0.086200
     11 H42         2.9090   -0.1660    1.6940 hc        1 1CB      0.086200
     12 H51         0.7040    1.0470    2.9520 hc        1 1CB      0.074700
     13 H52         0.9370   -0.7350    2.8640 hc        1 1CB      0.074700
     14 H31        -0.9290   -0.9190    1.5110 hc        1 1CB      0.074700
     15 H32        -1.1710    0.8630    1.5930 hc        1 1CB      0.074700
     16 HN21        2.9440   -1.5590   -0.3400 hn        1 1CB      0.458800
     17 HN22        1.5940   -1.6920   -1.3180 hn        1 1CB      0.458800
     18 H23         1.4880   -2.0530    0.3070 hn        1 1CB      0.458800
@<TRIPOS>BOND
     1    1    2 1   
     2    1    5 1   
     3    1    7 1   
     4    1    8 1   
     5    2    3 1   
     6    2    6 1   
     7    2    9 1   
     8    3    4 1   
     9    3   10 1   
    10    3   11 1   
    11    4    5 1   
    12    4   12 1   
    13    4   13 1   
    14    5   14 1   
    15    5   15 1   
    16    6   16 1   
    17    6   17 1   
    18    6   18 1   
@<TRIPOS>SUBSTRUCTURE
     1 1CB         1 TEMP              0 ****  ****    0 ROOT
