@<TRIPOS>MOLECULE
1CB
   17    17     1     0     0
SMALL
bcc


@<TRIPOS>ATOM
      1 C2         -0.8110    0.0380   -0.7910 c3        1 1CB     -0.079400
      2 C1          0.5440    0.0380   -0.7910 c3        1 1CB      0.168500
      3 C4          0.9580    0.0380    0.7480 c3        1 1CB     -0.079400
      4 C5         -0.4110    0.0380    1.5610 c3        1 1CB     -0.077400
      5 C3         -1.2700    0.7540    0.6130 c3        1 1CB     -0.077400
      6 N2          1.0450   -1.1480   -1.4450 n3        1 1CB     -0.910800
      7 H21        -1.1470   -0.8780   -0.8260 hc        1 1CB      0.047700
      8 H22        -1.1470    0.5480   -1.5530 hc        1 1CB      0.047700
      9 H1          0.8830    0.8390   -1.2340 h1        1 1CB      0.005700
     10 H41         1.4750   -0.7630    0.9590 hc        1 1CB      0.047700
     11 H42         1.4750    0.8390    0.9590 hc        1 1CB      0.047700
     12 H51        -0.3240    0.5300    2.4000 hc        1 1CB      0.040200
     13 H52        -0.7320   -0.8710    1.7110 hc        1 1CB      0.040200
     14 H31        -1.0680    1.7090    0.6050 hc        1 1CB      0.040200
     15 H32        -2.2140    0.5920    0.8000 hc        1 1CB      0.040200
     16 HN21        1.9550   -1.1630   -1.3920 hn        1 1CB      0.349800
     17 HN22        0.7910   -1.1430   -2.3210 hn        1 1CB      0.349800
@<TRIPOS>BOND
     1    1    2 1   
     2    1    5 1   
     3    1    7 1   
     4    1    8 1   
     5    2    3 1   
     6    2    6 1   
     7    2    9 1   
     8    3    4 1   
     9    3   10 1   
    10    3   11 1   
    11    4    5 1   
    12    4   12 1   
    13    4   13 1   
    14    5   14 1   
    15    5   15 1   
    16    6   16 1   
    17    6   17 1   
@<TRIPOS>SUBSTRUCTURE
     1 1CB         1 TEMP              0 ****  ****    0 ROOT
