@<TRIPOS>MOLECULE
1CB
   18    18     1     0     0
SMALL
bcc


@<TRIPOS>ATOM
      1 C2          0.0150    0.1740   -0.0690 c3        1 1CB     -0.108400
      2 C1          1.5430   -0.0030   -0.0980 c3        1 1CB      0.117500
      3 C4          2.0170    0.4250    1.3010 c3        1 1CB     -0.108400
      4 C5          0.8420    0.2010    2.2440 c3        1 1CB     -0.096400
      5 C3         -0.4080    0.0420    1.3870 c3        1 1CB     -0.096400
      6 N2          1.9250   -1.4290   -0.3960 n4        1 1CB     -0.841600
      7 H21        -0.2140    1.2050   -0.4520 hc        1 1CB      0.086200
      8 H22        -0.5280   -0.5490   -0.7280 hc        1 1CB      0.086200
      9 H1          2.0170    0.6240   -0.9070 hx        1 1CB      0.113700
     10 H41         2.2760    1.5160    1.2520 hc        1 1CB      0.086200
     11 H42         2.9340   -0.1150    1.6420 hc        1 1CB      0.086200
     12 H51         1.0080   -0.7110    2.8720 hc        1 1CB      0.074700
     13 H52         0.7390    1.0670    2.9460 hc        1 1CB      0.074700
     14 H31        -0.8890   -0.9520    1.5710 hc        1 1CB      0.074700
     15 H32        -1.1690    0.8250    1.6420 hc        1 1CB      0.074700
     16 HN21        1.5710   -1.7010   -1.3180 hn        1 1CB      0.458800
     17 HN22        2.9440   -1.5290   -0.3780 hn        1 1CB      0.458800
     18 H23         1.5170   -2.0470    0.3130 hn        1 1CB      0.458800
@<TRIPOS>BOND
     1    1    2 1   
     2    1    5 1   
     3    1    7 1   
     4    1    8 1   
     5    2    3 1   
     6    2    6 1   
     7    2    9 1   
     8    3    4 1   
     9    3   10 1   
    10    3   11 1   
    11    4    5 1   
    12    4   12 1   
    13    4   13 1   
    14    5   14 1   
    15    5   15 1   
    16    6   16 1   
    17    6   17 1   
    18    6   18 1   
@<TRIPOS>SUBSTRUCTURE
     1 1CB         1 TEMP              0 ****  ****    0 ROOT
