@<TRIPOS>MOLECULE
1CC
   34    35     1     0     0
SMALL
bcc


@<TRIPOS>ATOM
      1 P           5.1770   -0.5070    0.1710 p5        1 1CC      1.333900
      2 OP1         4.6040   -1.8970   -0.0220 o         1 1CC     -0.937500
      3 OP2         5.4310    0.2510   -1.1020 o         1 1CC     -0.937500
      4 O5'         3.7870    0.2960    0.8270 os        1 1CC     -0.571200
      5 C5'         2.6960    0.3360   -0.0050 c3        1 1CC      0.233400
      6 C4'         1.6170   -0.6630    0.4690 c3        1 1CC      0.071100
      7 C3'         1.5060   -1.9390   -0.3930 c3        1 1CC      0.155100
      8 C2'        -0.0010   -2.1650   -0.5930 c3        1 1CC     -0.122400
      9 C1'        -0.6720   -1.0500    0.2390 c3        1 1CC      0.306500
     10 O4'         0.3150   -0.0240    0.4440 os        1 1CC     -0.437600
     11 N1         -1.9220   -0.4940   -0.2820 n         1 1CC     -0.367000
     12 C6         -2.9480   -0.2650    0.6080 cc        1 1CC      0.073600
     13 C5         -4.1710    0.2540    0.2430 cd        1 1CC     -0.422800
     14 C4         -4.3360    0.6100   -1.1640 cd        1 1CC      0.741500
     15 N4         -5.5830    1.0380   -1.6130 nh        1 1CC     -0.911800
     16 N3         -3.3350    0.4800   -2.0530 nc        1 1CC     -0.782100
     17 C2         -2.1120   -0.0800   -1.6470 c         1 1CC      0.832900
     18 O2         -1.2010   -0.2520   -2.4860 o         1 1CC     -0.646500
     19 C21        -5.2290    0.4470    1.2990 c         1 1CC      0.932800
     20 O22        -5.1250   -0.2090    2.3750 o         1 1CC     -0.856800
     21 O23        -6.1840    1.2640    1.1010 o         1 1CC     -0.856800
     22 O3'         2.0450   -3.0630    0.2670 oh        1 1CC     -0.685800
     23 H3          2.2350    1.3670    0.0270 h1        1 1CC      0.007200
     24 H4          2.9920    0.1020   -1.0670 h1        1 1CC      0.007200
     25 H5          1.8210   -0.9470    1.5380 h1        1 1CC      0.056700
     26 H6          2.0280   -1.7940   -1.3770 h1        1 1CC      0.066700
     27 H7         -0.2590   -2.0950   -1.6760 hc        1 1CC      0.055700
     28 H8         -0.3110   -3.1650   -0.2080 hc        1 1CC      0.055700
     29 H9         -0.9190   -1.4700    1.2660 h2        1 1CC      0.030700
     30 H10        -2.7780   -0.5320    1.6730 h4        1 1CC      0.176000
     31 H11        -6.1940    1.3530   -0.8810 hn        1 1CC      0.416800
     32 H12        -5.5910    1.5770   -2.4470 hn        1 1CC      0.416800
     33 H14         3.0150   -2.8930    0.3330 ho        1 1CC      0.502000
     34 OP3         6.2010   -0.3620    1.2600 o         1 1CC     -0.937500
@<TRIPOS>BOND
     1    1    2 1   
     2    1    3 1   
     3    1    4 1   
     4    1   34 1   
     5    4    5 1   
     6    5    6 1   
     7    5   23 1   
     8    5   24 1   
     9    6    7 1   
    10    6   10 1   
    11    6   25 1   
    12    7    8 1   
    13    7   22 1   
    14    7   26 1   
    15    8    9 1   
    16    8   27 1   
    17    8   28 1   
    18    9   10 1   
    19    9   11 1   
    20    9   29 1   
    21   11   12 1   
    22   11   17 1   
    23   12   13 2   
    24   12   30 1   
    25   13   14 1   
    26   13   19 1   
    27   14   15 1   
    28   14   16 2   
    29   15   31 1   
    30   15   32 1   
    31   16   17 1   
    32   17   18 2   
    33   19   20 1   
    34   19   21 1   
    35   22   33 1   
@<TRIPOS>SUBSTRUCTURE
     1 1CC         1 TEMP              0 ****  ****    0 ROOT
