@<TRIPOS>MOLECULE
1CC
   34    30     1     0     0
SMALL
bcc


@<TRIPOS>ATOM
      1 P           3.4840   -2.9840    2.9800 p3        1 1CC      2.527000
      2 OP1         4.9950   -2.9630    2.9780 o         1 1CC     -1.248000
      3 OP2         2.9830   -3.0340    4.4060 os        1 1CC     -0.948000
      4 O5'         2.9360   -1.6750    2.2730 os        1 1CC     -0.731000
      5 C5'         1.5400   -1.5460    2.0820 c3        1 1CC      0.085000
      6 C4'         1.1940   -0.0720    1.8120 c3        1 1CC     -0.044000
      7 C3'        -0.3840    0.1720    2.0240 c3        1 1CC      0.042000
      8 C2'        -0.6750    1.2110    1.3410 c3        1 1CC     -0.206000
      9 C1'         0.3580    1.2480    0.2210 c3        1 1CC      0.132000
     10 O4'         1.4390    0.2160    0.6120 os        1 1CC     -0.296000
     11 N1         -0.2000    0.9140   -0.9290 n3        1 1CC     -0.255000
     12 C6         -1.2690    1.6940   -1.4500 c2        1 1CC      0.093000
     13 C5         -1.8680    1.3440   -2.7470 c1        1 1CC     -0.325000
     14 C4         -1.3400    0.2050   -3.5130 c1        1 1CC      0.224000
     15 N4         -1.8980   -0.1180   -4.7830 n2        1 1CC     -0.349000
     16 N3         -0.2180   -0.5140   -3.0270 n1        1 1CC     -0.368000
     17 C2          0.3620   -0.1780   -1.7220 c1        1 1CC      0.348000
     18 O2          1.3240   -0.7970   -1.3080 o         1 1CC     -0.421000
     19 C21        -2.9390    2.2360   -3.3540 c1        1 1CC      0.381000
     20 O22        -4.1570    1.9630   -3.1830 o         1 1CC     -0.548000
     21 O23        -2.6080    3.2150   -4.0730 os        1 1CC     -0.948000
     22 O3'        -0.6730    0.4070    3.4530 oh        1 1CC     -0.410000
     23 H3          1.2630   -2.0900    1.3200 h1        1 1CC      0.046500
     24 H4          1.0700   -1.8490    2.8870 h1        1 1CC      0.046500
     25 H5          1.7060    0.5080    2.4080 h1        1 1CC      0.103000
     26 H6         -0.8930   -0.6020    1.6970 h1        1 1CC      0.092000
     27 H7         -1.5730    1.1330    0.9710 hc        1 1CC      0.084500
     28 H8         -0.6030    2.0210    1.9010 hc        1 1CC      0.084500
     29 H9          0.7520    2.1360    0.1570 h2        1 1CC      0.123000
     30 H10        -1.5550    2.5070   -0.9820 h4        1 1CC      0.198000
     31 H11        -2.5130    0.4400   -5.1680 hn        1 1CC      0.215500
     32 H12        -1.6450   -0.8840   -5.2110 hn        1 1CC      0.215500
     33 H14        -1.3930   -0.0620    3.6910 ho        1 1CC      0.305000
     34 OP3         2.9970   -4.2000    2.2340 o         1 1CC     -1.248000
@<TRIPOS>BOND
     1    1    2 1   
     2    1    4 1   
     3    1   34 1   
     4    4    5 1   
     5    5    6 1   
     6    5   23 1   
     7    5   24 1   
     8    6    7 1   
     9    6   10 1   
    10    6   25 1   
    11    7    8 1   
    12    7   22 1   
    13    7   26 1   
    14    8    9 1   
    15    8   27 1   
    16    8   28 1   
    17    9   10 1   
    18    9   11 1   
    19    9   29 1   
    20   11   12 1   
    21   11   17 1   
    22   12   13 1   
    23   12   30 1   
    24   13   14 1   
    25   14   16 1   
    26   15   31 1   
    27   15   32 1   
    28   17   18 1   
    29   19   20 1   
    30   22   33 1   
@<TRIPOS>SUBSTRUCTURE
     1 1CC         1 TEMP              0 ****  ****    0 ROOT
