@<TRIPOS>MOLECULE
1CD
   51    56     1     0     0
SMALL
bcc


@<TRIPOS>ATOM
      1 C1         -0.1150    0.8640   -0.1030 c3        1 1CD     -0.092100
      2 N2          2.1280    0.2000    0.7730 n3        1 1CD     -0.767600
      3 C3          3.3730   -0.2140    0.1520 c3        1 1CD      0.173800
      4 C4          3.1300   -0.2170   -1.3760 c3        1 1CD      0.143100
      5 C5          1.9230    0.7110   -1.5840 c3        1 1CD     -0.086400
      6 C6          1.3940    1.0520   -0.1690 c3        1 1CD      0.207500
      7 C7          3.5710   -3.6560   -1.1620 ca        1 1CD      0.039400
      8 C8          3.6800   -2.4740   -1.9540 ca        1 1CD      0.187100
      9 C9          4.4800   -4.7330   -1.4280 ca        1 1CD      0.072600
     10 N10         2.6260   -3.7420   -0.1410 nc        1 1CD     -0.474100
     11 C11         4.6810   -2.3550   -2.9170 ca        1 1CD     -0.205000
     12 O12         2.6990   -1.5070   -1.8440 os        1 1CD     -0.314900
     13 C13         5.4760   -4.5910   -2.4220 ca        1 1CD     -0.195000
     14 N14         4.3660   -5.8980   -0.6750 ns        1 1CD     -0.443100
     15 C15         2.5690   -4.8140    0.6100 cd        1 1CD      0.427900
     16 C16         5.5670   -3.4120   -3.1420 ca        1 1CD     -0.060000
     17 C17         3.4240   -6.0250    0.3530 c         1 1CD      0.575200
     18 C18         1.6800   -4.8400    1.7800 ca        1 1CD     -0.159900
     19 O19         3.3630   -7.1030    0.9670 o         1 1CD     -0.614500
     20 C20         1.4290   -3.6680    2.5120 ca        1 1CD      0.017800
     21 C21         1.0340   -6.0100    2.2160 ca        1 1CD     -0.034000
     22 C22         0.5770   -3.6820    3.6640 ca        1 1CD     -0.221600
     23 N23         1.8420   -2.3340    2.2410 na        1 1CD     -0.085800
     24 C24         0.1940   -6.0110    3.3280 ca        1 1CD     -0.186000
     25 C25         0.5530   -2.2850    4.1730 c         1 1CD      0.684100
     26 C26        -0.0470   -4.8460    4.0680 ca        1 1CD     -0.010000
     27 N27         1.5000   -1.5360    3.3470 n         1 1CD     -0.365100
     28 C28         1.1380   -0.1510    3.0390 c3        1 1CD      0.069000
     29 O29        -0.0620   -1.8000    5.1260 o         1 1CD     -0.583500
     30 C30         2.1640    0.6010    2.1540 c3        1 1CD      0.203800
     31 H11A       -0.5920    1.4750   -0.9060 hc        1 1CD      0.043367
     32 H12        -0.3930   -0.2070   -0.2490 hc        1 1CD      0.043367
     33 H13A       -0.5090    1.2030    0.8850 hc        1 1CD      0.043367
     34 H32         4.2280    0.4830    0.3870 h1        1 1CD      0.038700
     35 H4          4.0410    0.1050   -1.9380 h1        1 1CD      0.050700
     36 H51         1.1370    0.1920   -2.1870 hc        1 1CD      0.067200
     37 H52         2.2360    1.6370   -2.1200 hc        1 1CD      0.067200
     38 H6          1.6130    2.1450    0.0400 h1        1 1CD      0.016700
     39 H11         4.7560   -1.4340   -3.5130 ha        1 1CD      0.148000
     40 H13         6.1760   -5.4150   -2.6240 ha        1 1CD      0.143000
     41 H14         4.9740   -6.6630   -0.8690 hn        1 1CD      0.336500
     42 H16         6.3470   -3.3060   -3.9130 ha        1 1CD      0.141000
     43 H21         1.2090   -6.9520    1.6680 ha        1 1CD      0.162000
     44 H23         2.8290   -2.2380    2.0550 hn        1 1CD      0.256700
     45 H24        -0.2900   -6.9510    3.6330 ha        1 1CD      0.142000
     46 H26        -0.7100   -4.8570    4.9460 ha        1 1CD      0.153000
     47 H281        1.0980    0.3620    4.0410 h1        1 1CD      0.063200
     48 H282        0.1200   -0.0880    2.5590 h1        1 1CD      0.063200
     49 H301        3.1960    0.4410    2.5770 h1        1 1CD      0.040200
     50 H302        1.9140    1.6980    2.2670 h1        1 1CD      0.040200
     51 H31         3.6540   -1.2410    0.5020 h1        1 1CD      0.038700
@<TRIPOS>BOND
     1    1    6 1   
     2    1   31 1   
     3    1   32 1   
     4    1   33 1   
     5    2    3 1   
     6    2    6 1   
     7    2   30 1   
     8    3    4 1   
     9    3   34 1   
    10    3   51 1   
    11    4    5 1   
    12    4   12 1   
    13    4   35 1   
    14    5    6 1   
    15    5   36 1   
    16    5   37 1   
    17    6   38 1   
    18    7    8 ar  
    19    7    9 ar  
    20    7   10 1   
    21    8   11 ar  
    22    8   12 1   
    23    9   13 ar  
    24    9   14 1   
    25   10   15 2   
    26   11   16 ar  
    27   11   39 1   
    28   13   16 ar  
    29   13   40 1   
    30   14   17 1   
    31   14   41 1   
    32   15   17 1   
    33   15   18 1   
    34   16   42 1   
    35   17   19 2   
    36   18   20 ar  
    37   18   21 ar  
    38   20   22 ar  
    39   20   23 1   
    40   21   24 ar  
    41   21   43 1   
    42   22   25 1   
    43   22   26 ar  
    44   23   27 1   
    45   23   44 1   
    46   24   26 ar  
    47   24   45 1   
    48   25   27 1   
    49   25   29 2   
    50   26   46 1   
    51   27   28 1   
    52   28   30 1   
    53   28   47 1   
    54   28   48 1   
    55   30   49 1   
    56   30   50 1   
@<TRIPOS>SUBSTRUCTURE
     1 1CD         1 TEMP              0 ****  ****    0 ROOT
