@<TRIPOS>MOLECULE
1CD
   51    56     1     0     0
SMALL
bcc


@<TRIPOS>ATOM
      1 C1         -0.1210    0.8600   -0.1040 c3        1 1CD     -0.092100
      2 N2          2.1240    0.2000    0.7710 n3        1 1CD     -0.767600
      3 C3          3.3700   -0.2130    0.1490 c3        1 1CD      0.173800
      4 C4          3.1250   -0.2170   -1.3780 c3        1 1CD      0.143100
      5 C5          1.9180    0.7080   -1.5870 c3        1 1CD     -0.086400
      6 C6          1.3890    1.0500   -0.1720 c3        1 1CD      0.207500
      7 C7          3.5720   -3.6560   -1.1620 ca        1 1CD      0.039400
      8 C8          3.6790   -2.4740   -1.9540 ca        1 1CD      0.187100
      9 C9          4.4830   -4.7320   -1.4270 ca        1 1CD      0.072600
     10 N10         2.6280   -3.7420   -0.1400 nc        1 1CD     -0.474100
     11 C11         4.6790   -2.3550   -2.9180 ca        1 1CD     -0.205000
     12 O12         2.6960   -1.5090   -1.8450 os        1 1CD     -0.314900
     13 C13         5.4780   -4.5890   -2.4220 ca        1 1CD     -0.195000
     14 N14         4.3700   -5.8960   -0.6730 n         1 1CD     -0.443100
     15 C15         2.5730   -4.8130    0.6120 cd        1 1CD      0.427900
     16 C16         5.5670   -3.4100   -3.1430 ca        1 1CD     -0.060000
     17 C17         3.4300   -6.0230    0.3550 c         1 1CD      0.575200
     18 C18         1.6850   -4.8400    1.7830 ca        1 1CD     -0.159900
     19 O19         3.3710   -7.1010    0.9710 o         1 1CD     -0.614500
     20 C20         1.4320   -3.6680    2.5140 ca        1 1CD      0.017800
     21 C21         1.0410   -6.0100    2.2200 ca        1 1CD     -0.034000
     22 C22         0.5810   -3.6820    3.6660 ca        1 1CD     -0.221600
     23 N23         1.8430   -2.3330    2.2410 na        1 1CD     -0.085800
     24 C24         0.2010   -6.0120    3.3330 ca        1 1CD     -0.186000
     25 C25         0.5550   -2.2840    4.1740 c         1 1CD      0.684100
     26 C26        -0.0410   -4.8470    4.0710 ca        1 1CD     -0.010000
     27 N27         1.5010   -1.5350    3.3470 n         1 1CD     -0.365100
     28 C28         1.1360   -0.1510    3.0380 c3        1 1CD      0.069000
     29 O29        -0.0600   -1.8000    5.1270 o         1 1CD     -0.583500
     30 C30         2.1600    0.6020    2.1510 c3        1 1CD      0.203800
     31 H11A       -0.5980    1.4690   -0.9080 hc        1 1CD      0.043367
     32 H12        -0.3970   -0.2120   -0.2490 hc        1 1CD      0.043367
     33 H13A       -0.5140    1.1990    0.8840 hc        1 1CD      0.043367
     34 H32         4.2230    0.4860    0.3830 h1        1 1CD      0.038700
     35 H4          4.0360    0.1050   -1.9410 h1        1 1CD      0.050700
     36 H51         2.2280    1.6350   -2.1240 hc        1 1CD      0.067200
     37 H52         1.1320    0.1870   -2.1880 hc        1 1CD      0.067200
     38 H6          1.6060    2.1440    0.0360 h1        1 1CD      0.016700
     39 H11         4.7520   -1.4340   -3.5150 ha        1 1CD      0.148000
     40 H13         6.1800   -5.4120   -2.6230 ha        1 1CD      0.143000
     41 H14         4.9800   -6.6600   -0.8670 hn        1 1CD      0.336500
     42 H16         6.3470   -3.3040   -3.9140 ha        1 1CD      0.141000
     43 H21         1.2170   -6.9530    1.6730 ha        1 1CD      0.162000
     44 H23         2.8300   -2.2360    2.0550 hn        1 1CD      0.256700
     45 H24        -0.2810   -6.9530    3.6380 ha        1 1CD      0.142000
     46 H26        -0.7040   -4.8580    4.9490 ha        1 1CD      0.153000
     47 H281        0.1180   -0.0890    2.5580 h1        1 1CD      0.062700
     48 H282        1.0960    0.3640    4.0400 h1        1 1CD      0.062700
     49 H301        1.9090    1.6980    2.2630 h1        1 1CD      0.040200
     50 H302        3.1930    0.4440    2.5740 h1        1 1CD      0.040200
     51 H31         3.6530   -1.2390    0.5000 h1        1 1CD      0.038700
@<TRIPOS>BOND
     1    1    6 1   
     2    1   31 1   
     3    1   32 1   
     4    1   33 1   
     5    2    3 1   
     6    2    6 1   
     7    2   30 1   
     8    3    4 1   
     9    3   34 1   
    10    3   51 1   
    11    4    5 1   
    12    4   12 1   
    13    4   35 1   
    14    5    6 1   
    15    5   36 1   
    16    5   37 1   
    17    6   38 1   
    18    7    8 ar  
    19    7    9 ar  
    20    7   10 1   
    21    8   11 ar  
    22    8   12 1   
    23    9   13 ar  
    24    9   14 1   
    25   10   15 2   
    26   11   16 ar  
    27   11   39 1   
    28   13   16 ar  
    29   13   40 1   
    30   14   17 1   
    31   14   41 1   
    32   15   17 1   
    33   15   18 1   
    34   16   42 1   
    35   17   19 2   
    36   18   20 ar  
    37   18   21 ar  
    38   20   22 ar  
    39   20   23 1   
    40   21   24 ar  
    41   21   43 1   
    42   22   25 1   
    43   22   26 ar  
    44   23   27 1   
    45   23   44 1   
    46   24   26 ar  
    47   24   45 1   
    48   25   27 1   
    49   25   29 2   
    50   26   46 1   
    51   27   28 1   
    52   28   30 1   
    53   28   47 1   
    54   28   48 1   
    55   30   49 1   
    56   30   50 1   
@<TRIPOS>SUBSTRUCTURE
     1 1CD         1 TEMP              0 ****  ****    0 ROOT
