@<TRIPOS>MOLECULE
1CE
   32    35     1     0     0
SMALL
bcc


@<TRIPOS>ATOM
      1 O20        -0.0710   -0.5110    0.0800 o         1 1CE     -0.659500
      2 C12         1.1120   -0.1140    0.0710 c         1 1CE      0.741100
      3 N7          1.7660    0.1370    1.3080 n         1 1CE     -0.403300
      4 C6          1.0450   -0.0100    2.5510 c3        1 1CE      0.070700
      5 C3          0.8590   -1.4350    2.9710 cc        1 1CE      0.340800
      6 N2          1.3160   -2.0840    4.0870 nd        1 1CE     -0.366000
      7 N4          0.1200   -2.3970    2.2600 na        1 1CE     -0.154400
      8 N5          0.1590   -3.5390    2.9530 nc        1 1CE     -0.188800
      9 N1          0.8590   -3.3290    4.0130 nd        1 1CE     -0.054000
     10 C11         1.9240    0.1230   -1.1120 cc        1 1CE     -0.229600
     11 C13         1.5500    0.0000   -2.4820 cc        1 1CE     -0.021300
     12 C16         0.2280   -0.4320   -2.9760 c3        1 1CE     -0.023100
     13 C17         0.0550   -0.1140   -4.4500 c3        1 1CE     -0.075400
     14 C18         1.2920   -0.4710   -5.2490 c3        1 1CE     -0.073400
     15 C19         2.5100    0.3140   -4.7860 c3        1 1CE     -0.000100
     16 C14         2.6120    0.3220   -3.3150 cd        1 1CE     -0.145400
     17 S15         3.9970    0.7410   -2.4660 ss        1 1CE      0.137200
     18 C10         3.2740    0.5310   -0.9720 cd        1 1CE      0.134300
     19 N9          3.8750    0.7170    0.2620 nd        1 1CE     -0.571100
     20 C8          3.1160    0.5100    1.3180 cc        1 1CE      0.489800
     21 H6          0.0200    0.4510    2.4200 h1        1 1CE      0.097700
     22 H6A         1.5900    0.5410    3.3720 h1        1 1CE      0.097700
     23 HN4        -0.3590   -2.2830    1.3890 hn        1 1CE      0.361700
     24 H16         0.1310   -1.5410   -2.8110 hc        1 1CE      0.068700
     25 H16A       -0.5830    0.0580   -2.3720 hc        1 1CE      0.068700
     26 H17        -0.1640    0.9790   -4.5730 hc        1 1CE      0.046700
     27 H17A       -0.8260   -0.6810   -4.8480 hc        1 1CE      0.046700
     28 H18         1.1130   -0.2590   -6.3350 hc        1 1CE      0.046700
     29 H18A        1.4960   -1.5690   -5.1470 hc        1 1CE      0.046700
     30 H19         2.4310    1.3730   -5.1560 hc        1 1CE      0.052200
     31 H19A        3.4340   -0.1320   -5.2410 hc        1 1CE      0.052200
     32 H8          3.5820    0.6470    2.3190 h5        1 1CE      0.066800
@<TRIPOS>BOND
     1    1    2 2   
     2    2    3 1   
     3    2   10 1   
     4    3    4 1   
     5    3   20 1   
     6    4    5 1   
     7    4   21 1   
     8    4   22 1   
     9    5    6 2   
    10    5    7 1   
    11    6    9 1   
    12    7    8 1   
    13    7   23 1   
    14    8    9 2   
    15   10   11 1   
    16   10   18 2   
    17   11   12 1   
    18   11   16 2   
    19   12   13 1   
    20   12   24 1   
    21   12   25 1   
    22   13   14 1   
    23   13   26 1   
    24   13   27 1   
    25   14   15 1   
    26   14   28 1   
    27   14   29 1   
    28   15   16 1   
    29   15   30 1   
    30   15   31 1   
    31   16   17 1   
    32   17   18 1   
    33   18   19 1   
    34   19   20 2   
    35   20   32 1   
@<TRIPOS>SUBSTRUCTURE
     1 1CE         1 TEMP              0 ****  ****    0 ROOT
