@<TRIPOS>MOLECULE
1CE
   32    31     1     0     0
SMALL
bcc


@<TRIPOS>ATOM
      1 O20        -1.5470   -0.1820    1.1590 o         1 1CE     -0.384000
      2 C12        -0.3250   -0.3810    1.1450 c1        1 1CE      0.378000
      3 N7          0.3920   -0.3830    2.3310 n2        1 1CE     -0.292000
      4 C6         -0.2990   -0.3060    3.5820 c3        1 1CE      0.049000
      5 C3          0.0370    1.0660    4.2780 c2        1 1CE     -0.105000
      6 N2          1.0070    1.9310    3.9000 nc        1 1CE     -0.144000
      7 N4         -0.5580    1.5660    5.3750 nc        1 1CE     -0.144000
      8 N5          0.0420    2.7360    5.6770 nc        1 1CE     -0.036500
      9 N1          1.0060    2.9580    4.7650 nc        1 1CE     -0.036500
     10 C11         0.4040   -0.4580   -0.1690 c2        1 1CE     -0.209000
     11 C13        -0.1210   -0.3920   -1.6740 c1        1 1CE     -0.014000
     12 C16        -1.5090   -0.3500   -2.3100 c2        1 1CE     -0.109000
     13 C17        -1.5720   -0.5890   -3.7280 c3        1 1CE     -0.154000
     14 C18        -0.4850   -0.0690   -4.5330 c3        1 1CE     -0.152000
     15 C19         0.8120   -0.4080   -4.1400 c3        1 1CE     -0.086000
     16 C14         1.0750   -0.5070   -2.6030 c2        1 1CE     -0.408000
     17 S15         2.3080   -0.6410   -1.7530 ss        1 1CE      0.677000
     18 C10         1.8330   -0.6050   -0.1900 c1        1 1CE     -0.275000
     19 N9          2.5360   -0.8350    1.0250 n1        1 1CE     -0.144000
     20 C8          1.8370   -0.6800    2.3120 c2        1 1CE      0.066000
     21 H6         -0.0210   -1.0140    4.1350 h1        1 1CE      0.137000
     22 H6A        -1.2810   -0.3700    3.4280 h1        1 1CE      0.137000
     23 HN4        -1.2140    1.2000    5.8140 DU        1 1CE      0.312000
     24 H16        -2.0720   -1.0280   -1.8590 ha        1 1CE      0.108000
     25 H16A       -1.9100    0.5640   -2.1290 ha        1 1CE      0.108000
     26 H17        -2.3960   -0.2050   -4.0580 hc        1 1CE      0.086000
     27 H17A       -1.6080   -1.4960   -3.8590 hc        1 1CE      0.086000
     28 H18        -0.6160   -0.4080   -5.4900 hc        1 1CE      0.086000
     29 H18A       -0.5540    0.9020   -4.5440 hc        1 1CE      0.086000
     30 H19         1.4450    0.2790   -4.5200 hc        1 1CE      0.091500
     31 H19A        1.0140   -1.2150   -4.5110 hc        1 1CE      0.091500
     32 H8          2.3420   -0.6830    3.1410 h5        1 1CE      0.196000
@<TRIPOS>BOND
     1    1    2 1   
     2    2   10 1   
     3    3    4 1   
     4    3   20 1   
     5    4    5 1   
     6    4   21 1   
     7    4   22 1   
     8    5    6 1   
     9    5    7 1   
    10    6    9 1   
    11    7    8 1   
    12    8    9 1   
    13   10   11 1   
    14   10   18 1   
    15   11   16 1   
    16   12   13 1   
    17   12   24 1   
    18   12   25 1   
    19   13   14 1   
    20   13   26 1   
    21   13   27 1   
    22   14   15 1   
    23   14   28 1   
    24   14   29 1   
    25   15   16 1   
    26   15   30 1   
    27   15   31 1   
    28   16   17 1   
    29   17   18 1   
    30   19   20 1   
    31   20   32 1   
@<TRIPOS>SUBSTRUCTURE
     1 1CE         1 TEMP              0 ****  ****    0 ROOT
