@<TRIPOS>MOLECULE
1CE
   32    35     1     0     0
SMALL
bcc


@<TRIPOS>ATOM
      1 O20         0.8020   -1.4750    0.7040 o         1 1CE     -0.659500
      2 C12         0.4910   -0.2670    0.7320 c         1 1CE      0.741100
      3 N7          1.4850    0.6950    1.0620 n         1 1CE     -0.403300
      4 C6          2.8170    0.2660    1.4190 c3        1 1CE      0.070700
      5 C3          3.6480   -0.1480    0.2440 cc        1 1CE      0.340800
      6 N2          4.8140    0.3880   -0.2330 nd        1 1CE     -0.365000
      7 N4          3.3670   -1.2360   -0.6020 na        1 1CE     -0.154400
      8 N5          4.3400   -1.3070   -1.5150 nc        1 1CE     -0.188800
      9 N1          5.1710   -0.3530   -1.2770 nd        1 1CE     -0.054000
     10 C11        -0.8250    0.2830    0.4460 cc        1 1CE     -0.229600
     11 C13        -2.0250   -0.4140    0.1230 cc        1 1CE     -0.021300
     12 C16        -2.1580   -1.8780   -0.0130 c3        1 1CE     -0.023100
     13 C17        -3.6150   -2.3050   -0.0080 c3        1 1CE     -0.075400
     14 C18        -4.4660   -1.4050   -0.8790 c3        1 1CE     -0.073400
     15 C19        -4.4460    0.0350   -0.3920 c3        1 1CE     -0.000100
     16 C14        -3.0740    0.4730   -0.0740 cd        1 1CE     -0.145400
     17 S15        -2.6110    2.0740    0.1130 ss        1 1CE      0.137200
     18 C10        -1.0240    1.6860    0.4700 cd        1 1CE      0.134300
     19 N9         -0.0060    2.5810    0.7550 nd        1 1CE     -0.571100
     20 C8          1.1720    2.0590    1.0240 cc        1 1CE      0.489800
     21 H6          3.3500    1.0980    1.9640 h1        1 1CE      0.097700
     22 H6A         2.7260   -0.6250    2.1120 h1        1 1CE      0.097700
     23 HN4         2.5870   -1.8620   -0.5580 hn        1 1CE      0.361700
     24 H16        -1.6710   -2.1920   -0.9780 hc        1 1CE      0.068700
     25 H16A       -1.5970   -2.3900    0.8150 hc        1 1CE      0.068700
     26 H17        -3.6890   -3.3620   -0.3740 hc        1 1CE      0.046700
     27 H17A       -4.0060   -2.2840    1.0430 hc        1 1CE      0.046700
     28 H18        -4.0900   -1.4460   -1.9350 hc        1 1CE      0.046700
     29 H18A       -5.5250   -1.7740   -0.8810 hc        1 1CE      0.046700
     30 H19        -4.8970    0.6990   -1.1770 hc        1 1CE      0.052200
     31 H19A       -5.0840    0.1240    0.5300 hc        1 1CE      0.052200
     32 H8          2.0050    2.7620    1.2480 h5        1 1CE      0.066800
@<TRIPOS>BOND
     1    1    2 2   
     2    2    3 1   
     3    2   10 1   
     4    3    4 1   
     5    3   20 1   
     6    4    5 1   
     7    4   21 1   
     8    4   22 1   
     9    5    6 2   
    10    5    7 1   
    11    6    9 1   
    12    7    8 1   
    13    7   23 1   
    14    8    9 2   
    15   10   11 1   
    16   10   18 2   
    17   11   12 1   
    18   11   16 2   
    19   12   13 1   
    20   12   24 1   
    21   12   25 1   
    22   13   14 1   
    23   13   26 1   
    24   13   27 1   
    25   14   15 1   
    26   14   28 1   
    27   14   29 1   
    28   15   16 1   
    29   15   30 1   
    30   15   31 1   
    31   16   17 1   
    32   17   18 1   
    33   18   19 1   
    34   19   20 2   
    35   20   32 1   
@<TRIPOS>SUBSTRUCTURE
     1 1CE         1 TEMP              0 ****  ****    0 ROOT
