@<TRIPOS>MOLECULE
1CE
   32    35     1     0     0
SMALL
bcc


@<TRIPOS>ATOM
      1 O20        -0.0050   -0.4530    0.1640 o         1 1CE     -0.659500
      2 C12         1.1880   -0.0970    0.0810 c         1 1CE      0.741100
      3 N7          1.9240    0.1410    1.2740 n         1 1CE     -0.403300
      4 C6          1.2730    0.0300    2.5590 c3        1 1CE      0.070700
      5 C3          1.0640   -1.3850    3.0030 cc        1 1CE      0.340800
      6 N2          1.5640   -2.0410    4.0970 nd        1 1CE     -0.365000
      7 N4          0.2510   -2.3270    2.3470 na        1 1CE     -0.154400
      8 N5          0.2920   -3.4640    3.0470 nc        1 1CE     -0.188800
      9 N1          1.0610   -3.2700    4.0620 nd        1 1CE     -0.054000
     10 C11         1.9360    0.1030   -1.1510 cc        1 1CE     -0.229600
     11 C13         1.4770   -0.0180   -2.4950 cc        1 1CE     -0.021300
     12 C16         0.1140   -0.4080   -2.9050 c3        1 1CE     -0.023100
     13 C17        -0.1350   -0.0960   -4.3700 c3        1 1CE     -0.075400
     14 C18         1.0390   -0.5020   -5.2370 c3        1 1CE     -0.073400
     15 C19         2.3080    0.2430   -4.8550 c3        1 1CE     -0.000100
     16 C14         2.4980    0.2600   -3.3920 cd        1 1CE     -0.145400
     17 S15         3.9450    0.6360   -2.6310 ss        1 1CE      0.137200
     18 C10         3.3050    0.4650   -1.0950 cd        1 1CE      0.134300
     19 N9          3.9850    0.6390    0.0990 nd        1 1CE     -0.571100
     20 C8          3.2840    0.4670    1.2000 cc        1 1CE      0.489800
     21 H6          0.2580    0.5250    2.4840 h1        1 1CE      0.097700
     22 H6A         1.8850    0.5670    3.3410 h1        1 1CE      0.097700
     23 HN4        -0.2760   -2.2020    1.5040 hn        1 1CE      0.361700
     24 H16        -0.0110   -1.5120   -2.7230 hc        1 1CE      0.068700
     25 H16A       -0.6420    0.1150   -2.2600 hc        1 1CE      0.068700
     26 H17        -1.0570   -0.6360   -4.7090 hc        1 1CE      0.046700
     27 H17A       -0.3230    1.0030   -4.4910 hc        1 1CE      0.046700
     28 H18         1.2110   -1.6060   -5.1360 hc        1 1CE      0.046700
     29 H18A        0.8030   -0.2930   -6.3130 hc        1 1CE      0.046700
     30 H19         3.1880   -0.2380   -5.3600 hc        1 1CE      0.052200
     31 H19A        2.2440    1.3020   -5.2310 hc        1 1CE      0.052200
     32 H8          3.8130    0.5960    2.1700 h5        1 1CE      0.066800
@<TRIPOS>BOND
     1    1    2 2   
     2    2    3 1   
     3    2   10 1   
     4    3    4 1   
     5    3   20 1   
     6    4    5 1   
     7    4   21 1   
     8    4   22 1   
     9    5    6 2   
    10    5    7 1   
    11    6    9 1   
    12    7    8 1   
    13    7   23 1   
    14    8    9 2   
    15   10   11 1   
    16   10   18 2   
    17   11   12 1   
    18   11   16 2   
    19   12   13 1   
    20   12   24 1   
    21   12   25 1   
    22   13   14 1   
    23   13   26 1   
    24   13   27 1   
    25   14   15 1   
    26   14   28 1   
    27   14   29 1   
    28   15   16 1   
    29   15   30 1   
    30   15   31 1   
    31   16   17 1   
    32   17   18 1   
    33   18   19 1   
    34   19   20 2   
    35   20   32 1   
@<TRIPOS>SUBSTRUCTURE
     1 1CE         1 TEMP              0 ****  ****    0 ROOT
