@<TRIPOS>MOLECULE
1CE
   32    35     1     0     0
SMALL
bcc


@<TRIPOS>ATOM
      1 O20        -0.0430   -0.4630    0.1180 o         1 1CE     -0.659500
      2 C12         1.1510   -0.1050    0.0770 c         1 1CE      0.741100
      3 N7          1.8470    0.1250    1.2960 n         1 1CE     -0.403300
      4 C6          1.1550    0.0030    2.5570 c3        1 1CE      0.070700
      5 C3          0.9340   -1.4150    2.9840 cc        1 1CE      0.340800
      6 N2          1.3990   -2.0780    4.0890 nd        1 1CE     -0.365000
      7 N4          0.1440   -2.3530    2.2950 na        1 1CE     -0.154400
      8 N5          0.1650   -3.4950    2.9880 nc        1 1CE     -0.188800
      9 N1          0.9000   -3.3080    4.0280 nd        1 1CE     -0.054000
     10 C11         1.9390    0.1050   -1.1280 cc        1 1CE     -0.229600
     11 C13         1.5250   -0.0070   -2.4870 cc        1 1CE     -0.021300
     12 C16         0.1760   -0.3970   -2.9450 c3        1 1CE     -0.023100
     13 C17        -0.0250   -0.0740   -4.4150 c3        1 1CE     -0.075400
     14 C18         1.1780   -0.4720   -5.2460 c3        1 1CE     -0.073400
     15 C19         2.4320    0.2730   -4.8160 c3        1 1CE     -0.000100
     16 C14         2.5740    0.2790   -3.3490 cd        1 1CE     -0.145400
     17 S15         3.9940    0.6520   -2.5370 ss        1 1CE      0.137200
     18 C10         3.3050    0.4680   -1.0250 cd        1 1CE      0.134300
     19 N9          3.9440    0.6350    0.1930 nd        1 1CE     -0.571100
     20 C8          3.2080    0.4540    1.2680 cc        1 1CE      0.489800
     21 H6          1.7390    0.5360    3.3630 h1        1 1CE      0.097700
     22 H6A         0.1420    0.4970    2.4530 h1        1 1CE      0.097700
     23 HN4        -0.3540   -2.2230    1.4370 hn        1 1CE      0.361700
     24 H16         0.0470   -1.5020   -2.7750 hc        1 1CE      0.068700
     25 H16A       -0.6020    0.1210   -2.3210 hc        1 1CE      0.068700
     26 H17        -0.9340   -0.6130   -4.7880 hc        1 1CE      0.046700
     27 H17A       -0.2110    1.0260   -4.5330 hc        1 1CE      0.046700
     28 H18         0.9770   -0.2550   -6.3270 hc        1 1CE      0.046700
     29 H18A        1.3480   -1.5760   -5.1470 hc        1 1CE      0.046700
     30 H19         3.3290   -0.2030   -5.2960 hc        1 1CE      0.052200
     31 H19A        2.3780    1.3340   -5.1860 hc        1 1CE      0.052200
     32 H8          3.7050    0.5760    2.2560 h5        1 1CE      0.066800
@<TRIPOS>BOND
     1    1    2 2   
     2    2    3 1   
     3    2   10 1   
     4    3    4 1   
     5    3   20 1   
     6    4    5 1   
     7    4   21 1   
     8    4   22 1   
     9    5    6 2   
    10    5    7 1   
    11    6    9 1   
    12    7    8 1   
    13    7   23 1   
    14    8    9 2   
    15   10   11 1   
    16   10   18 2   
    17   11   12 1   
    18   11   16 2   
    19   12   13 1   
    20   12   24 1   
    21   12   25 1   
    22   13   14 1   
    23   13   26 1   
    24   13   27 1   
    25   14   15 1   
    26   14   28 1   
    27   14   29 1   
    28   15   16 1   
    29   15   30 1   
    30   15   31 1   
    31   16   17 1   
    32   17   18 1   
    33   18   19 1   
    34   19   20 2   
    35   20   32 1   
@<TRIPOS>SUBSTRUCTURE
     1 1CE         1 TEMP              0 ****  ****    0 ROOT
