@<TRIPOS>MOLECULE
1CF
   30    30     1     0     0
SMALL
bcc


@<TRIPOS>ATOM
      1 C4          0.0460   -0.0890    0.0380 c3        1 1CF      0.119100
      2 C5          1.5840   -0.0460    0.0500 c3        1 1CF      0.157100
      3 C6          2.1810   -1.3420   -0.4630 c3        1 1CF     -0.088100
      4 C11         3.9550    1.0150    4.8220 c3        1 1CF      0.132400
      5 C12         3.5740    1.3470    3.3830 c3        1 1CF      0.089400
      6 C3         -0.5200    1.1600    0.7380 c3        1 1CF      0.110100
      7 O11         3.8740   -0.3700    5.0790 oh        1 1CF     -0.598800
      8 C1          1.6300    1.3100    2.0070 c3        1 1CF      0.309900
      9 C2          0.0950    1.2860    2.1390 c3        1 1CF      0.085100
     10 O2         -0.3810    2.4990    2.6920 oh        1 1CF     -0.606800
     11 O3         -1.9230    0.9810    0.8160 oh        1 1CF     -0.606800
     12 O4         -0.3770   -1.2780    0.6800 oh        1 1CF     -0.586800
     13 O5          2.1200    0.1440    1.3620 os        1 1CF     -0.428600
     14 O1          2.1520    1.1950    3.3130 os        1 1CF     -0.433600
     15 H4         -0.3130   -0.0990   -1.0300 h1        1 1CF      0.054700
     16 H5          1.9030    0.8240   -0.5930 h1        1 1CF      0.035700
     17 H62         1.8550   -1.5050   -1.5170 hc        1 1CF      0.055033
     18 H61         3.2940   -1.2940   -0.4180 hc        1 1CF      0.055033
     19 H63         1.8300   -2.1960    0.1660 hc        1 1CF      0.055033
     20 H11         5.0290    1.2850    5.0020 h1        1 1CF      0.052200
     21 H12         3.2940    1.5770    5.5350 h1        1 1CF      0.052200
     22 H21         3.8420    2.4060    3.1320 h1        1 1CF      0.052200
     23 H22         4.0680    0.6420    2.6660 h1        1 1CF      0.052200
     24 H3         -0.2910    2.0820    0.1360 h1        1 1CF      0.056700
     25 H6          2.9940   -0.6590    4.8050 ho        1 1CF      0.416000
     26 H1          1.9940    2.2390    1.4880 h2        1 1CF      0.046700
     27 H2         -0.2160    0.4110    2.7750 h1        1 1CF      0.085700
     28 HO2         0.0130    2.5720    3.5710 ho        1 1CF      0.425000
     29 HO3        -2.2610    1.6840    1.3880 ho        1 1CF      0.429000
     30 HO4        -1.3370   -1.2090    0.7840 ho        1 1CF      0.422000
@<TRIPOS>BOND
     1    1    2 1   
     2    1    6 1   
     3    1   12 1   
     4    1   15 1   
     5    2    3 1   
     6    2   13 1   
     7    2   16 1   
     8    3   17 1   
     9    3   18 1   
    10    3   19 1   
    11    4    5 1   
    12    4    7 1   
    13    4   20 1   
    14    4   21 1   
    15    5   14 1   
    16    5   22 1   
    17    5   23 1   
    18    6    9 1   
    19    6   11 1   
    20    6   24 1   
    21    7   25 1   
    22    8    9 1   
    23    8   13 1   
    24    8   14 1   
    25    8   26 1   
    26    9   10 1   
    27    9   27 1   
    28   10   28 1   
    29   11   29 1   
    30   12   30 1   
@<TRIPOS>SUBSTRUCTURE
     1 1CF         1 TEMP              0 ****  ****    0 ROOT
