@<TRIPOS>MOLECULE
1CF
   30    30     1     0     0
SMALL
bcc


@<TRIPOS>ATOM
      1 C4          0.0520   -0.0940    0.0260 c3        1 1CF      0.119100
      2 C5          1.5890   -0.0170    0.0430 c3        1 1CF      0.157100
      3 C6          2.2160   -1.2930   -0.4840 c3        1 1CF     -0.088100
      4 C11         3.9240    1.0350    4.8340 c3        1 1CF      0.132400
      5 C12         3.5390    1.3800    3.3990 c3        1 1CF      0.089400
      6 C3         -0.5430    1.1330    0.7400 c3        1 1CF      0.110100
      7 O11         3.8750   -0.3550    5.0690 oh        1 1CF     -0.598800
      8 C1          1.6000    1.3160    2.0170 c3        1 1CF      0.309900
      9 C2          0.0660    1.2560    2.1430 c3        1 1CF      0.085100
     10 O2         -0.4390    2.4510    2.7100 oh        1 1CF     -0.606800
     11 O3         -1.9420    0.9230    0.8110 oh        1 1CF     -0.606800
     12 O4         -0.3460   -1.2990    0.6520 oh        1 1CF     -0.586800
     13 O5          2.1170    0.1690    1.3590 os        1 1CF     -0.428600
     14 O1          2.1210    1.1960    3.3230 os        1 1CF     -0.433600
     15 H4         -0.3030   -0.0990   -1.0430 h1        1 1CF      0.054700
     16 H5          1.8910    0.8680   -0.5880 h1        1 1CF      0.035700
     17 H62         3.3280   -1.2210   -0.4350 hc        1 1CF      0.055033
     18 H61         1.8970   -1.4500   -1.5410 hc        1 1CF      0.055033
     19 H63         1.8820   -2.1620    0.1340 hc        1 1CF      0.055033
     20 H11         4.9910    1.3270    5.0200 h1        1 1CF      0.052200
     21 H12         3.2480    1.5710    5.5530 h1        1 1CF      0.052200
     22 H21         4.0510    0.6980    2.6720 h1        1 1CF      0.052200
     23 H22         3.7830    2.4490    3.1640 h1        1 1CF      0.052200
     24 H3         -0.3330    2.0680    0.1500 h1        1 1CF      0.056700
     25 H6          3.0030   -0.6610    4.7880 ho        1 1CF      0.416000
     26 H1          1.9450    2.2590    1.5100 h2        1 1CF      0.046700
     27 H2         -0.2280    0.3670    2.7680 h1        1 1CF      0.085700
     28 HO2        -0.0490    2.5230    3.5910 ho        1 1CF      0.425000
     29 HO3        -2.2970    1.6110    1.3910 ho        1 1CF      0.429000
     30 HO4        -1.3070   -1.2530    0.7550 ho        1 1CF      0.422000
@<TRIPOS>BOND
     1    1    2 1   
     2    1    6 1   
     3    1   12 1   
     4    1   15 1   
     5    2    3 1   
     6    2   13 1   
     7    2   16 1   
     8    3   17 1   
     9    3   18 1   
    10    3   19 1   
    11    4    5 1   
    12    4    7 1   
    13    4   20 1   
    14    4   21 1   
    15    5   14 1   
    16    5   22 1   
    17    5   23 1   
    18    6    9 1   
    19    6   11 1   
    20    6   24 1   
    21    7   25 1   
    22    8    9 1   
    23    8   13 1   
    24    8   14 1   
    25    8   26 1   
    26    9   10 1   
    27    9   27 1   
    28   10   28 1   
    29   11   29 1   
    30   12   30 1   
@<TRIPOS>SUBSTRUCTURE
     1 1CF         1 TEMP              0 ****  ****    0 ROOT
