@<TRIPOS>MOLECULE
1CG
   51    50     1     0     0
SMALL
bcc


@<TRIPOS>ATOM
      1 C4          0.7550   -1.4580   -2.3970 c1        1 1CG     -0.344000
      2 C5          1.7050   -0.7230   -2.3590 c1        1 1CG      0.126000
      3 C6          2.2760   -0.4090    1.9380 c2        1 1CG     -0.561000
      4 C13         1.7090    2.8390   -2.2670 c2        1 1CG      0.011000
      5 C15         4.2190    4.5850   -0.9580 c1        1 1CG     -0.206000
      6 C17         5.4430    5.5980    0.9220 c2        1 1CG     -0.315000
      7 C20         5.5640   -1.0480    0.5120 c2        1 1CG     -0.241000
      8 C22         7.6440    5.4690    3.0790 c2        1 1CG      0.220000
      9 C28         0.0330    3.2210   -3.6180 c2        1 1CG     -0.176000
     10 O26         8.5900    5.2640    5.2760 o         1 1CG     -0.515000
     11 C23         8.7740    4.9970    4.0700 c2        1 1CG      0.358000
     12 O25         9.7330    4.3790    3.5460 o         1 1CG     -0.515000
     13 O24         7.1060    6.5840    3.0910 o         1 1CG     -0.360000
     14 C18         6.3090    4.5680    1.1580 c2        1 1CG      0.070000
     15 C16         4.4570    5.5620   -0.1140 c2        1 1CG      0.022000
     16 C19         5.4960   -0.0310   -0.3520 c2        1 1CG     -0.013000
     17 C14         3.9650    3.6480   -1.8230 c2        1 1CG     -0.145000
     18 C12         2.9750    2.5550   -1.5680 c3        1 1CG     -0.622000
     19 S9          3.6850    1.0120   -2.0250 s6        1 1CG      2.890000
     20 O10         4.8300    1.1620   -2.8080 o         1 1CG     -0.874000
     21 O11         4.3450    0.7080   -0.4620 os        1 1CG     -0.652000
     22 N8          2.7370    0.0700   -2.3070 n2        1 1CG     -1.092000
     23 C3         -0.9870   -0.4300    0.4210 c1        1 1CG     -0.220000
     24 C2         -1.7480   -0.0790    1.2730 c1        1 1CG     -0.044000
     25 F7         -2.5700    0.3030    2.2020 f         1 1CG     -0.003000
     26 C1          2.6320   -1.3860    2.7220 c1        1 1CG      0.158000
     27 O30         0.6330    3.2750   -1.4240 os        1 1CG     -0.095000
     28 C29        -0.3980    3.5090   -2.2970 c2        1 1CG      0.003000
     29 C34        -1.7310    3.9800   -1.9190 c3        1 1CG     -0.110000
     30 C33        -2.5850    4.1150   -3.1310 c2        1 1CG     -0.104000
     31 C32        -2.1580    3.8350   -4.3820 c2        1 1CG     -0.210000
     32 C31        -0.8330    3.3690   -4.7390 c1        1 1CG      0.029000
     33 N27         1.3770    2.8000   -3.5540 n2        1 1CG     -0.053000
     34 H1         -0.3220   -0.7450   -0.3490 ha        1 1CG      0.265000
     35 H2          3.0090    0.2820    1.4770 ha        1 1CG      0.200500
     36 H3          5.4780    6.5140    1.5360 ha        1 1CG      0.172000
     37 H4          4.7090   -1.3680    1.1240 ha        1 1CG      0.131000
     38 H6          7.8500    3.6800    2.1260 hn        1 1CG      0.244000
     39 H7          3.8330    6.4760   -0.2020 ha        1 1CG      0.135000
     40 H8          6.2520    3.6640    0.5110 h4        1 1CG      0.114000
     41 H9          6.5020   -1.5950    0.6660 ha        1 1CG      0.131000
     42 H10         6.3300    0.3340   -0.9770 h4        1 1CG      0.154000
     43 H11         4.4530    3.6160   -2.8140 ha        1 1CG      0.156000
     44 H12         2.7560    2.5370   -0.4550 h1        1 1CG      0.194000
     45 H13        -0.0580   -2.1250   -2.4840 ha        1 1CG      0.232000
     46 H14         1.2340   -0.1820    1.6580 ha        1 1CG      0.200500
     47 H15        -2.2070    3.2600   -1.1940 hc        1 1CG      0.148000
     48 H16        -1.6530    4.9750   -1.3930 hc        1 1CG      0.148000
     49 H17        -3.6100    4.4670   -2.9310 ha        1 1CG      0.131000
     50 H18        -2.8450    3.9580   -5.2370 ha        1 1CG      0.148000
     51 N21         7.2640    4.4900    2.1300 ns        1 1CG     -0.318000
@<TRIPOS>BOND
     1    1    2 1   
     2    1   45 1   
     3    2   22 1   
     4    3   26 1   
     5    3   35 1   
     6    3   46 1   
     7    4   18 1   
     8    4   27 1   
     9    4   33 1   
    10    5   15 1   
    11    5   17 1   
    12    6   14 1   
    13    6   15 1   
    14    6   36 1   
    15    7   16 1   
    16    7   37 1   
    17    7   41 1   
    18    8   11 1   
    19    8   13 1   
    20    8   51 1   
    21    9   28 1   
    22    9   32 1   
    23    9   33 1   
    24   10   11 1   
    25   11   12 1   
    26   14   40 1   
    27   14   51 1   
    28   15   39 1   
    29   16   21 1   
    30   16   42 1   
    31   17   18 1   
    32   17   43 1   
    33   18   19 1   
    34   18   44 1   
    35   19   20 1   
    36   19   21 1   
    37   19   22 1   
    38   23   24 1   
    39   23   34 1   
    40   24   25 1   
    41   27   28 1   
    42   28   29 1   
    43   29   30 1   
    44   29   47 1   
    45   29   48 1   
    46   30   31 1   
    47   30   49 1   
    48   31   32 1   
    49   31   50 1   
    50   38   51 1   
@<TRIPOS>SUBSTRUCTURE
     1 1CG         1 TEMP              0 ****  ****    0 ROOT
