@<TRIPOS>MOLECULE
1CG
   51    39     1     0     0
SMALL
bcc


@<TRIPOS>ATOM
      1 C4         -0.5340   -4.6770    1.2830 c1        1 1CG     -0.119500
      2 C5         -0.0600   -3.9280    0.2160 c1        1 1CG      0.072000
      3 C6          0.6080   -4.5540   -0.8280 c1        1 1CG     -0.146000
      4 C13        -1.0340    0.3050   -1.5400 c1        1 1CG      0.077000
      5 C15         1.5810    1.9320    0.2760 c1        1 1CG     -0.179000
      6 C17         3.1520    2.6050    1.9630 c1        1 1CG     -0.223000
      7 C20         0.6770    2.8770    0.7420 c2        1 1CG     -0.080000
      8 C22         1.8230    4.3440    4.7170 c1        1 1CG      0.231000
      9 C28        -2.3050   -0.0190   -3.3150 c1        1 1CG     -0.076000
     10 O26         1.4610    6.1800    6.2130 o         1 1CG     -0.517500
     11 C23         2.1980    5.2160    5.8880 c2        1 1CG      0.359000
     12 O25         3.2790    5.0190    6.4980 o         1 1CG     -0.517500
     13 O24         0.8700    3.5950    4.7980 o         1 1CG     -0.377000
     14 N21         2.5950    4.3860    3.5240 n2        1 1CG     -0.326000
     15 C18         2.2480    3.5510    2.4290 c1        1 1CG      0.134000
     16 C16         2.8180    1.7970    0.8860 c1        1 1CG     -0.088000
     17 C19         1.0120    3.6860    1.8190 c1        1 1CG     -0.188000
     18 C14         1.2320    1.0770   -0.9270 c2        1 1CG     -0.072000
     19 C12         0.1090    0.1300   -0.5640 c2        1 1CG     -0.694000
     20 S9          0.6980   -1.5380   -0.6370 s4        1 1CG      2.015800
     21 O10         0.8960   -1.9610   -1.9940 o         1 1CG     -0.527400
     22 O11         2.0300   -1.6440   -0.1140 o         1 1CG     -0.527400
     23 N8         -0.3310   -2.5360    0.1510 n1        1 1CG     -0.830000
     24 C3         -0.3420   -6.0500    1.3060 c1        1 1CG     -0.119500
     25 C2          0.3250   -6.6760    0.2620 c1        1 1CG      0.072000
     26 F7          0.4690   -8.0080    0.2620 f         1 1CG     -0.112000
     27 C1          0.8000   -5.9270   -0.8050 c1        1 1CG     -0.146000
     28 O30        -2.1550    1.0730   -1.4010 os        1 1CG     -0.105000
     29 C29        -2.9410    0.8730   -2.4980 c1        1 1CG     -0.005000
     30 C34        -4.1910    1.3960   -2.8680 c1        1 1CG     -0.119500
     31 C33        -4.7790    1.0090   -4.0610 c1        1 1CG     -0.119500
     32 C32        -4.1350    0.1060   -4.8890 c1        1 1CG     -0.119500
     33 C31        -2.9020   -0.4110   -4.5250 c1        1 1CG     -0.119500
     34 N27        -1.1270   -0.3680   -2.7200 n1        1 1CG     -0.148000
     35 H1         -1.0040   -4.2370    2.0180 ha        1 1CG      0.143833
     36 H2          0.9640   -4.0220   -1.5690 ha        1 1CG      0.164000
     37 H3          4.0210    2.5100    2.3920 ha        1 1CG      0.128000
     38 H4         -0.1940    2.9730    0.3120 ha        1 1CG      0.123000
     39 H6          3.3600    4.8500    3.5060 hn        1 1CG      0.239000
     40 H7          3.4550    1.1310    0.5580 ha        1 1CG      0.117000
     41 H8          0.3740    4.3530    2.1470 ha        1 1CG      0.177000
     42 H9          0.9470    1.6520   -1.6630 ha        1 1CG      0.106000
     43 H10         2.0200    0.5600   -1.2010 ha        1 1CG      0.106000
     44 H11        -0.2020    0.3260    0.3420 h4        1 1CG      0.191000
     45 H12        -1.0880   -2.2000    0.5350 hn        1 1CG      0.263000
     46 H13        -0.6770   -6.5770    2.0570 ha        1 1CG      0.143833
     47 H14         1.2700   -6.3680   -1.5400 ha        1 1CG      0.164000
     48 H15        -4.6450    2.0330   -2.2850 ha        1 1CG      0.143833
     49 H16        -5.6460    1.3730   -4.3170 ha        1 1CG      0.143833
     50 H17        -4.5490   -0.1670   -5.7300 ha        1 1CG      0.143833
     51 H18        -2.4480   -1.0480   -5.1080 ha        1 1CG      0.143833
@<TRIPOS>BOND
     1    1   24 1   
     2    1   35 1   
     3    2    3 1   
     4    3   36 1   
     5    4   28 1   
     6    4   34 1   
     7    5    7 1   
     8    5   16 1   
     9    6   15 1   
    10    6   37 1   
    11    7   17 1   
    12    7   38 1   
    13    8   11 1   
    14    8   13 1   
    15    9   29 1   
    16   10   11 1   
    17   11   12 1   
    18   14   15 1   
    19   14   39 1   
    20   16   40 1   
    21   17   41 1   
    22   18   19 1   
    23   18   42 1   
    24   18   43 1   
    25   19   20 1   
    26   19   44 1   
    27   20   21 1   
    28   20   22 1   
    29   23   45 1   
    30   24   46 1   
    31   25   27 1   
    32   27   47 1   
    33   28   29 1   
    34   30   31 1   
    35   30   48 1   
    36   31   49 1   
    37   32   33 1   
    38   32   50 1   
    39   33   51 1   
@<TRIPOS>SUBSTRUCTURE
     1 1CG         1 TEMP              0 ****  ****    0 ROOT
