@<TRIPOS>MOLECULE
1CG
   51    54     1     0     0
SMALL
bcc


@<TRIPOS>ATOM
      1 C4         -3.0760    3.3030    1.1620 ca        1 1CG     -0.147500
      2 C5         -2.1960    2.4860    1.9100 ca        1 1CG      0.151600
      3 C6         -0.9410    3.0130    2.2900 ca        1 1CG     -0.147500
      4 C13        -2.3230   -1.0240    0.1290 cc        1 1CG      0.590600
      5 C15         1.0680   -1.6800    0.5950 ca        1 1CG     -0.195300
      6 C17         2.5440   -1.8530   -1.3260 ca        1 1CG     -0.208500
      7 C20         2.1120   -1.1140    1.3340 ca        1 1CG     -0.081500
      8 C22         5.3740   -1.4180   -2.3920 c         1 1CG      0.537100
      9 C28        -4.2350   -1.2780   -0.9010 ca        1 1CG      0.067400
     10 O26         7.0450   -0.3070   -3.7100 o         1 1CG     -0.783300
     11 C23         6.8520   -0.9370   -2.6490 c         1 1CG      0.888600
     12 O25         7.6800   -1.2150   -1.7470 o         1 1CG     -0.783300
     13 O24         4.6960   -2.0630   -3.2050 o         1 1CG     -0.617100
     14 C18         3.6150   -1.2820   -0.5880 ca        1 1CG      0.126600
     15 C16         1.3040   -2.0420   -0.7360 ca        1 1CG     -0.081500
     16 C19         3.3600   -0.9180    0.7640 ca        1 1CG     -0.208500
     17 C14        -0.2620   -1.9060    1.2120 c3        1 1CG      0.024900
     18 C12        -1.1990   -0.7000    1.0270 c3        1 1CG     -0.286200
     19 S9         -1.6840   -0.1080    2.6140 s6        1 1CG      1.445900
     20 O10        -2.4870   -1.0710    3.2510 o         1 1CG     -0.634800
     21 O11        -0.5070    0.2560    3.2930 o         1 1CG     -0.634800
     22 N8         -2.5970    1.1890    2.2720 nh        1 1CG     -0.769500
     23 C3         -2.7190    4.5960    0.8070 ca        1 1CG     -0.138000
     24 C2         -1.4650    5.1060    1.1870 ca        1 1CG      0.099900
     25 F7         -1.1150    6.3680    0.8430 f         1 1CG     -0.142900
     26 C1         -0.5790    4.3030    1.9270 ca        1 1CG     -0.138000
     27 O30        -1.9900   -1.7030   -1.0740 os        1 1CG     -0.277700
     28 C29        -3.2120   -1.8620   -1.7270 ca        1 1CG      0.033100
     29 C34        -3.4700   -2.4620   -2.9500 ca        1 1CG     -0.104000
     30 C33        -4.8050   -2.4750   -3.3550 ca        1 1CG     -0.116000
     31 C32        -5.8220   -1.9150   -2.5670 ca        1 1CG     -0.147000
     32 C31        -5.5620   -1.3120   -1.3380 ca        1 1CG     -0.075000
     33 N27        -3.6220   -0.7590    0.2610 nd        1 1CG     -0.601100
     34 H1         -4.0600    2.9180    0.8500 ha        1 1CG      0.161000
     35 H2         -0.2260    2.4110    2.8800 ha        1 1CG      0.161000
     36 H3          2.7020   -2.1510   -2.3760 ha        1 1CG      0.152000
     37 H4          1.9380   -0.8170    2.3810 ha        1 1CG      0.126500
     38 H6          5.5500   -0.6650   -0.5120 hn        1 1CG      0.325500
     39 H7          0.4840   -2.4790   -1.3280 ha        1 1CG      0.126500
     40 H8          4.1630   -0.4750    1.3730 ha        1 1CG      0.152000
     41 H9         -0.7380   -2.8190    0.7640 hc        1 1CG      0.059700
     42 H10        -0.1410   -2.1010    2.3150 hc        1 1CG      0.059700
     43 H11        -0.5930    0.0990    0.4980 h1        1 1CG      0.156700
     44 H12        -3.5870    1.0640    2.2000 hn        1 1CG      0.468800
     45 H13        -3.4090    5.2240    0.2250 ha        1 1CG      0.151500
     46 H14         0.4040    4.7030    2.2170 ha        1 1CG      0.151500
     47 H15        -2.6680   -2.8960   -3.5600 ha        1 1CG      0.160000
     48 H16        -5.0670   -2.9380   -4.3190 ha        1 1CG      0.136000
     49 H17        -6.8590   -1.9540   -2.9330 ha        1 1CG      0.132000
     50 H18        -6.3690   -0.8800   -0.7310 ha        1 1CG      0.147000
     51 N21         4.8650   -1.0470   -1.1330 n         1 1CG     -0.473100
@<TRIPOS>BOND
     1    1    2 ar  
     2    1   23 ar  
     3    1   34 1   
     4    2    3 ar  
     5    2   22 1   
     6    3   26 ar  
     7    3   35 1   
     8    4   18 1   
     9    4   27 1   
    10    4   33 2   
    11    5    7 ar  
    12    5   15 ar  
    13    5   17 1   
    14    6   14 ar  
    15    6   15 ar  
    16    6   36 1   
    17    7   16 ar  
    18    7   37 1   
    19    8   11 1   
    20    8   13 2   
    21    8   51 1   
    22    9   28 ar  
    23    9   32 ar  
    24    9   33 1   
    25   10   11 1   
    26   11   12 1   
    27   14   16 ar  
    28   14   51 1   
    29   15   39 1   
    30   16   40 1   
    31   17   18 1   
    32   17   41 1   
    33   17   42 1   
    34   18   19 1   
    35   18   43 1   
    36   19   20 2   
    37   19   21 2   
    38   19   22 1   
    39   22   44 1   
    40   23   24 ar  
    41   23   45 1   
    42   24   25 1   
    43   24   26 ar  
    44   26   46 1   
    45   27   28 1   
    46   28   29 ar  
    47   29   30 ar  
    48   29   47 1   
    49   30   31 ar  
    50   30   48 1   
    51   31   32 ar  
    52   31   49 1   
    53   32   50 1   
    54   38   51 1   
@<TRIPOS>SUBSTRUCTURE
     1 1CG         1 TEMP              0 ****  ****    0 ROOT
