@<TRIPOS>MOLECULE
1CH
   45    40     1     0     0
SMALL
bcc


@<TRIPOS>ATOM
      1 O17        -1.7320    0.5020   -2.0050 o         1 1CH     -0.565500
      2 C15        -0.8320    1.0840   -1.3780 c2        1 1CH      0.327000
      3 O16         0.0950    1.6550   -1.9980 o         1 1CH     -0.565500
      4 C14        -0.8780    1.1400    0.1030 c3        1 1CH     -0.081000
      5 C18        -1.2480    2.5530    0.5450 c3        1 1CH     -0.107000
      6 C19        -2.7280    2.7790    0.3250 c2        1 1CH     -0.042000
      7 C24        -3.1890    3.1950   -0.9200 c2        1 1CH     -0.120000
      8 C23        -4.5290    3.5520   -1.0850 c1        1 1CH     -0.143000
      9 C22        -5.4000    3.4920   -0.0060 c1        1 1CH     -0.146500
     10 C21        -4.9370    3.0740    1.2430 c1        1 1CH     -0.146500
     11 C20        -3.6050    2.7190    1.4060 c1        1 1CH     -0.135000
     12 N13         0.4070    0.7930    0.6340 n3        1 1CH     -0.269000
     13 C10         1.0140   -0.4890    0.2920 c1        1 1CH      0.146000
     14 N9          0.2090   -1.6600    0.2320 n1        1 1CH     -0.268000
     15 C8          0.8310   -2.9720    0.2410 c2        1 1CH      0.038000
     16 C12         0.8910   -3.5390    1.6510 c3        1 1CH     -0.200500
     17 C11        -0.0940   -3.9770   -0.4200 c3        1 1CH     -0.200500
     18 C7          2.2080   -3.0220   -0.4330 c3        1 1CH     -0.151000
     19 C2          3.0340   -1.7450   -0.5090 c1        1 1CH     -0.046000
     20 C3          2.4780   -0.5490   -0.1420 c1        1 1CH     -0.079000
     21 C4          3.2720    0.6050   -0.0850 c1        1 1CH     -0.092000
     22 C5          4.6190    0.5350   -0.4010 c1        1 1CH     -0.146500
     23 C6          5.1830   -0.6820   -0.7750 c1        1 1CH     -0.146500
     24 C1          4.4000   -1.8170   -0.8290 c1        1 1CH     -0.146000
     25 H2         -1.5620    0.4970    0.4380 h1        1 1CH      0.109000
     26 H3         -1.0400    2.6630    1.4970 hc        1 1CH      0.088000
     27 H4         -0.7340    3.2060    0.0200 hc        1 1CH      0.088000
     28 H5         -2.5710    3.2370   -1.6840 ha        1 1CH      0.200000
     29 H6         -4.8530    3.8440   -1.9590 ha        1 1CH      0.116000
     30 H7         -6.3610    3.6710   -0.1390 ha        1 1CH      0.113500
     31 H8         -5.5420    3.0700    2.0130 ha        1 1CH      0.113500
     32 H9         -3.2780    2.4220    2.2930 ha        1 1CH      0.120000
     33 H10         0.8520    1.3790    1.1600 hn        1 1CH      0.231000
     34 H11         1.1810   -4.4850    1.6130 hc        1 1CH      0.071500
     35 H12         1.5380   -3.0150    2.1920 hc        1 1CH      0.071500
     36 H13        -0.0140   -3.4850    2.0720 hc        1 1CH      0.071500
     37 H14        -0.9710   -3.9440    0.0090 hc        1 1CH      0.071500
     38 H15         0.2820   -4.8790   -0.3260 hc        1 1CH      0.071500
     39 H16        -0.1870   -3.7590   -1.3700 hc        1 1CH      0.071500
     40 H17         2.0650   -3.3270   -1.3600 hc        1 1CH      0.089000
     41 H18         2.7530   -3.6900    0.0690 hc        1 1CH      0.089000
     42 H19         2.8760    1.4570    0.1760 ha        1 1CH      0.153000
     43 H20         5.1700    1.3350   -0.3620 ha        1 1CH      0.113500
     44 H21         6.1280   -0.7420   -0.9440 ha        1 1CH      0.113500
     45 H22         4.8000   -2.6830   -1.0950 ha        1 1CH      0.121000
@<TRIPOS>BOND
     1    1    2 1   
     2    2    3 1   
     3    2    4 1   
     4    4    5 1   
     5    4   12 1   
     6    4   25 1   
     7    5    6 1   
     8    5   26 1   
     9    5   27 1   
    10    6    7 1   
    11    6   11 1   
    12    7    8 1   
    13    7   28 1   
    14    8   29 1   
    15    9   10 1   
    16    9   30 1   
    17   10   31 1   
    18   11   32 1   
    19   12   13 1   
    20   12   33 1   
    21   13   14 1   
    22   15   16 1   
    23   15   17 1   
    24   15   18 1   
    25   16   34 1   
    26   16   35 1   
    27   16   36 1   
    28   17   37 1   
    29   17   38 1   
    30   17   39 1   
    31   18   19 1   
    32   18   40 1   
    33   18   41 1   
    34   19   24 1   
    35   20   21 1   
    36   21   42 1   
    37   22   23 1   
    38   22   43 1   
    39   23   44 1   
    40   24   45 1   
@<TRIPOS>SUBSTRUCTURE
     1 1CH         1 TEMP              0 ****  ****    0 ROOT
