@<TRIPOS>MOLECULE
1CH
   46    48     1     0     0
SMALL
bcc


@<TRIPOS>ATOM
      1 O17         3.0600    2.9590   -0.5220 o         1 1CH     -0.764300
      2 C15         4.0080    2.4550    0.1020 c         1 1CH      0.928600
      3 O16         5.2360    2.7450    0.0660 o         1 1CH     -0.764300
      4 C14         3.6190    1.2410    1.0730 c3        1 1CH     -0.048500
      5 C18         2.5410    1.7240    2.0320 c3        1 1CH     -0.052100
      6 C19         1.9550    0.6430    2.8650 ca        1 1CH     -0.103300
      7 C24         1.0920   -0.2990    2.2890 ca        1 1CH     -0.126500
      8 C23         0.5160   -1.2960    3.0720 ca        1 1CH     -0.126000
      9 C22         0.7940   -1.3620    4.4380 ca        1 1CH     -0.130000
     10 C21         1.6490   -0.4260    5.0190 ca        1 1CH     -0.126000
     11 C20         2.2270    0.5730    4.2360 ca        1 1CH     -0.126500
     12 N13         4.8530    0.7530    1.7810 ny        1 1CH     -0.722000
     13 C10         5.1410   -0.6870    1.5860 ce        1 1CH      0.577800
     14 N9          5.1520   -1.4340    2.6470 n2        1 1CH     -0.574900
     15 C8          5.4340   -2.8640    2.5290 c3        1 1CH      0.148200
     16 C12         6.9280   -3.1390    2.7860 c3        1 1CH     -0.088100
     17 C11         4.6290   -3.6270    3.5960 c3        1 1CH     -0.088100
     18 C7          5.0540   -3.4520    1.1500 c3        1 1CH     -0.068100
     19 C2          5.3860   -2.5490    0.0170 ca        1 1CH     -0.046300
     20 C3          5.4100   -1.1510    0.2060 ca        1 1CH     -0.205900
     21 C4          5.7140   -0.3050   -0.8640 ca        1 1CH     -0.090000
     22 C5          5.9770   -0.8490   -2.1230 ca        1 1CH     -0.127000
     23 C6          5.9430   -2.2290   -2.3160 ca        1 1CH     -0.094000
     24 C1          5.6490   -3.0770   -1.2480 ca        1 1CH     -0.138000
     25 H2          3.2250    0.4080    0.4280 hx        1 1CH      0.100700
     26 H3          2.9410    2.5490    2.6810 hc        1 1CH      0.091200
     27 H4          1.7430    2.1850    1.3790 hc        1 1CH      0.091200
     28 H5          0.8640   -0.2390    1.2130 ha        1 1CH      0.134000
     29 H6         -0.1650   -2.0280    2.6140 ha        1 1CH      0.133500
     30 H7          0.3340   -2.1460    5.0570 ha        1 1CH      0.132000
     31 H8          1.8650   -0.4710    6.0960 ha        1 1CH      0.133500
     32 H9          2.8890    1.3170    4.7030 ha        1 1CH      0.134000
     33 H10         4.7740    0.9720    2.7800 hn        1 1CH      0.466800
     34 H11         7.5550   -2.6860    1.9820 hc        1 1CH      0.050200
     35 H12         7.2420   -2.7240    3.7740 hc        1 1CH      0.050200
     36 H13         7.0940   -4.2420    2.7950 hc        1 1CH      0.050200
     37 H14         4.9370   -3.3090    4.6200 hc        1 1CH      0.050200
     38 H15         4.8300   -4.7180    3.4790 hc        1 1CH      0.050200
     39 H16         3.5340   -3.4470    3.4780 hc        1 1CH      0.050200
     40 H17         5.5750   -4.4370    1.0280 hc        1 1CH      0.071200
     41 H18         3.9470   -3.6540    1.1280 hc        1 1CH      0.071200
     42 H19         5.7450    0.7970   -0.7520 ha        1 1CH      0.192000
     43 H20         6.2080   -0.1760   -2.9630 ha        1 1CH      0.154000
     44 H21         6.1480   -2.6520   -3.3110 ha        1 1CH      0.142000
     45 H22         5.6260   -4.1670   -1.4000 ha        1 1CH      0.140000
     46 H132        5.6510    1.3020    1.3750 hn        1 1CH      0.466800
@<TRIPOS>BOND
     1    1    2 1   
     2    2    3 1   
     3    2    4 1   
     4    4    5 1   
     5    4   12 1   
     6    4   25 1   
     7    5    6 1   
     8    5   26 1   
     9    5   27 1   
    10    6    7 ar  
    11    6   11 ar  
    12    7    8 ar  
    13    7   28 1   
    14    8    9 ar  
    15    8   29 1   
    16    9   10 ar  
    17    9   30 1   
    18   10   11 ar  
    19   10   31 1   
    20   11   32 1   
    21   12   13 1   
    22   12   33 1   
    23   12   46 1   
    24   13   14 2   
    25   13   20 1   
    26   14   15 1   
    27   15   16 1   
    28   15   17 1   
    29   15   18 1   
    30   16   34 1   
    31   16   35 1   
    32   16   36 1   
    33   17   37 1   
    34   17   38 1   
    35   17   39 1   
    36   18   19 1   
    37   18   40 1   
    38   18   41 1   
    39   19   20 ar  
    40   19   24 ar  
    41   20   21 ar  
    42   21   22 ar  
    43   21   42 1   
    44   22   23 ar  
    45   22   43 1   
    46   23   24 ar  
    47   23   44 1   
    48   24   45 1   
@<TRIPOS>SUBSTRUCTURE
     1 1CH         1 TEMP              0 ****  ****    0 ROOT
