@<TRIPOS>MOLECULE
1CH
   46    48     1     0     0
SMALL
bcc


@<TRIPOS>ATOM
      1 O17         3.1090    3.0200   -0.4310 o         1 1CH     -0.764300
      2 C15         4.0610    2.4800    0.1550 c         1 1CH      0.928600
      3 O16         5.2950    2.7350    0.0850 o         1 1CH     -0.764300
      4 C14         3.6680    1.2640    1.1210 c3        1 1CH     -0.048500
      5 C18         2.6340    1.7640    2.1210 c3        1 1CH     -0.052100
      6 C19         2.0430    0.6870    2.9570 ca        1 1CH     -0.103300
      7 C24         1.1370   -0.2210    2.3950 ca        1 1CH     -0.126500
      8 C23         0.5570   -1.2140    3.1830 ca        1 1CH     -0.126000
      9 C22         0.8750   -1.3060    4.5390 ca        1 1CH     -0.130000
     10 C21         1.7730   -0.4030    5.1050 ca        1 1CH     -0.126000
     11 C20         2.3550    0.5910    4.3180 ca        1 1CH     -0.126500
     12 N13         4.9080    0.7310    1.7830 n4        1 1CH     -0.722000
     13 C10         5.1480   -0.7150    1.5590 ce        1 1CH      0.577800
     14 N9          5.1710   -1.4770    2.6090 n2        1 1CH     -0.574900
     15 C8          5.4070   -2.9130    2.4620 c3        1 1CH      0.148200
     16 C12         6.8990   -3.2340    2.6670 c3        1 1CH     -0.088100
     17 C11         4.6140   -3.6680    3.5440 c3        1 1CH     -0.088100
     18 C7          4.9650   -3.4690    1.0880 c3        1 1CH     -0.068100
     19 C2          5.2880   -2.5600   -0.0430 ca        1 1CH     -0.046300
     20 C3          5.3580   -1.1660    0.1650 ca        1 1CH     -0.205900
     21 C4          5.6540   -0.3140   -0.9030 ca        1 1CH     -0.090000
     22 C5          5.8610   -0.8460   -2.1760 ca        1 1CH     -0.127000
     23 C6          5.7800   -2.2210   -2.3880 ca        1 1CH     -0.094000
     24 C1          5.4950   -3.0760   -1.3230 ca        1 1CH     -0.138000
     25 H2          3.2290    0.4520    0.4780 hx        1 1CH      0.100700
     26 H3          1.8300    2.2570    1.5000 hc        1 1CH      0.091200
     27 H4          3.0790    2.5670    2.7680 hc        1 1CH      0.091200
     28 H5          0.8780   -0.1400    1.3280 ha        1 1CH      0.134000
     29 H6         -0.1580   -1.9190    2.7360 ha        1 1CH      0.133500
     30 H7          0.4110   -2.0860    5.1610 ha        1 1CH      0.132000
     31 H8          2.0210   -0.4690    6.1740 ha        1 1CH      0.133500
     32 H9          3.0530    1.3090    4.7740 ha        1 1CH      0.134000
     33 H10         5.7090    1.2620    1.3590 hn        1 1CH      0.466800
     34 H11         7.5130   -2.7880    1.8490 hc        1 1CH      0.050200
     35 H12         7.2570   -2.8440    3.6490 hc        1 1CH      0.050200
     36 H13         7.0340   -4.3420    2.6550 hc        1 1CH      0.050200
     37 H14         3.5210   -3.4550    3.4640 hc        1 1CH      0.050200
     38 H15         4.9640   -3.3740    4.5620 hc        1 1CH      0.050200
     39 H16         4.7800   -4.7630    3.4050 hc        1 1CH      0.050200
     40 H17         3.8530   -3.6390    1.0990 hc        1 1CH      0.071200
     41 H18         5.4530   -4.4680    0.9360 hc        1 1CH      0.071200
     42 H19         5.7210    0.7850   -0.7760 ha        1 1CH      0.192000
     43 H20         6.0850   -0.1680   -3.0140 ha        1 1CH      0.154000
     44 H21         5.9410   -2.6360   -3.3950 ha        1 1CH      0.142000
     45 H22         5.4350   -4.1620   -1.4890 ha        1 1CH      0.140000
     46 H132        4.8670    0.9360    2.7870 hn        1 1CH      0.466800
@<TRIPOS>BOND
     1    1    2 1   
     2    2    3 1   
     3    2    4 1   
     4    4    5 1   
     5    4   12 1   
     6    4   25 1   
     7    5    6 1   
     8    5   26 1   
     9    5   27 1   
    10    6    7 ar  
    11    6   11 ar  
    12    7    8 ar  
    13    7   28 1   
    14    8    9 ar  
    15    8   29 1   
    16    9   10 ar  
    17    9   30 1   
    18   10   11 ar  
    19   10   31 1   
    20   11   32 1   
    21   12   13 1   
    22   12   33 1   
    23   12   46 1   
    24   13   14 2   
    25   13   20 1   
    26   14   15 1   
    27   15   16 1   
    28   15   17 1   
    29   15   18 1   
    30   16   34 1   
    31   16   35 1   
    32   16   36 1   
    33   17   37 1   
    34   17   38 1   
    35   17   39 1   
    36   18   19 1   
    37   18   40 1   
    38   18   41 1   
    39   19   20 ar  
    40   19   24 ar  
    41   20   21 ar  
    42   21   22 ar  
    43   21   42 1   
    44   22   23 ar  
    45   22   43 1   
    46   23   24 ar  
    47   23   44 1   
    48   24   45 1   
@<TRIPOS>SUBSTRUCTURE
     1 1CH         1 TEMP              0 ****  ****    0 ROOT
