@<TRIPOS>MOLECULE
1CH
   46    48     1     0     0
SMALL
bcc


@<TRIPOS>ATOM
      1 O17         2.9800    2.9670   -0.4660 o         1 1CH     -0.764300
      2 C15         3.9480    2.4640    0.1260 c         1 1CH      0.928600
      3 O16         5.1730    2.7590    0.0560 o         1 1CH     -0.764300
      4 C14         3.5930    1.2420    1.1010 c3        1 1CH     -0.048500
      5 C18         2.5400    1.7150    2.0940 c3        1 1CH     -0.052100
      6 C19         1.9830    0.6250    2.9360 ca        1 1CH     -0.103300
      7 C24         1.1100   -0.3170    2.3780 ca        1 1CH     -0.126500
      8 C23         0.5600   -1.3230    3.1710 ca        1 1CH     -0.126000
      9 C22         0.8760   -1.3950    4.5280 ca        1 1CH     -0.130000
     10 C21         1.7420   -0.4580    5.0900 ca        1 1CH     -0.126000
     11 C20         2.2930    0.5490    4.2980 ca        1 1CH     -0.126500
     12 N13         4.8490    0.7570    1.7700 n4        1 1CH     -0.722000
     13 C10         5.1380   -0.6810    1.5600 ce        1 1CH      0.577800
     14 N9          5.1840   -1.4330    2.6160 n2        1 1CH     -0.574900
     15 C8          5.4680   -2.8620    2.4820 c3        1 1CH      0.148200
     16 C12         6.9700   -3.1310    2.6930 c3        1 1CH     -0.088100
     17 C11         4.6980   -3.6340    3.5690 c3        1 1CH     -0.088100
     18 C7          5.0490   -3.4440    1.1120 c3        1 1CH     -0.068100
     19 C2          5.3440   -2.5340   -0.0260 ca        1 1CH     -0.046300
     20 C3          5.3670   -1.1370    0.1700 ca        1 1CH     -0.205900
     21 C4          5.6360   -0.2840   -0.9050 ca        1 1CH     -0.090000
     22 C5          5.8640   -0.8210   -2.1730 ca        1 1CH     -0.127000
     23 C6          5.8300   -2.1990   -2.3730 ca        1 1CH     -0.094000
     24 C1          5.5720   -3.0540   -1.3010 ca        1 1CH     -0.138000
     25 H2          3.1840    0.4120    0.4630 hx        1 1CH      0.100700
     26 H3          2.9550    2.5370    2.7370 hc        1 1CH      0.091200
     27 H4          1.7220    2.1760    1.4670 hc        1 1CH      0.091200
     28 H5          0.8510   -0.2520    1.3100 ha        1 1CH      0.134000
     29 H6         -0.1290   -2.0550    2.7270 ha        1 1CH      0.133500
     30 H7          0.4370   -2.1850    5.1540 ha        1 1CH      0.132000
     31 H8          1.9880   -0.5080    6.1610 ha        1 1CH      0.133500
     32 H9          2.9640    1.2940    4.7520 ha        1 1CH      0.134000
     33 H10         5.6320    1.3110    1.3450 hn        1 1CH      0.466800
     34 H11         7.5710   -2.6710    1.8730 hc        1 1CH      0.050200
     35 H12         7.3120   -2.7200    3.6720 hc        1 1CH      0.050200
     36 H13         7.1420   -4.2340    2.6900 hc        1 1CH      0.050200
     37 H14         5.0360   -3.3200    4.5850 hc        1 1CH      0.050200
     38 H15         4.9010   -4.7240    3.4390 hc        1 1CH      0.050200
     39 H16         3.6000   -3.4590    3.4850 hc        1 1CH      0.050200
     40 H17         3.9430   -3.6510    1.1210 hc        1 1CH      0.071200
     41 H18         5.5710   -4.4270    0.9690 hc        1 1CH      0.071200
     42 H19         5.6650    0.8170   -0.7870 ha        1 1CH      0.192000
     43 H20         6.0670   -0.1420   -3.0160 ha        1 1CH      0.154000
     44 H21         6.0070   -2.6160   -3.3760 ha        1 1CH      0.142000
     45 H22         5.5480   -4.1430   -1.4580 ha        1 1CH      0.140000
     46 H132        4.7980    0.9700    2.7720 hn        1 1CH      0.466800
@<TRIPOS>BOND
     1    1    2 1   
     2    2    3 1   
     3    2    4 1   
     4    4    5 1   
     5    4   12 1   
     6    4   25 1   
     7    5    6 1   
     8    5   26 1   
     9    5   27 1   
    10    6    7 ar  
    11    6   11 ar  
    12    7    8 ar  
    13    7   28 1   
    14    8    9 ar  
    15    8   29 1   
    16    9   10 ar  
    17    9   30 1   
    18   10   11 ar  
    19   10   31 1   
    20   11   32 1   
    21   12   13 1   
    22   12   33 1   
    23   12   46 1   
    24   13   14 2   
    25   13   20 1   
    26   14   15 1   
    27   15   16 1   
    28   15   17 1   
    29   15   18 1   
    30   16   34 1   
    31   16   35 1   
    32   16   36 1   
    33   17   37 1   
    34   17   38 1   
    35   17   39 1   
    36   18   19 1   
    37   18   40 1   
    38   18   41 1   
    39   19   20 ar  
    40   19   24 ar  
    41   20   21 ar  
    42   21   22 ar  
    43   21   42 1   
    44   22   23 ar  
    45   22   43 1   
    46   23   24 ar  
    47   23   44 1   
    48   24   45 1   
@<TRIPOS>SUBSTRUCTURE
     1 1CH         1 TEMP              0 ****  ****    0 ROOT
