@<TRIPOS>MOLECULE
1CH
   45    47     1     0     0
SMALL
bcc


@<TRIPOS>ATOM
      1 O17        -2.3820   -3.1930   -2.1420 o         1 1CH     -0.829800
      2 C15        -1.5210   -2.2890   -2.3070 c         1 1CH      0.904600
      3 O16        -0.7620   -2.1780   -3.3090 o         1 1CH     -0.829800
      4 C14        -1.4040   -1.2220   -1.1500 c3        1 1CH      0.056500
      5 C18        -2.7420   -0.4640   -1.1190 c3        1 1CH     -0.036100
      6 C19        -2.9550    0.3370    0.1150 ca        1 1CH     -0.033300
      7 C24        -3.1390   -0.3020    1.3500 ca        1 1CH     -0.125500
      8 C23        -3.3770    0.4420    2.5020 ca        1 1CH     -0.138500
      9 C22        -3.4360    1.8350    2.4390 ca        1 1CH     -0.158000
     10 C21        -3.2500    2.4780    1.2170 ca        1 1CH     -0.138500
     11 C20        -3.0110    1.7350    0.0620 ca        1 1CH     -0.125500
     12 N13        -0.2770   -0.3240   -1.3450 nh        1 1CH     -0.773200
     13 C10         0.7530   -0.2050   -0.4010 ce        1 1CH      0.670800
     14 N9          0.6310   -0.6220    0.8400 n2        1 1CH     -0.677900
     15 C8          1.7030   -0.3720    1.7920 c3        1 1CH      0.163200
     16 C12         1.5230    0.9760    2.5150 c3        1 1CH     -0.082600
     17 C11         1.6870   -1.4720    2.8710 c3        1 1CH     -0.082600
     18 C7          3.1140   -0.3890    1.1550 c3        1 1CH     -0.064100
     19 C2          3.1520    0.3970   -0.1050 ca        1 1CH     -0.053300
     20 C3          1.9880    0.5080   -0.8880 ca        1 1CH     -0.158900
     21 C4          2.0200    1.2800   -2.0530 ca        1 1CH     -0.091000
     22 C5          3.2020    1.9040   -2.4530 ca        1 1CH     -0.149000
     23 C6          4.3600    1.7700   -1.6900 ca        1 1CH     -0.130000
     24 C1          4.3330    1.0210   -0.5150 ca        1 1CH     -0.146000
     25 H2         -1.3110   -1.8040   -0.1900 h1        1 1CH      0.073700
     26 H3         -2.8270    0.1910   -2.0250 hc        1 1CH      0.060700
     27 H4         -3.5450   -1.2520   -1.1910 hc        1 1CH      0.060700
     28 H5         -3.0780   -1.4010    1.3990 ha        1 1CH      0.134500
     29 H6         -3.5130   -0.0690    3.4650 ha        1 1CH      0.111500
     30 H7         -3.6240    2.4210    3.3490 ha        1 1CH      0.109000
     31 H8         -3.2870    3.5750    1.1630 ha        1 1CH      0.111500
     32 H9         -2.8550    2.2480   -0.8980 ha        1 1CH      0.134500
     33 H10         0.0790   -0.4230   -2.2840 hn        1 1CH      0.426800
     34 H11         0.5170    1.0280    2.9960 hc        1 1CH      0.032367
     35 H12         2.3040    1.0850    3.3040 hc        1 1CH      0.032367
     36 H13         1.6200    1.8200    1.7920 hc        1 1CH      0.032367
     37 H14         1.8080   -2.4820    2.4120 hc        1 1CH      0.032367
     38 H15         2.5270   -1.2950    3.5840 hc        1 1CH      0.032367
     39 H16         0.7230   -1.4490    3.4320 hc        1 1CH      0.032367
     40 H17         3.8560    0.0150    1.8920 hc        1 1CH      0.049700
     41 H18         3.4050   -1.4500    0.9280 hc        1 1CH      0.049700
     42 H19         1.1180    1.4130   -2.6720 ha        1 1CH      0.151000
     43 H20         3.2170    2.5000   -3.3760 ha        1 1CH      0.123000
     44 H21         5.2920    2.2560   -2.0110 ha        1 1CH      0.117000
     45 H22         5.2420    0.9210    0.0960 ha        1 1CH      0.121000
@<TRIPOS>BOND
     1    1    2 1   
     2    2    3 1   
     3    2    4 1   
     4    4    5 1   
     5    4   12 1   
     6    4   25 1   
     7    5    6 1   
     8    5   26 1   
     9    5   27 1   
    10    6    7 ar  
    11    6   11 ar  
    12    7    8 ar  
    13    7   28 1   
    14    8    9 ar  
    15    8   29 1   
    16    9   10 ar  
    17    9   30 1   
    18   10   11 ar  
    19   10   31 1   
    20   11   32 1   
    21   12   13 1   
    22   12   33 1   
    23   13   14 2   
    24   13   20 1   
    25   14   15 1   
    26   15   16 1   
    27   15   17 1   
    28   15   18 1   
    29   16   34 1   
    30   16   35 1   
    31   16   36 1   
    32   17   37 1   
    33   17   38 1   
    34   17   39 1   
    35   18   19 1   
    36   18   40 1   
    37   18   41 1   
    38   19   20 ar  
    39   19   24 ar  
    40   20   21 ar  
    41   21   22 ar  
    42   21   42 1   
    43   22   23 ar  
    44   22   43 1   
    45   23   24 ar  
    46   23   44 1   
    47   24   45 1   
@<TRIPOS>SUBSTRUCTURE
     1 1CH         1 TEMP              0 ****  ****    0 ROOT
