@<TRIPOS>MOLECULE
1CI
   19    20     1     0     0
SMALL
bcc


@<TRIPOS>ATOM
      1 C11        -0.1840   -1.1890   -0.1930 ca        1 1CI     -0.140000
      2 C10        -1.5740   -1.1950   -0.2020 ca        1 1CI     -0.103000
      3 C9         -2.2810   -0.0040   -0.0150 ca        1 1CI      0.004400
      4 CL         -3.9780   -0.0150   -0.0300 cl        1 1CI     -0.082400
      5 C8         -1.5940    1.1980    0.1850 ca        1 1CI     -0.103000
      6 C7         -0.2040    1.2120    0.2020 ca        1 1CI     -0.140000
      7 C6          0.5240    0.0160    0.0120 ca        1 1CI      0.020800
      8 N1          1.9280    0.0240    0.0260 na        1 1CI     -0.145000
      9 C5          2.7660    1.1100   -0.2750 cc        1 1CI     -0.245600
     10 C4          4.0800    0.6430   -0.1200 cd        1 1CI      0.297200
     11 N3          4.0720   -0.6990    0.2710 nd        1 1CI     -0.660000
     12 C2          2.7780   -1.0550    0.3530 cc        1 1CI      0.402400
     13 H11         0.3570   -2.1350   -0.3530 ha        1 1CI      0.147500
     14 H10        -2.1130   -2.1420   -0.3610 ha        1 1CI      0.154000
     15 H8         -2.1500    2.1370    0.3330 ha        1 1CI      0.154000
     16 H7          0.3210    2.1640    0.3700 ha        1 1CI      0.147500
     17 H5          2.3780    2.0810   -0.5760 h4        1 1CI      0.180000
     18 H4          5.0130    1.1860   -0.2660 h4        1 1CI      0.046100
     19 H2          2.3970   -2.0390    0.6460 h5        1 1CI      0.064100
@<TRIPOS>BOND
     1    1    2 ar  
     2    1    7 ar  
     3    1   13 1   
     4    2    3 ar  
     5    2   14 1   
     6    3    4 1   
     7    3    5 ar  
     8    5    6 ar  
     9    5   15 1   
    10    6    7 ar  
    11    6   16 1   
    12    7    8 1   
    13    8    9 1   
    14    8   12 1   
    15    9   10 2   
    16    9   17 1   
    17   10   11 1   
    18   10   18 1   
    19   11   12 2   
    20   12   19 1   
@<TRIPOS>SUBSTRUCTURE
     1 1CI         1 TEMP              0 ****  ****    0 ROOT
