@<TRIPOS>MOLECULE
1CI
   19    13     1     0     0
SMALL
bcc


@<TRIPOS>ATOM
      1 C11         0.8310   -0.0000   -1.1890 c1        1 1CI     -0.139000
      2 C10         2.2160    0.0300   -1.1480 c1        1 1CI     -0.103000
      3 C9          2.8740   -0.0130    0.0710 c1        1 1CI     -0.074000
      4 CL          4.6170   -0.0040    0.1220 cl        1 1CI     -0.004000
      5 C8          2.1470   -0.0860    1.2490 c2        1 1CI     -0.103000
      6 C7          0.7620   -0.1170    1.2080 c1        1 1CI     -0.141000
      7 C6          0.1040   -0.0740   -0.0110 c1        1 1CI      0.066000
      8 N1         -1.2360   -0.0840   -0.0500 n2        1 1CI     -0.130000
      9 C5         -2.0300    0.9910   -0.0540 c1        1 1CI     -0.162000
     10 C4         -3.3280    0.5580   -0.0560 c1        1 1CI     -0.162000
     11 N3         -3.3170   -0.7780   -0.0530 n2        1 1CI     -0.130000
     12 C2         -2.0250   -1.1860   -0.0490 c1        1 1CI     -0.086000
     13 H11         0.3680    0.0300   -2.0480 ha        1 1CI      0.148000
     14 H10         2.7280    0.0820   -1.9770 ha        1 1CI      0.154000
     15 H8          2.6110   -0.1160    2.1080 ha        1 1CI      0.154000
     16 H7          0.2500   -0.1680    2.0380 ha        1 1CI      0.147000
     17 H5         -1.7350    1.9220   -0.0550 DU        1 1CI      0.188000
     18 H4         -4.1220    1.1250   -0.0580 DU        1 1CI      0.188000
     19 H2         -1.7160   -2.1120   -0.0470 DU        1 1CI      0.188000
@<TRIPOS>BOND
     1    1    7 1   
     2    1   13 1   
     3    2    3 1   
     4    2   14 1   
     5    3    5 1   
     6    5    6 1   
     7    5   15 1   
     8    6   16 1   
     9    8    9 1   
    10    8   12 1   
    11    9   10 1   
    12   10   11 1   
    13   11   12 1   
@<TRIPOS>SUBSTRUCTURE
     1 1CI         1 TEMP              0 ****  ****    0 ROOT
