@<TRIPOS>MOLECULE
1CI
   19    20     1     0     0
SMALL
bcc


@<TRIPOS>ATOM
      1 C11         0.0130   -0.1940    0.0100 ca        1 1CI     -0.140000
      2 C10         1.4040   -0.2030    0.0020 ca        1 1CI     -0.103000
      3 C9          2.1130   -0.0170    1.1920 ca        1 1CI      0.004400
      4 CL          3.8100   -0.0340    1.1780 cl        1 1CI     -0.082400
      5 C8          1.4280    0.1820    2.3950 ca        1 1CI     -0.103000
      6 C7          0.0380    0.2000    2.4110 ca        1 1CI     -0.140000
      7 C6         -0.6920    0.0110    1.2160 ca        1 1CI      0.020800
      8 N1         -2.0960    0.0270    1.2260 na        1 1CI     -0.145000
      9 C5         -2.9330   -0.2740    2.3140 cc        1 1CI     -0.245600
     10 C4         -4.2470   -0.1190    1.8480 cd        1 1CI      0.297200
     11 N3         -4.2420    0.2730    0.5060 nd        1 1CI     -0.660000
     12 C2         -2.9480    0.3550    0.1480 cc        1 1CI      0.402400
     13 H11        -0.5280   -0.3530   -0.9360 ha        1 1CI      0.147500
     14 H10         1.9420   -0.3620   -0.9460 ha        1 1CI      0.154000
     15 H8          1.9850    0.3300    3.3330 ha        1 1CI      0.154000
     16 H7         -0.4860    0.3690    3.3650 ha        1 1CI      0.147500
     17 H5         -2.5440   -0.5760    3.2830 h4        1 1CI      0.180000
     18 H4         -5.1800   -0.2640    2.3920 h4        1 1CI      0.046100
     19 H2         -2.5670    0.6480   -0.8350 h5        1 1CI      0.064100
@<TRIPOS>BOND
     1    1    2 ar  
     2    1    7 ar  
     3    1   13 1   
     4    2    3 ar  
     5    2   14 1   
     6    3    4 1   
     7    3    5 ar  
     8    5    6 ar  
     9    5   15 1   
    10    6    7 ar  
    11    6   16 1   
    12    7    8 1   
    13    8    9 1   
    14    8   12 1   
    15    9   10 2   
    16    9   17 1   
    17   10   11 1   
    18   10   18 1   
    19   11   12 2   
    20   12   19 1   
@<TRIPOS>SUBSTRUCTURE
     1 1CI         1 TEMP              0 ****  ****    0 ROOT
