@<TRIPOS>MOLECULE
1CJ
   26    27     1     0     0
SMALL
bcc


@<TRIPOS>ATOM
      1 O1          0.5260    0.7030   -0.4420 oh        1 1CJ     -0.628800
      2 C1          1.8250    0.2060   -0.2160 c3        1 1CJ      0.421100
      3 O2          1.7890   -1.1420   -0.6690 os        1 1CJ     -0.453600
      4 C9          1.7740   -1.2530   -2.0940 c3        1 1CJ      0.132400
      5 C10         1.6080   -2.7200   -2.4150 c3        1 1CJ     -0.097100
      6 C2          2.2330    0.2080    1.2050 cc        1 1CJ     -0.344800
      7 C8          2.9950   -0.7920    1.9010 cc        1 1CJ      0.415500
      8 N2          3.2280   -0.4300    3.1920 nd        1 1CJ     -0.575100
      9 N1          2.6400    0.7690    3.3610 na        1 1CJ      0.195000
     10 C3          1.9990    1.2230    2.1620 cd        1 1CJ     -0.022300
     11 C7          2.5960    1.5560    4.5040 cc        1 1CJ     -0.040300
     12 C6          1.9360    2.7640    4.4790 cd        1 1CJ     -0.181000
     13 C5          1.2900    3.2250    3.2970 cc        1 1CJ     -0.109000
     14 C4          1.3160    2.4710    2.1550 cd        1 1CJ     -0.115000
     15 H1         -0.0940    0.1540    0.0550 ho        1 1CJ      0.418000
     16 H2          2.5030    0.8500   -0.8480 h2        1 1CJ      0.076700
     17 H3          2.7410   -0.8550   -2.5030 h1        1 1CJ      0.033700
     18 H4          0.9230   -0.6460   -2.5050 h1        1 1CJ      0.033700
     19 H5          1.6000   -2.8560   -3.5230 hc        1 1CJ      0.045033
     20 H6          2.4480   -3.3120   -1.9790 hc        1 1CJ      0.045033
     21 H7          0.6500   -3.1060   -1.9920 hc        1 1CJ      0.045033
     22 H8          3.3550   -1.7390    1.4900 h4        1 1CJ      0.064800
     23 H9          3.1070    1.1590    5.3980 h4        1 1CJ      0.178000
     24 H10         1.9070    3.3800    5.3880 ha        1 1CJ      0.153000
     25 H11         0.7700    4.1950    3.3230 ha        1 1CJ      0.144000
     26 H12         0.8260    2.7740    1.2170 ha        1 1CJ      0.167000
@<TRIPOS>BOND
     1    1    2 1   
     2    1   15 1   
     3    2    3 1   
     4    2    6 1   
     5    2   16 1   
     6    3    4 1   
     7    4    5 1   
     8    4   17 1   
     9    4   18 1   
    10    5   19 1   
    11    5   20 1   
    12    5   21 1   
    13    6    7 1   
    14    6   10 2   
    15    7    8 2   
    16    7   22 1   
    17    8    9 1   
    18    9   10 1   
    19    9   11 1   
    20   10   14 1   
    21   11   12 2   
    22   11   23 1   
    23   12   13 1   
    24   12   24 1   
    25   13   14 2   
    26   13   25 1   
    27   14   26 1   
@<TRIPOS>SUBSTRUCTURE
     1 1CJ         1 TEMP              0 ****  ****    0 ROOT
