@<TRIPOS>MOLECULE
1CJ
   26    23     1     0     0
SMALL
bcc


@<TRIPOS>ATOM
      1 O1         -2.1260   -0.9650   -0.8680 oh        1 1CJ     -0.628800
      2 C1         -0.8610   -0.4200   -0.8540 c3        1 1CJ      0.421100
      3 O2          0.0240   -1.2010   -1.7670 os        1 1CJ     -0.453600
      4 C9         -0.0450   -0.8400   -3.0730 c3        1 1CJ      0.132400
      5 C10         0.9140   -1.6720   -3.8470 c3        1 1CJ     -0.097100
      6 C2         -0.3380   -0.4770    0.4830 ce        1 1CJ     -0.288000
      7 C8         -0.0510   -1.6310    1.0550 cg        1 1CJ      0.249500
      8 N2          0.3990   -1.3670    2.3690 n1        1 1CJ     -0.500600
      9 N1          0.3720   -0.0210    2.5630 ne        1 1CJ     -0.186600
     10 C3         -0.0760    0.5560    1.4220 c1        1 1CJ      0.240500
     11 C7          0.7460    0.7900    3.6780 c1        1 1CJ     -0.047750
     12 C6          0.6520    2.1590    3.5970 c1        1 1CJ     -0.047750
     13 C5          0.1950    2.7500    2.4330 c1        1 1CJ     -0.047750
     14 C4         -0.1740    1.9440    1.3320 c1        1 1CJ     -0.047750
     15 H1         -2.6930   -0.3570   -1.0340 ho        1 1CJ      0.418000
     16 H2         -0.9010    0.5240   -1.1550 h2        1 1CJ      0.076700
     17 H3         -1.0320   -1.0010   -3.4380 h1        1 1CJ      0.033700
     18 H4          0.1870    0.0890   -3.1640 h1        1 1CJ      0.033700
     19 H5          0.7320   -2.6810   -3.6510 hc        1 1CJ      0.045033
     20 H6          0.7960   -1.4780   -4.9050 hc        1 1CJ      0.045033
     21 H7          1.7580   -1.4690   -3.5940 hc        1 1CJ      0.045033
     22 H8         -0.0930   -2.4840    0.6420 DU        1 1CJ      0.194000
     23 H9          1.0550    0.3850    4.4690 ha        1 1CJ      0.103000
     24 H10         0.9350    2.7700    4.4390 ha        1 1CJ      0.103000
     25 H11         0.1290    3.7320    2.3710 ha        1 1CJ      0.103000
     26 H12        -0.5040    2.3640    0.4970 ha        1 1CJ      0.103000
@<TRIPOS>BOND
     1    1    2 1   
     2    1   15 1   
     3    2    3 1   
     4    2    6 1   
     5    2   16 1   
     6    3    4 1   
     7    4    5 1   
     8    4   17 1   
     9    4   18 1   
    10    5   19 1   
    11    5   20 1   
    12    5   21 1   
    13    6    7 1   
    14    6   10 2   
    15    7    8 3   
    16    8    9 1   
    17    9   10 2   
    18   11   12 3   
    19   11   23 1   
    20   12   24 1   
    21   13   14 3   
    22   13   25 1   
    23   14   26 1   
@<TRIPOS>SUBSTRUCTURE
     1 1CJ         1 TEMP              0 ****  ****    0 ROOT
