@<TRIPOS>MOLECULE
1CJ
   26    27     1     0     0
SMALL
bcc


@<TRIPOS>ATOM
      1 O1          0.5490    0.7300   -0.4560 oh        1 1CJ     -0.628800
      2 C1          1.8440    0.2250   -0.2170 c3        1 1CJ      0.421100
      3 O2          1.8110   -1.1150   -0.6920 os        1 1CJ     -0.453600
      4 C9          1.8170   -1.2050   -2.1190 c3        1 1CJ      0.132400
      5 C10         1.6520   -2.6660   -2.4660 c3        1 1CJ     -0.097100
      6 C2          2.2290    0.2030    1.2100 cc        1 1CJ     -0.344800
      7 C8          2.9790   -0.8100    1.9010 cc        1 1CJ      0.415500
      8 N2          3.1920   -0.4690    3.2020 nd        1 1CJ     -0.575100
      9 N1          2.6030    0.7290    3.3810 na        1 1CJ      0.195000
     10 C3          1.9820    1.2030    2.1790 cd        1 1CJ     -0.022300
     11 C7          2.5430    1.4970    4.5350 cc        1 1CJ     -0.040300
     12 C6          1.8850    2.7060    4.5200 cd        1 1CJ     -0.181000
     13 C5          1.2580    3.1880    3.3350 cc        1 1CJ     -0.109000
     14 C4          1.3010    2.4520    2.1810 cd        1 1CJ     -0.115000
     15 H1         -0.0790    0.1750    0.0230 ho        1 1CJ      0.418000
     16 H2          2.5330    0.8760   -0.8290 h2        1 1CJ      0.076700
     17 H3          2.7920   -0.8040   -2.5060 h1        1 1CJ      0.033700
     18 H4          0.9750   -0.5890   -2.5340 h1        1 1CJ      0.033700
     19 H5          2.4830   -3.2680   -2.0260 hc        1 1CJ      0.045033
     20 H6          0.6870   -3.0550   -2.0630 hc        1 1CJ      0.045033
     21 H7          1.6610   -2.7840   -3.5750 hc        1 1CJ      0.045033
     22 H8          3.3440   -1.7500    1.4800 h4        1 1CJ      0.064800
     23 H9          3.0400    1.0840    5.4310 h4        1 1CJ      0.178000
     24 H10         1.8430    3.3070    5.4380 ha        1 1CJ      0.153000
     25 H11         0.7400    4.1570    3.3690 ha        1 1CJ      0.144000
     26 H12         0.8260    2.7710    1.2410 ha        1 1CJ      0.167000
@<TRIPOS>BOND
     1    1    2 1   
     2    1   15 1   
     3    2    3 1   
     4    2    6 1   
     5    2   16 1   
     6    3    4 1   
     7    4    5 1   
     8    4   17 1   
     9    4   18 1   
    10    5   19 1   
    11    5   20 1   
    12    5   21 1   
    13    6    7 1   
    14    6   10 2   
    15    7    8 2   
    16    7   22 1   
    17    8    9 1   
    18    9   10 1   
    19    9   11 1   
    20   10   14 1   
    21   11   12 2   
    22   11   23 1   
    23   12   13 1   
    24   12   24 1   
    25   13   14 2   
    26   13   25 1   
    27   14   26 1   
@<TRIPOS>SUBSTRUCTURE
     1 1CJ         1 TEMP              0 ****  ****    0 ROOT
