@<TRIPOS>MOLECULE
1CJ
   26    27     1     0     0
SMALL
bcc


@<TRIPOS>ATOM
      1 O1          1.4410   -1.7100    0.5090 oh        1 1CJ     -0.628800
      2 C1          1.4160   -0.6360   -0.4040 c3        1 1CJ      0.421100
      3 O2          2.5400    0.1670   -0.0600 os        1 1CJ     -0.453600
      4 C9          3.7850   -0.4120   -0.4590 c3        1 1CJ      0.132400
      5 C10         4.8750    0.4830    0.0820 c3        1 1CJ     -0.097100
      6 C2          0.2020    0.2030   -0.3170 cc        1 1CJ     -0.344800
      7 C8          0.1120    1.6320   -0.4360 cc        1 1CJ      0.415500
      8 N2         -1.1790    2.0570   -0.3550 nd        1 1CJ     -0.575100
      9 N1         -1.9310    0.9530   -0.1840 na        1 1CJ      0.195000
     10 C3         -1.1320   -0.2370   -0.1480 cd        1 1CJ     -0.022300
     11 C7         -3.3090    0.8590   -0.0490 cc        1 1CJ     -0.040300
     12 C6         -3.8980   -0.3720    0.1220 cd        1 1CJ     -0.181000
     13 C5         -3.1170   -1.5630    0.1670 cc        1 1CJ     -0.109000
     14 C4         -1.7560   -1.5010    0.0350 cd        1 1CJ     -0.115000
     15 H1          1.3850   -1.3440    1.4000 ho        1 1CJ      0.418000
     16 H2          1.5280   -1.1090   -1.4230 h2        1 1CJ      0.076700
     17 H3          3.8630   -1.4500   -0.0410 h1        1 1CJ      0.033700
     18 H4          3.8210   -0.4630   -1.5800 h1        1 1CJ      0.033700
     19 H5          4.7680    1.5180   -0.3240 hc        1 1CJ      0.045033
     20 H6          4.8180    0.5360    1.1950 hc        1 1CJ      0.045033
     21 H7          5.8690    0.0730   -0.2160 hc        1 1CJ      0.045033
     22 H8          0.9440    2.3280   -0.5670 h4        1 1CJ      0.064800
     23 H9         -3.8750    1.8060   -0.0860 h4        1 1CJ      0.178000
     24 H10        -4.9900   -0.4370    0.2280 ha        1 1CJ      0.153000
     25 H11        -3.6300   -2.5250    0.3090 ha        1 1CJ      0.144000
     26 H12        -1.1030   -2.3870    0.0720 ha        1 1CJ      0.167000
@<TRIPOS>BOND
     1    1    2 1   
     2    1   15 1   
     3    2    3 1   
     4    2    6 1   
     5    2   16 1   
     6    3    4 1   
     7    4    5 1   
     8    4   17 1   
     9    4   18 1   
    10    5   19 1   
    11    5   20 1   
    12    5   21 1   
    13    6    7 1   
    14    6   10 2   
    15    7    8 2   
    16    7   22 1   
    17    8    9 1   
    18    9   10 1   
    19    9   11 1   
    20   10   14 1   
    21   11   12 2   
    22   11   23 1   
    23   12   13 1   
    24   12   24 1   
    25   13   14 2   
    26   13   25 1   
    27   14   26 1   
@<TRIPOS>SUBSTRUCTURE
     1 1CJ         1 TEMP              0 ****  ****    0 ROOT
