@<TRIPOS>MOLECULE
1CK
   26    26     1     0     0
SMALL
bcc


@<TRIPOS>ATOM
      1 N1I         0.2180   -0.2410   -0.1430 n2        1 1CK     -0.141000
      2 N1J        -1.4500   -0.0790    1.6320 n         1 1CK     -0.295000
      3 N1K         1.5550   -0.2600   -0.2430 n2        1 1CK     -0.052000
      4 CAA         3.5880   -0.1510    1.2410 c3        1 1CK     -0.160000
      5 OAB        -0.8940    0.1080    3.8580 o         1 1CK     -0.351000
      6 CAD        -7.1590    0.2530    4.1780 c1        1 1CK      0.321000
      7 CAE        -7.0240    0.1190    2.7360 c2        1 1CK     -0.698000
      8 CAF        -3.6450    0.1830    4.5710 c2        1 1CK     -0.119000
      9 CAG        -6.2370    0.0330    1.7120 c1        1 1CK      0.366000
     10 CAH         1.1010   -0.0640    2.0520 c3        1 1CK     -0.167000
     11 CAL        -1.7800    0.0400    2.9850 c2        1 1CK      0.345000
     12 CAM         2.1470   -0.1650    0.9490 c2        1 1CK     -0.128000
     13 CAN        -8.3860    0.1650    3.3490 c3        1 1CK     -0.243000
     14 CAO        -3.2280    0.0790    3.3080 c2        1 1CK     -0.234000
     15 CAP        -0.1520   -0.1290    1.1580 c2        1 1CK      0.026000
     16 HN1J       -2.1880   -0.1320    0.9620 hn        1 1CK      0.254000
     17 HAA         3.8550    0.8010    1.7640 hc        1 1CK      0.095667
     18 HAAA        3.8410   -1.0090    1.9150 hc        1 1CK      0.095667
     19 HAAB        4.2050   -0.2330    0.3120 hc        1 1CK      0.095667
     20 HAD        -2.9430    0.2440    5.4170 ha        1 1CK      0.141000
     21 HAE        -8.9980    1.0700    3.1530 h1        1 1CK      0.180000
     22 HAF        -4.7160    0.2140    4.8290 ha        1 1CK      0.141000
     23 HAG        -3.9390    0.0180    2.4660 ha        1 1CK      0.139000
     24 HAH         1.1380   -0.9150    2.7720 hc        1 1CK      0.157000
     25 H10         1.1530    0.8950    2.6200 hc        1 1CK      0.157000
     26 BRAC       -9.5030   -1.3560    3.3390 br        1 1CK      0.074000
@<TRIPOS>BOND
     1    1    3 1   
     2    1   15 1   
     3    2   11 1   
     4    2   15 1   
     5    2   16 1   
     6    3   12 1   
     7    4   12 1   
     8    4   17 1   
     9    4   18 1   
    10    4   19 1   
    11    5   11 1   
    12    6    7 1   
    13    6   13 1   
    14    7    9 1   
    15    7   13 1   
    16    8   14 1   
    17    8   20 1   
    18    8   22 1   
    19   10   12 1   
    20   10   15 1   
    21   10   24 1   
    22   10   25 1   
    23   11   14 1   
    24   13   21 1   
    25   13   26 1   
    26   14   23 1   
@<TRIPOS>SUBSTRUCTURE
     1 1CK         1 TEMP              0 ****  ****    0 ROOT
