@<TRIPOS>MOLECULE
1CK
   26    26     1     0     0
SMALL
bcc


@<TRIPOS>ATOM
      1 N1I        -0.1290    0.7900    0.2640 nc        1 1CK     -0.561800
      2 N1J        -1.6900    0.2200    2.0630 ns        1 1CK     -0.528400
      3 N1K         1.1830    0.6540    0.0910 na        1 1CK     -0.016600
      4 CAA         3.2690   -0.2130    1.2510 c3        1 1CK     -0.035800
      5 OAB        -1.1270   -0.7030    4.1090 o         1 1CK     -0.581100
      6 CAD        -6.9420   -0.2220    2.8640 c1        1 1CK     -0.021900
      7 CAE        -5.6980   -0.4310    2.8270 c1        1 1CK     -0.036900
      8 CAF        -3.7530    0.2370    4.9530 c2        1 1CK     -0.112000
      9 CAG        -4.4080   -0.6630    2.7510 ce        1 1CK     -0.098100
     10 CAH         0.8250   -0.2140    2.1310 cd        1 1CK     -0.283300
     11 CAL        -1.9900   -0.2610    3.3290 c         1 1CK      0.675300
     12 CAM         1.8250    0.0540    1.1820 cc        1 1CK     -0.091600
     13 CAN        -8.2270   -0.0090    2.8980 c2        1 1CK     -0.114400
     14 CAO        -3.4360   -0.1980    3.7240 ce        1 1CK     -0.156200
     15 CAP        -0.4050    0.2650    1.5180 cd        1 1CK      0.417200
     16 HN1J       -2.4300    0.6010    1.5140 hn        1 1CK      0.332500
     17 HAA         3.5090   -0.6960    2.2310 hc        1 1CK      0.055033
     18 HAAA        3.5900   -0.9000    0.4280 hc        1 1CK      0.055033
     19 HAAB        3.8570    0.7360    1.1690 hc        1 1CK      0.055033
     20 HAD        -2.9820    0.5520    5.6720 ha        1 1CK      0.137500
     21 HAE        -8.9100   -0.4050    2.1320 h4        1 1CK      0.171000
     22 HAF        -4.7940    0.2880    5.3030 ha        1 1CK      0.137500
     23 HAG        -4.0190   -1.2690    1.9090 ha        1 1CK      0.156000
     24 HAH         0.9220   -0.6730    3.1100 ha        1 1CK      0.195000
     25 H10         1.6030    0.9700   -0.7500 hn        1 1CK      0.320700
     26 BrAC       -9.0830    0.9760    4.2210 br        1 1CK     -0.064700
@<TRIPOS>BOND
     1    1    3 1   
     2    1   15 2   
     3    2   11 1   
     4    2   15 1   
     5    2   16 1   
     6    3   12 1   
     7    3   25 1   
     8    4   12 1   
     9    4   17 1   
    10    4   18 1   
    11    4   19 1   
    12    5   11 2   
    13    6    7 2   
    14    6   13 2   
    15    7    9 2   
    16    8   14 2   
    17    8   20 1   
    18    8   22 1   
    19    9   14 1   
    20    9   23 1   
    21   10   12 2   
    22   10   15 1   
    23   10   24 1   
    24   11   14 1   
    25   13   21 1   
    26   13   26 1   
@<TRIPOS>SUBSTRUCTURE
     1 1CK         1 TEMP              0 ****  ****    0 ROOT
