@<TRIPOS>MOLECULE
1CK
   26    22     1     0     0
SMALL
bcc


@<TRIPOS>ATOM
      1 N1I         1.8850    1.0530   -1.2820 ne        1 1CK     -0.207600
      2 N1J         0.2410   -0.3700   -0.4860 n         1 1CK     -0.460100
      3 N1K         3.2480    1.1970   -1.3500 nf        1 1CK     -0.305600
      4 CAA         5.3120    0.0940   -0.4960 c3        1 1CK     -0.039900
      5 OAB        -0.2380    1.2200    1.0810 o         1 1CK     -0.572300
      6 BRAC       -6.7170   -0.6320    1.0560 br        1 1CK     -0.172800
      7 CAD        -3.9380   -1.0230    1.6430 c1        1 1CK     -0.052000
      8 CAE        -4.3760    0.4210   -0.2240 cg        1 1CK     -0.144300
      9 CAF        -2.5750   -0.8640    1.4460 c1        1 1CK     -0.052000
     10 CAG        -3.0140    0.5800   -0.4210 ce        1 1CK     -0.110800
     11 CAH         2.8040   -0.5500   -0.0970 c1        1 1CK     -0.136800
     12 CAL        -0.6510    0.3260    0.3690 c2        1 1CK      0.681300
     13 CAM         3.8090    0.2110   -0.6200 cf        1 1CK      0.024300
     14 CAN        -4.8380   -0.3810    0.8080 c1        1 1CK      0.083800
     15 CAO        -2.1130   -0.0620    0.4140 c1        1 1CK     -0.049900
     16 CAP         1.6160   -0.0210   -0.5120 ce        1 1CK      0.090100
     17 HN1J       -0.0720   -1.0310   -1.0320 hn        1 1CK      0.326500
     18 HAA         5.7020   -0.0570   -1.3830 hc        1 1CK      0.054700
     19 HAAA        5.5340   -0.6580    0.0910 hc        1 1CK      0.054700
     20 HAAB        5.6740    0.9230   -0.1170 hc        1 1CK      0.054700
     21 HAD        -4.2630   -1.5880    2.3700 ha        1 1CK      0.090000
     22 HAE        -5.0100    0.8730   -0.8120 DU        1 1CK      0.196667
     23 HAF        -1.9410   -1.3160    2.0340 ha        1 1CK      0.090000
     24 HAG        -2.6880    1.1440   -1.1480 ha        1 1CK      0.161000
     25 HAH         2.9150   -1.3340    0.4740 DU        1 1CK      0.196667
     26 H10         3.6960    1.8460   -1.8080 DU        1 1CK      0.196667
@<TRIPOS>BOND
     1    1    3 2   
     2    1   16 1   
     3    2   12 1   
     4    2   16 1   
     5    2   17 1   
     6    3   13 1   
     7    4   13 1   
     8    4   18 1   
     9    4   19 1   
    10    4   20 1   
    11    5   12 1   
    12    6   14 1   
    13    7    9 3   
    14    7   21 1   
    15    8   10 1   
    16    8   14 3   
    17    9   23 1   
    18   10   15 2   
    19   10   24 1   
    20   11   13 2   
    21   11   16 2   
    22   12   15 2   
@<TRIPOS>SUBSTRUCTURE
     1 1CK         1 TEMP              0 ****  ****    0 ROOT
