@<TRIPOS>MOLECULE
1CK
   26    26     1     0     0
SMALL
bcc


@<TRIPOS>ATOM
      1 N1I        -0.1370    0.6210    0.2030 nc        1 1CK     -0.561800
      2 N1J        -1.6940    0.1890    2.0430 n         1 1CK     -0.528400
      3 N1K         1.1780    0.4960    0.0460 na        1 1CK     -0.016600
      4 CAA         3.2770   -0.2140    1.2880 c3        1 1CK     -0.035800
      5 OAB        -1.1210   -0.5280    4.1680 o         1 1CK     -0.581100
      6 CAD        -6.9380   -0.2810    2.8650 c1        1 1CK     -0.021900
      7 CAE        -4.3960   -0.6810    2.8030 ce        1 1CK     -0.098100
      8 CAF        -3.7690    0.4310    4.9150 c2        1 1CK     -0.112000
      9 CAG        -5.6910   -0.4680    2.8530 c1        1 1CK     -0.036900
     10 CAH         0.8300   -0.1840    2.1570 cd        1 1CK     -0.283300
     11 CAL        -1.9890   -0.1780    3.3480 c         1 1CK      0.675300
     12 CAM         1.8280    0.0150    1.1910 cc        1 1CK     -0.091600
     13 CAN        -8.2270   -0.0890    2.8760 c2        1 1CK     -0.114400
     14 CAO        -3.4380   -0.1090    3.7310 ce        1 1CK     -0.156200
     15 CAP        -0.4080    0.2100    1.5000 cd        1 1CK      0.417200
     16 HN1J       -2.4380    0.5020    1.4600 hn        1 1CK      0.332500
     17 HAA         3.5230   -0.5990    2.3090 hc        1 1CK      0.055033
     18 HAAA        3.8450    0.7350    1.1190 hc        1 1CK      0.055033
     19 HAAB        3.6150   -0.9690    0.5330 hc        1 1CK      0.055033
     20 HAD        -3.0080    0.8270    5.6030 ha        1 1CK      0.137500
     21 HAE        -8.8990   -0.5680    2.1480 h4        1 1CK      0.171000
     22 HAF        -4.8120    0.4930    5.2550 ha        1 1CK      0.137500
     23 HAG        -3.9920   -1.3550    2.0220 ha        1 1CK      0.156000
     24 HAH         0.9320   -0.5480    3.1750 ha        1 1CK      0.195000
     25 H10         1.5960    0.7420   -0.8190 hn        1 1CK      0.320700
     26 BRAC       -9.1090    0.9980    4.0980 br        1 1CK     -0.064700
@<TRIPOS>BOND
     1    1    3 1   
     2    1   15 2   
     3    2   11 1   
     4    2   15 1   
     5    2   16 1   
     6    3   12 1   
     7    3   25 1   
     8    4   12 1   
     9    4   17 1   
    10    4   18 1   
    11    4   19 1   
    12    5   11 2   
    13    6    9 2   
    14    6   13 2   
    15    7    9 2   
    16    7   14 1   
    17    7   23 1   
    18    8   14 2   
    19    8   20 1   
    20    8   22 1   
    21   10   12 2   
    22   10   15 1   
    23   10   24 1   
    24   11   14 1   
    25   13   21 1   
    26   13   26 1   
@<TRIPOS>SUBSTRUCTURE
     1 1CK         1 TEMP              0 ****  ****    0 ROOT
