@<TRIPOS>MOLECULE
1CK
   26    27     1     0     0
SMALL
bcc


@<TRIPOS>ATOM
      1 N1I        -4.3180   -1.4240    0.7350 nc        1 1CK     -0.562800
      2 N1J        -2.1220   -0.4590    0.2430 n         1 1CK     -0.528400
      3 N1K        -5.5730   -1.0090    0.5850 na        1 1CK     -0.016600
      4 CAA        -6.9350    0.9670   -0.2480 c3        1 1CK     -0.035800
      5 OAB        -1.7280    1.6630   -0.5930 o         1 1CK     -0.580100
      6 CAD         2.3900    1.1130    0.4040 ca        1 1CK     -0.111000
      7 CAE         2.0940   -1.1340   -0.4490 ca        1 1CK     -0.111000
      8 CAF         1.0140    1.3190    0.3360 ca        1 1CK     -0.092000
      9 CAG         0.7160   -0.9290   -0.5110 ca        1 1CK     -0.092000
     10 CAH        -4.3520    0.7040   -0.2010 cd        1 1CK     -0.283300
     11 CAL        -1.2940    0.5700   -0.1850 c         1 1CK      0.682700
     12 CAM        -5.6680    0.2720    0.0240 cc        1 1CK     -0.091600
     13 CAN         2.9330   -0.1150    0.0150 ca        1 1CK     -0.007900
     14 CAO         0.1730    0.2950   -0.1130 ca        1 1CK     -0.132600
     15 CAP        -3.5160   -0.3960    0.2600 cd        1 1CK      0.417200
     16 HN1J       -1.7010   -1.2860    0.6050 hn        1 1CK      0.331500
     17 HAA        -7.5210    1.1160    0.6940 hc        1 1CK      0.055033
     18 HAAA       -6.7180    1.9690   -0.6940 hc        1 1CK      0.055033
     19 HAAB       -7.5650    0.3860   -0.9680 hc        1 1CK      0.055033
     20 HAD         3.0430    1.9250    0.7620 ha        1 1CK      0.153000
     21 HAE         2.5130   -2.1010   -0.7680 ha        1 1CK      0.153000
     22 HAF         0.5800    2.2910    0.6240 ha        1 1CK      0.152500
     23 HAG         0.0700   -1.7350   -0.8940 ha        1 1CK      0.152500
     24 HAH        -4.0070    1.6430   -0.6220 ha        1 1CK      0.195000
     25 H10        -6.3220   -1.5960    0.8650 hn        1 1CK      0.320700
     26 BRAC        4.7810   -0.3960    0.1070 br        1 1CK     -0.077100
@<TRIPOS>BOND
     1    1    3 1   
     2    1   15 2   
     3    2   11 1   
     4    2   15 1   
     5    2   16 1   
     6    3   12 1   
     7    3   25 1   
     8    4   12 1   
     9    4   17 1   
    10    4   18 1   
    11    4   19 1   
    12    5   11 2   
    13    6    8 ar  
    14    6   13 ar  
    15    6   20 1   
    16    7    9 ar  
    17    7   13 ar  
    18    7   21 1   
    19    8   14 ar  
    20    8   22 1   
    21    9   14 ar  
    22    9   23 1   
    23   10   12 2   
    24   10   15 1   
    25   10   24 1   
    26   11   14 1   
    27   13   26 1   
@<TRIPOS>SUBSTRUCTURE
     1 1CK         1 TEMP              0 ****  ****    0 ROOT
