@<TRIPOS>MOLECULE
1CM
   35    36     1     0     0
SMALL
bcc


@<TRIPOS>ATOM
      1 O23        -1.0780   -0.1000    0.4490 o         1 1CM     -0.411100
      2 C22         0.0620    0.3210    0.3640 c         1 1CM      0.560100
      3 C31         1.2610    0.0290    1.2400 c3        1 1CM     -0.063400
      4 C36         0.7780   -0.5400    2.5770 c3        1 1CM     -0.075400
      5 C35         1.8950   -1.2630    3.2860 c3        1 1CM     -0.101100
      6 C33         3.4940    1.1590    1.1670 ca        1 1CM     -0.132000
      7 C32         2.1200    1.2370    1.4240 ca        1 1CM     -0.164300
      8 C41         2.3910    3.5400    2.1250 ca        1 1CM     -0.114500
      9 C42         3.7610    3.4600    1.8640 ca        1 1CM     -0.095000
     10 N21         0.3030    1.2720   -0.8100 n4        1 1CM     -0.562200
     11 C14         0.6650    0.5500   -2.0310 ca        1 1CM     -0.006400
     12 C15         1.9200    0.7570   -2.6310 ca        1 1CM     -0.228800
     13 C11         4.3100    2.2700    1.3880 ca        1 1CM     -0.114500
     14 C16         2.1990    0.0480   -3.8160 ca        1 1CM      0.434700
     15 N11         1.3380   -0.8070   -4.3970 nb        1 1CM     -0.604000
     16 C12         0.1420   -0.9900   -3.8070 ca        1 1CM      0.434700
     17 C10         1.5730    2.4340    1.9090 ca        1 1CM     -0.132000
     18 C13        -0.2520   -0.3380   -2.6210 ca        1 1CM     -0.228800
     19 H31         1.8440   -0.7800    0.7000 hc        1 1CM      0.115700
     20 H361        0.3950    0.2980    3.2170 hc        1 1CM      0.070700
     21 H362       -0.0740   -1.2480    2.3940 hc        1 1CM      0.070700
     22 H351        2.7780   -0.5930    3.4240 hc        1 1CM      0.055367
     23 H352        1.5430   -1.5980    4.2930 hc        1 1CM      0.055367
     24 H353        2.2170   -2.1640    2.7090 hc        1 1CM      0.055367
     25 H33         3.9400    0.2170    0.8130 ha        1 1CM      0.141500
     26 H41         1.9580    4.4750    2.5180 ha        1 1CM      0.159500
     27 H42         4.4080    4.3330    2.0460 ha        1 1CM      0.162000
     28 H21         1.0540    1.9310   -0.5580 hn        1 1CM      0.469300
     29 H15         2.6720    1.4430   -2.2140 ha        1 1CM      0.174500
     30 H11         5.3930    2.1990    1.1960 ha        1 1CM      0.159500
     31 H16         3.1740    0.1790   -4.3290 h4        1 1CM      0.064100
     32 H12        -0.5460   -1.6990   -4.3100 h4        1 1CM      0.064100
     33 H10         0.5020    2.4890    2.1590 ha        1 1CM      0.141500
     34 H13        -1.2440   -0.5330   -2.1850 ha        1 1CM      0.174500
     35 H212       -0.5610    1.8000   -0.9970 hn        1 1CM      0.469300
@<TRIPOS>BOND
     1    1    2 2   
     2    2    3 1   
     3    2   10 1   
     4    3    4 1   
     5    3    7 1   
     6    3   19 1   
     7    4    5 1   
     8    4   20 1   
     9    4   21 1   
    10    5   22 1   
    11    5   23 1   
    12    5   24 1   
    13    6    7 ar  
    14    6   13 ar  
    15    6   25 1   
    16    7   17 ar  
    17    8    9 ar  
    18    8   17 ar  
    19    8   26 1   
    20    9   13 ar  
    21    9   27 1   
    22   10   11 1   
    23   10   28 1   
    24   10   35 1   
    25   11   12 ar  
    26   11   18 ar  
    27   12   14 ar  
    28   12   29 1   
    29   13   30 1   
    30   14   15 ar  
    31   14   31 1   
    32   15   16 ar  
    33   16   18 ar  
    34   16   32 1   
    35   17   33 1   
    36   18   34 1   
@<TRIPOS>SUBSTRUCTURE
     1 1CM         1 TEMP              0 ****  ****    0 ROOT
