@<TRIPOS>MOLECULE
1CM
   34    35     1     0     0
SMALL
bcc


@<TRIPOS>ATOM
      1 O23        -0.6820    1.9200   -1.2240 o         1 1CM     -0.582100
      2 C22        -0.1720    1.2160   -0.3360 c         1 1CM      0.668100
      3 C31         1.2830    1.4180    0.1100 c3        1 1CM     -0.087400
      4 C36         2.0140    2.3090   -0.8900 c3        1 1CM     -0.071400
      5 C35         3.2900    2.8610   -0.3120 c3        1 1CM     -0.096100
      6 C33         2.5620   -0.1960    1.5420 ca        1 1CM     -0.123500
      7 C32         1.9880    0.1140    0.3030 ca        1 1CM     -0.101300
      8 C41         2.7670   -2.0100   -0.5660 ca        1 1CM     -0.127500
      9 C42         3.3360   -2.3130    0.6710 ca        1 1CM     -0.123000
     10 N21        -0.8820    0.2390    0.3520 n         1 1CM     -0.469100
     11 C14        -2.2160   -0.1360    0.1600 ca        1 1CM      0.107600
     12 C15        -2.7260   -1.2440    0.8850 ca        1 1CM     -0.290800
     13 C11         3.2330   -1.4050    1.7240 ca        1 1CM     -0.127500
     14 C16        -4.0650   -1.6110    0.7060 ca        1 1CM      0.414200
     15 N11        -4.9180   -0.9750   -0.1210 nb        1 1CM     -0.685000
     16 C12        -4.4270    0.0750   -0.8050 ca        1 1CM      0.414200
     17 C10         2.0960   -0.8030   -0.7510 ca        1 1CM     -0.123500
     18 C13        -3.1040    0.5360   -0.7090 ca        1 1CM     -0.290800
     19 H31         1.2320    1.9670    1.0960 hc        1 1CM      0.079700
     20 H361        1.3350    3.1530   -1.1880 hc        1 1CM      0.062200
     21 H362        2.2340    1.7190   -1.8180 hc        1 1CM      0.062200
     22 H351        3.8320    3.4570   -1.0860 hc        1 1CM      0.037700
     23 H352        3.0760    3.5270    0.5590 hc        1 1CM      0.037700
     24 H353        3.9590    2.0350    0.0330 hc        1 1CM      0.037700
     25 H33         2.4900    0.5190    2.3760 ha        1 1CM      0.138500
     26 H41         2.8470   -2.7240   -1.3990 ha        1 1CM      0.137000
     27 H42         3.8660   -3.2660    0.8150 ha        1 1CM      0.136000
     28 H21        -0.3670   -0.3200    0.9990 hn        1 1CM      0.325500
     29 H15        -2.0940   -1.8160    1.5780 ha        1 1CM      0.160500
     30 H11         3.6830   -1.6390    2.7000 ha        1 1CM      0.137000
     31 H16        -4.4850   -2.4700    1.2600 h4        1 1CM      0.022100
     32 H12        -5.1400    0.5840   -1.4790 h4        1 1CM      0.022100
     33 H10         1.6490   -0.5650   -1.7280 ha        1 1CM      0.138500
     34 H13        -2.7830    1.4030   -1.3060 ha        1 1CM      0.160500
@<TRIPOS>BOND
     1    1    2 2   
     2    2    3 1   
     3    2   10 1   
     4    3    4 1   
     5    3    7 1   
     6    3   19 1   
     7    4    5 1   
     8    4   20 1   
     9    4   21 1   
    10    5   22 1   
    11    5   23 1   
    12    5   24 1   
    13    6    7 ar  
    14    6   13 ar  
    15    6   25 1   
    16    7   17 ar  
    17    8    9 ar  
    18    8   17 ar  
    19    8   26 1   
    20    9   13 ar  
    21    9   27 1   
    22   10   11 1   
    23   10   28 1   
    24   11   12 ar  
    25   11   18 ar  
    26   12   14 ar  
    27   12   29 1   
    28   13   30 1   
    29   14   15 ar  
    30   14   31 1   
    31   15   16 ar  
    32   16   18 ar  
    33   16   32 1   
    34   17   33 1   
    35   18   34 1   
@<TRIPOS>SUBSTRUCTURE
     1 1CM         1 TEMP              0 ****  ****    0 ROOT
