@<TRIPOS>MOLECULE
1CM
   34    35     1     0     0
SMALL
bcc


@<TRIPOS>ATOM
      1 O23        -0.3080   -0.8330    0.2940 o         1 1CM     -0.582100
      2 C22         0.8230   -0.3170    0.2840 c         1 1CM      0.668100
      3 C31         1.6390   -0.1470    1.5720 c3        1 1CM     -0.087400
      4 C36         0.7460   -0.3810    2.7870 c3        1 1CM     -0.070400
      5 C35         1.5570   -0.6240    4.0330 c3        1 1CM     -0.096100
      6 C33         3.7000    1.2690    1.7630 ca        1 1CM     -0.123500
      7 C32         2.3090    1.1880    1.6300 ca        1 1CM     -0.101300
      8 C41         2.1880    3.6080    1.6330 ca        1 1CM     -0.127500
      9 C42         3.5740    3.6830    1.7670 ca        1 1CM     -0.123000
     10 N21         1.4520    0.0930   -0.8860 ns        1 1CM     -0.469100
     11 C14         0.9450    0.0380   -2.1890 ca        1 1CM      0.107600
     12 C15         1.7000    0.6200   -3.2410 ca        1 1CM     -0.290800
     13 C11         4.3290    2.5120    1.8320 ca        1 1CM     -0.127500
     14 C16         1.2020    0.5510   -4.5480 ca        1 1CM      0.414200
     15 N11         0.0370   -0.0370   -4.8820 nb        1 1CM     -0.685000
     16 C12        -0.6730   -0.5860   -3.8780 ca        1 1CM      0.414200
     17 C10         1.5560    2.3680    1.5660 ca        1 1CM     -0.123500
     18 C13        -0.2770   -0.5810   -2.5310 ca        1 1CM     -0.290800
     19 H31         2.4230   -0.9610    1.5520 hc        1 1CM      0.079700
     20 H361        0.0850   -1.2670    2.5860 hc        1 1CM      0.062200
     21 H362        0.0760    0.5070    2.9290 hc        1 1CM      0.062200
     22 H351        2.1600   -1.5590    3.9390 hc        1 1CM      0.037700
     23 H352        0.8780   -0.7300    4.9140 hc        1 1CM      0.037700
     24 H353        2.2550    0.2280    4.2230 hc        1 1CM      0.037700
     25 H33         4.3020    0.3490    1.8220 ha        1 1CM      0.138500
     26 H41         1.5890    4.5300    1.5830 ha        1 1CM      0.137000
     27 H42         4.0710    4.6620    1.8220 ha        1 1CM      0.136000
     28 H21         2.3300    0.5580   -0.7850 hn        1 1CM      0.325500
     29 H15         2.6590    1.1200   -3.0500 ha        1 1CM      0.160500
     30 H11         5.4220    2.5660    1.9400 ha        1 1CM      0.137000
     31 H16         1.7710    0.9970   -5.3840 h4        1 1CM      0.022100
     32 H12        -1.6260   -1.0640   -4.1700 h4        1 1CM      0.022100
     33 H10         0.4620    2.3110    1.4620 ha        1 1CM      0.138500
     34 H13        -0.9190   -1.0520   -1.7720 ha        1 1CM      0.160500
@<TRIPOS>BOND
     1    1    2 2   
     2    2    3 1   
     3    2   10 1   
     4    3    4 1   
     5    3    7 1   
     6    3   19 1   
     7    4    5 1   
     8    4   20 1   
     9    4   21 1   
    10    5   22 1   
    11    5   23 1   
    12    5   24 1   
    13    6    7 ar  
    14    6   13 ar  
    15    6   25 1   
    16    7   17 ar  
    17    8    9 ar  
    18    8   17 ar  
    19    8   26 1   
    20    9   13 ar  
    21    9   27 1   
    22   10   11 1   
    23   10   28 1   
    24   11   12 ar  
    25   11   18 ar  
    26   12   14 ar  
    27   12   29 1   
    28   13   30 1   
    29   14   15 ar  
    30   14   31 1   
    31   15   16 ar  
    32   16   18 ar  
    33   16   32 1   
    34   17   33 1   
    35   18   34 1   
@<TRIPOS>SUBSTRUCTURE
     1 1CM         1 TEMP              0 ****  ****    0 ROOT
