@<TRIPOS>MOLECULE
1CM
   34    35     1     0     0
SMALL
bcc


@<TRIPOS>ATOM
      1 O23        -0.2340   -0.9210    0.2710 o         1 1CM     -0.582100
      2 C22         0.8710   -0.3520    0.2670 c         1 1CM      0.668100
      3 C31         1.6830   -0.1690    1.5560 c3        1 1CM     -0.087400
      4 C36         0.8070   -0.4670    2.7680 c3        1 1CM     -0.070400
      5 C35         1.6330   -0.6940    4.0070 c3        1 1CM     -0.096100
      6 C33         3.6770    1.3380    1.7680 ca        1 1CM     -0.123500
      7 C32         2.2910    1.1950    1.6370 ca        1 1CM     -0.101300
      8 C41         2.0570    3.6060    1.6860 ca        1 1CM     -0.127500
      9 C42         3.4400    3.7420    1.8170 ca        1 1CM     -0.123000
     10 N21         1.4760    0.1100   -0.8970 n         1 1CM     -0.469100
     11 C14         0.9660    0.0560   -2.1990 ca        1 1CM      0.107600
     12 C15         1.6880    0.6940   -3.2420 ca        1 1CM     -0.290800
     13 C11         4.2480    2.6070    1.8580 ca        1 1CM     -0.127500
     14 C16         1.1880    0.6260   -4.5480 ca        1 1CM      0.414200
     15 N11         0.0510   -0.0110   -4.8900 nb        1 1CM     -0.685000
     16 C12        -0.6270   -0.6120   -3.8950 ca        1 1CM      0.414200
     17 C10         1.4840    2.3390    1.5970 ca        1 1CM     -0.123500
     18 C13        -0.2270   -0.6150   -2.5490 ca        1 1CM     -0.290800
     19 H31         2.5040   -0.9450    1.5180 hc        1 1CM      0.079700
     20 H361        0.0980    0.3870    2.9300 hc        1 1CM      0.062200
     21 H362        0.1860   -1.3780    2.5530 hc        1 1CM      0.062200
     22 H351        2.2920    0.1840    4.2120 hc        1 1CM      0.037700
     23 H352        2.2790   -1.5990    3.8940 hc        1 1CM      0.037700
     24 H353        0.9640   -0.8490    4.8880 hc        1 1CM      0.037700
     25 H33         4.3210    0.4460    1.8080 ha        1 1CM      0.138500
     26 H41         1.4170    4.5000    1.6550 ha        1 1CM      0.137000
     27 H42         3.8910    4.7430    1.8890 ha        1 1CM      0.136000
     28 H21         2.3300    0.6140   -0.7890 hn        1 1CM      0.325500
     29 H15         2.6230    1.2340   -3.0440 ha        1 1CM      0.160500
     30 H11         5.3380    2.7100    1.9640 ha        1 1CM      0.137000
     31 H16         1.7320    1.1140   -5.3770 h4        1 1CM      0.022100
     32 H12        -1.5580   -1.1300   -4.1930 h4        1 1CM      0.022100
     33 H10         0.3930    2.2340    1.4950 ha        1 1CM      0.138500
     34 H13        -0.8420   -1.1300   -1.7970 ha        1 1CM      0.160500
@<TRIPOS>BOND
     1    1    2 2   
     2    2    3 1   
     3    2   10 1   
     4    3    4 1   
     5    3    7 1   
     6    3   19 1   
     7    4    5 1   
     8    4   20 1   
     9    4   21 1   
    10    5   22 1   
    11    5   23 1   
    12    5   24 1   
    13    6    7 ar  
    14    6   13 ar  
    15    6   25 1   
    16    7   17 ar  
    17    8    9 ar  
    18    8   17 ar  
    19    8   26 1   
    20    9   13 ar  
    21    9   27 1   
    22   10   11 1   
    23   10   28 1   
    24   11   12 ar  
    25   11   18 ar  
    26   12   14 ar  
    27   12   29 1   
    28   13   30 1   
    29   14   15 ar  
    30   14   31 1   
    31   15   16 ar  
    32   16   18 ar  
    33   16   32 1   
    34   17   33 1   
    35   18   34 1   
@<TRIPOS>SUBSTRUCTURE
     1 1CM         1 TEMP              0 ****  ****    0 ROOT
