@<TRIPOS>MOLECULE
1CM
   34    30     1     0     0
SMALL
bcc


@<TRIPOS>ATOM
      1 O23        -1.1940    0.5470   -0.4490 o         1 1CM     -0.341000
      2 C22        -0.3090   -0.2620   -0.2520 c1        1 1CM      0.314000
      3 C31         0.4420   -0.2550    1.0620 c2        1 1CM     -0.085000
      4 C36        -0.4960   -0.6530    2.1810 c3        1 1CM     -0.145000
      5 C35        -0.0820   -1.9990    2.7300 c3        1 1CM     -0.217000
      6 C33         0.1110    2.2020    1.4500 c1        1 1CM     -0.113000
      7 C32         0.9820    1.1320    1.3260 c2        1 1CM     -0.092000
      8 C41         2.8320    2.5820    1.8140 c1        1 1CM     -0.128000
      9 C42         1.9600    3.6520    1.9380 c1        1 1CM     -0.123500
     10 N21        -0.0450   -1.2710   -1.2130 n3        1 1CM     -0.324000
     11 C14        -0.8130   -1.3350   -2.4040 c2        1 1CM      0.116000
     12 C15        -1.7580   -2.3080   -2.5550 c2        1 1CM     -0.242000
     13 C11         0.6000    3.4630    1.7560 c1        1 1CM     -0.123500
     14 C16        -2.4790   -2.3960   -3.7360 c1        1 1CM     -0.050000
     15 N11        -2.2430   -1.5130   -4.7460 n1        1 1CM     -0.159000
     16 C12        -1.3000   -0.5410   -4.5970 c1        1 1CM     -0.051000
     17 C10         2.3430    1.3220    1.5080 c2        1 1CM     -0.137000
     18 C13        -0.5780   -0.4500   -3.4170 c1        1 1CM     -0.210000
     19 H31         1.1820   -0.8890    1.0160 ha        1 1CM      0.118000
     20 H361       -1.4100   -0.7080    1.8370 hc        1 1CM      0.096000
     21 H362       -0.4560    0.0160    2.8930 hc        1 1CM      0.096000
     22 H351       -0.8450   -2.4150    3.1840 hc        1 1CM      0.080333
     23 H352        0.2140   -2.5750    1.9950 hc        1 1CM      0.080333
     24 H353        0.6520   -1.8800    3.3680 hc        1 1CM      0.080333
     25 H33        -0.8480    2.0690    1.3210 ha        1 1CM      0.143000
     26 H41         3.7900    2.7160    1.9430 ha        1 1CM      0.135000
     27 H42         2.3050    4.5400    2.1540 ha        1 1CM      0.137000
     28 H21         0.6190   -1.8780   -1.0660 hn        1 1CM      0.237000
     29 H15        -1.9270   -2.9410   -1.8310 ha        1 1CM      0.139000
     30 H11        -0.0140    4.2160    1.8430 ha        1 1CM      0.137000
     31 H16        -3.1550   -3.0920   -3.8440 ha        1 1CM      0.157000
     32 H12        -1.1320    0.0910   -5.3210 ha        1 1CM      0.160000
     33 H10         2.9570    0.5680    1.4210 ha        1 1CM      0.131000
     34 H13         0.0970    0.2460   -3.3100 ha        1 1CM      0.180000
@<TRIPOS>BOND
     1    1    2 1   
     2    2   10 1   
     3    3    4 1   
     4    3    7 1   
     5    3   19 1   
     6    4    5 1   
     7    4   20 1   
     8    4   21 1   
     9    5   22 1   
    10    5   23 1   
    11    5   24 1   
    12    6    7 1   
    13    6   25 1   
    14    7   17 1   
    15    8   17 1   
    16    8   26 1   
    17    9   13 1   
    18    9   27 1   
    19   10   11 1   
    20   10   28 1   
    21   11   12 1   
    22   11   18 1   
    23   12   14 1   
    24   12   29 1   
    25   13   30 1   
    26   14   31 1   
    27   15   16 1   
    28   16   32 1   
    29   17   33 1   
    30   18   34 1   
@<TRIPOS>SUBSTRUCTURE
     1 1CM         1 TEMP              0 ****  ****    0 ROOT
