@<TRIPOS>MOLECULE
1CN
   29    30     1     0     0
SMALL
bcc


@<TRIPOS>ATOM
      1 S1         -1.5410    0.3740    0.2660 s6        1 1CN      2.898000
      2 O1         -0.4380    0.4920    1.1360 o         1 1CN     -0.928500
      3 O2         -2.7990    0.1980    0.8520 o         1 1CN     -0.928500
      4 N1         -1.5530    1.5830   -0.7640 n3        1 1CN     -0.943000
      5 N2         -1.9440   -1.1620   -1.8700 n2        1 1CN      0.058000
      6 N3         -1.6470   -2.2110   -2.5320 n2        1 1CN     -0.115000
      7 S2         -0.1180   -2.2350   -0.4630 ss        1 1CN      0.730000
      8 C1         -1.2140   -0.9910   -0.7170 c2        1 1CN     -1.139000
      9 C2         -0.6450   -2.9670   -1.9160 c2        1 1CN     -0.180000
     10 N4         -0.1740   -4.1600   -2.4160 nh        1 1CN     -0.732000
     11 S3         -0.8850   -5.0680   -3.5940 s6        1 1CN      2.835000
     12 O3         -0.2490   -6.3150   -3.6150 o         1 1CN     -0.901500
     13 O4         -2.2760   -5.0860   -3.4690 o         1 1CN     -0.901500
     14 C4         -1.0450   -4.7670   -6.3140 c2        1 1CN     -0.070000
     15 C8          0.9360   -3.9880   -5.0210 c1        1 1CN     -0.182000
     16 C5         -0.2510   -4.9420   -7.4050 c2        1 1CN      0.005000
     17 C7          1.1940   -4.6090   -7.3770 c2        1 1CN      0.209000
     18 C6          1.7120   -4.1410   -6.1410 c2        1 1CN     -0.223000
     19 C3         -0.5070   -4.1980   -5.0740 c3        1 1CN     -0.758000
     20 CL          3.3820   -3.7960   -6.0330 cl        1 1CN     -0.018000
     21 N5          1.9430   -4.7780   -8.4840 n3        1 1CN     -0.314000
     22 HN11       -2.3250    1.8000   -1.3470 hn        1 1CN      0.251500
     23 HN12       -0.7700    2.1620   -0.9390 hn        1 1CN      0.251500
     24 HN4         0.7850   -4.3440   -2.1920 hn        1 1CN      0.277000
     25 H4         -2.1210   -5.0140   -6.3520 ha        1 1CN      0.175000
     26 H8         -0.9560   -3.1480   -4.9930 h1        1 1CN      0.239000
     27 HN51        2.9160   -4.5720   -8.4680 hn        1 1CN      0.254000
     28 HN52        1.5430   -5.1530   -9.3120 hn        1 1CN      0.254000
     29 F          -0.7580   -5.4390   -8.5640 f         1 1CN     -0.103000
@<TRIPOS>BOND
     1    1    2 1   
     2    1    3 1   
     3    1    4 1   
     4    1    8 1   
     5    4   22 1   
     6    4   23 1   
     7    5    6 1   
     8    5    8 1   
     9    6    9 1   
    10    7    8 1   
    11    7    9 1   
    12    9   10 1   
    13   10   11 1   
    14   10   24 1   
    15   11   12 1   
    16   11   13 1   
    17   11   19 1   
    18   14   16 1   
    19   14   19 1   
    20   14   25 1   
    21   15   18 1   
    22   15   19 1   
    23   16   17 1   
    24   16   29 1   
    25   17   18 1   
    26   17   21 1   
    27   18   20 1   
    28   19   26 1   
    29   21   27 1   
    30   21   28 1   
@<TRIPOS>SUBSTRUCTURE
     1 1CN         1 TEMP              0 ****  ****    0 ROOT
