@<TRIPOS>MOLECULE
1CN
   29    23     1     0     0
SMALL
bcc


@<TRIPOS>ATOM
      1 S1         -0.2590   -1.6890    5.7660 ss        1 1CN      2.899000
      2 O1         -0.1300   -0.7510    6.8460 o         1 1CN     -0.931500
      3 O2          1.0600   -2.2560    5.7290 o         1 1CN     -0.931500
      4 N1         -1.3910   -2.8320    6.1010 n2        1 1CN     -0.942000
      5 N2         -1.9140   -0.3540    3.8750 n2        1 1CN     -0.019000
      6 N3         -1.8160    0.2030    2.4030 n2        1 1CN     -0.019000
      7 S2          0.3010   -0.6720    3.0570 ss        1 1CN      0.679000
      8 C1         -0.6490   -0.8680    4.2430 c1        1 1CN     -0.654500
      9 C2         -0.4950    0.0050    1.9380 c1        1 1CN     -0.654500
     10 N4          0.0020    0.3610    0.6570 n2        1 1CN     -0.754000
     11 S3         -0.9270    0.1300   -0.6770 s4        1 1CN      2.097800
     12 O3         -1.3730   -1.2320   -0.7720 o         1 1CN     -0.511900
     13 O4         -2.1790    0.8260   -0.5680 o         1 1CN     -0.511900
     14 C4          1.1930    0.0590   -2.4140 c1        1 1CN      0.003000
     15 C8         -0.6180    1.5110   -3.0260 c1        1 1CN      0.040000
     16 C5          1.8540    0.3890   -3.5880 c1        1 1CN     -0.026000
     17 C7          1.2780    1.2800   -4.4800 c1        1 1CN      0.170000
     18 C6          0.0430    1.8410   -4.1990 c1        1 1CN     -0.176000
     19 C3         -0.0420    0.6210   -2.1330 c1        1 1CN     -0.905000
     20 F           3.0380   -0.1700   -3.8700 f         1 1CN     -0.103000
     21 CL         -0.6900    2.9470   -5.3310 cl        1 1CN      0.002000
     22 N5          1.9250    1.5700   -5.7080 n3        1 1CN     -0.355000
     23 HN11       -1.2140   -3.7130    5.9350 hn        1 1CN      0.252000
     24 HN12       -2.1900   -2.5880    6.4730 hn        1 1CN      0.252000
     25 HN4         0.8290    0.7350    0.5770 hn        1 1CN      0.254000
     26 H4          1.5990   -0.5680   -1.7860 ha        1 1CN      0.176000
     27 H8         -1.4880    1.9070   -2.8280 ha        1 1CN      0.176000
     28 HN51        2.7150    1.1600   -5.9170 hn        1 1CN      0.247000
     29 HN52        1.5400    2.1470   -6.3030 hn        1 1CN      0.247000
@<TRIPOS>BOND
     1    1    2 1   
     2    1    3 1   
     3    4   23 1   
     4    4   24 1   
     5    5    6 1   
     6    5    8 1   
     7    6    9 1   
     8    7    8 1   
     9    7    9 1   
    10   10   11 1   
    11   10   25 1   
    12   11   12 1   
    13   11   13 1   
    14   14   19 1   
    15   14   26 1   
    16   15   18 1   
    17   15   27 1   
    18   16   17 1   
    19   16   20 1   
    20   17   22 1   
    21   18   21 1   
    22   22   28 1   
    23   22   29 1   
@<TRIPOS>SUBSTRUCTURE
     1 1CN         1 TEMP              0 ****  ****    0 ROOT
