@<TRIPOS>MOLECULE
1CN
   30    31     1     0     0
SMALL
bcc


@<TRIPOS>ATOM
      1 S1          0.5000   -1.4070    0.1010 s4        1 1CN      2.146800
      2 O1          1.5250   -2.1170    0.6670 o         1 1CN     -0.469900
      3 O2         -0.1710   -0.4750    0.8390 o         1 1CN     -0.469900
      4 N1          1.8260    0.1250   -0.8770 n3        1 1CN     -1.094400
      5 N2         -1.0990   -1.2150   -1.9030 ne        1 1CN     -0.010600
      6 N3         -1.6550   -1.7560   -2.8370 n2        1 1CN     -0.217200
      7 S2          0.1770   -3.4790   -1.9310 ss        1 1CN     -0.160700
      8 C1         -0.1150   -1.9500   -1.1790 ce        1 1CN     -1.044800
      9 C2         -1.2460   -3.1950   -3.1100 c3        1 1CN      0.497700
     10 N4         -2.2770   -4.1790   -2.8340 n3        1 1CN     -0.904100
     11 S3         -2.8830   -5.0360   -4.0480 s6        1 1CN      1.469900
     12 O3         -2.3740   -6.3150   -4.1630 o         1 1CN     -0.597800
     13 O4         -4.2320   -4.8430   -4.2740 o         1 1CN     -0.597800
     14 C4         -0.9000   -3.3580   -4.5870 c2        1 1CN      0.022600
     15 C8         -1.6470   -4.6110   -6.5900 c2        1 1CN      0.084800
     16 C5          0.2510   -2.9890   -5.2170 ce        1 1CN      0.005900
     17 C7          0.5020   -3.4250   -6.6090 ce        1 1CN      0.481900
     18 C6         -0.4690   -4.3270   -7.2100 ce        1 1CN     -0.206200
     19 C3         -2.0060   -4.0060   -5.3170 c3        1 1CN     -0.224500
     20 N5          1.5860   -3.0230   -7.2650 nh        1 1CN     -0.379100
     21 HN11        1.6970    0.1200   -1.8710 hn        1 1CN      0.406133
     22 HN12        1.5810    1.0300   -0.5130 hn        1 1CN      0.406133
     23 HN4        -2.5700   -4.2150   -1.8830 hn        1 1CN      0.498800
     24 H4         -2.7770   -3.1930   -5.5620 h1        1 1CN      0.212700
     25 H8         -2.3890   -5.2870   -7.0630 ha        1 1CN      0.204000
     26 HN51        2.2510   -2.4130   -6.8300 hn        1 1CN      0.335200
     27 HN52        1.7780   -3.3390   -8.1980 hn        1 1CN      0.335200
     28 F           1.2240   -2.2570   -4.6260 f         1 1CN     -0.126500
     29 H13         2.7880   -0.0720   -0.6610 hn        1 1CN      0.406133
     30 CL         -0.1050   -5.0230   -8.7110 cl        1 1CN     -0.009400
@<TRIPOS>BOND
     1    1    2 1   
     2    1    3 1   
     3    1    8 2   
     4    4   21 1   
     5    4   22 1   
     6    4   29 1   
     7    5    6 2   
     8    5    8 1   
     9    6    9 1   
    10    7    8 1   
    11    7    9 1   
    12    9   10 1   
    13    9   14 1   
    14   10   11 1   
    15   10   23 1   
    16   11   12 2   
    17   11   13 2   
    18   11   19 1   
    19   14   16 2   
    20   14   19 1   
    21   15   18 2   
    22   15   19 1   
    23   15   25 1   
    24   16   17 1   
    25   16   28 1   
    26   17   18 1   
    27   17   20 2   
    28   18   30 1   
    29   19   24 1   
    30   20   26 1   
    31   20   27 1   
@<TRIPOS>SUBSTRUCTURE
     1 1CN         1 TEMP              0 ****  ****    0 ROOT
