@<TRIPOS>MOLECULE
1CN
   29    30     1     0     0
SMALL
bcc


@<TRIPOS>ATOM
      1 S1          4.3980    0.9370   -0.5320 sy        1 1CN      1.488800
      2 O1          4.0830    2.0530   -1.3170 o         1 1CN     -0.651800
      3 O2          5.3020    0.0030   -1.0780 o         1 1CN     -0.651800
      4 N1          4.8770    1.3750    0.9180 n3        1 1CN     -1.016700
      5 N2          1.9920    0.6440    0.5620 nc        1 1CN     -0.200000
      6 N3          0.9290   -0.0490    0.6970 nc        1 1CN     -0.387000
      7 S2          2.4780   -1.4270   -0.8320 ss        1 1CN      0.051200
      8 C1          2.9530    0.0720   -0.2330 cd        1 1CN     -0.042700
      9 C2          0.9830   -1.2560   -0.0090 cd        1 1CN      0.612300
     10 N4         -0.0390   -2.1700   -0.0170 nh        1 1CN     -0.810800
     11 S3         -1.4500   -2.1030    0.8870 sy        1 1CN      1.532200
     12 O3         -2.1500   -3.2640    0.5000 o         1 1CN     -0.635300
     13 O4         -1.1470   -1.9700    2.2450 o         1 1CN     -0.635300
     14 C4         -3.0220   -0.8300   -0.8340 ca        1 1CN      0.007000
     15 C8         -2.1310    0.4710    0.9890 ca        1 1CN      0.071000
     16 C5         -3.6980    0.2840   -1.3160 ca        1 1CN      0.004900
     17 C7         -3.6060    1.5560   -0.6420 ca        1 1CN      0.259600
     18 C6         -2.8010    1.5970    0.5330 ca        1 1CN     -0.099600
     19 C3         -2.2230   -0.7560    0.3170 ca        1 1CN     -0.465500
     20 CL         -2.6510    3.0540    1.3990 cl        1 1CN     -0.077400
     21 N5         -4.2690    2.6480   -1.1100 nh        1 1CN     -0.848200
     22 HN11        5.5390    0.8700    1.4520 hn        1 1CN      0.456300
     23 HN12        4.4950    2.1430    1.4140 hn        1 1CN      0.456300
     24 HN4         0.1080   -2.9490   -0.6230 hn        1 1CN      0.461800
     25 H4         -3.1340   -1.7940   -1.3640 ha        1 1CN      0.168000
     26 H8         -1.5130    0.5380    1.9070 ha        1 1CN      0.186000
     27 HN51       -4.8020    2.5790   -1.9410 hn        1 1CN      0.452800
     28 HN52       -4.1770    3.5240   -0.6580 hn        1 1CN      0.452800
     29 F          -4.4600    0.1800   -2.4370 f         1 1CN     -0.140900
@<TRIPOS>BOND
     1    1    2 2   
     2    1    3 2   
     3    1    4 1   
     4    1    8 1   
     5    4   22 1   
     6    4   23 1   
     7    5    6 1   
     8    5    8 2   
     9    6    9 2   
    10    7    8 1   
    11    7    9 1   
    12    9   10 1   
    13   10   11 1   
    14   10   24 1   
    15   11   12 2   
    16   11   13 2   
    17   11   19 1   
    18   14   16 ar  
    19   14   19 ar  
    20   14   25 1   
    21   15   18 ar  
    22   15   19 ar  
    23   15   26 1   
    24   16   17 ar  
    25   16   29 1   
    26   17   18 ar  
    27   17   21 1   
    28   18   20 1   
    29   21   27 1   
    30   21   28 1   
@<TRIPOS>SUBSTRUCTURE
     1 1CN         1 TEMP              0 ****  ****    0 ROOT
