@<TRIPOS>MOLECULE
1CN
   30    30     1     0     0
SMALL
bcc


@<TRIPOS>ATOM
      1 S1          0.7390   -1.1070    0.9050 s6        1 1CN      1.958100
      2 O1          1.9440   -0.5020    0.6160 o         1 1CN     -0.533700
      3 O2          0.6100   -1.8990    2.0190 o         1 1CN     -0.577300
      4 N1         -0.2840    0.4100    1.4870 nz        1 1CN     -0.778500
      5 N2         -1.4730   -1.8600   -0.1910 nc        1 1CN     -0.036600
      6 N3         -2.0610   -2.2370   -1.2100 nd        1 1CN     -0.296300
      7 S2          0.3480   -1.6540   -1.9880 ss        1 1CN      0.198200
      8 C1         -0.1130   -1.4900   -0.3650 cc        1 1CN     -1.044800
      9 C2         -1.2190   -2.2320   -2.3950 cd        1 1CN      0.853200
     10 N4         -1.6220   -2.6010   -3.5750 n2        1 1CN     -1.246600
     11 S3         -2.2740   -3.0510   -4.7480 s4        1 1CN      1.983700
     12 O3         -2.4900   -4.3890   -4.9310 o         1 1CN     -0.474400
     13 O4         -2.9730   -2.1470   -5.5040 o         1 1CN     -0.474400
     14 C4          0.5980   -3.7460   -5.6430 ca        1 1CN     -0.057000
     15 C8         -0.9440   -3.2180   -7.4380 ca        1 1CN      0.000000
     16 C5          0.8800   -4.9690   -6.2310 ca        1 1CN      0.021900
     17 C7          0.2350   -5.3700   -7.4670 ca        1 1CN      0.277600
     18 C6         -0.6770   -4.4300   -8.0480 ca        1 1CN     -0.096600
     19 C3         -0.3770   -2.8850   -6.1890 ca        1 1CN     -0.490000
     20 N5          0.5030   -6.5650   -8.0380 nv        1 1CN     -0.812200
     21 HN11       -1.0230    0.6550    0.8360 hn        1 1CN      0.453800
     22 HN12       -0.7160    0.2090    2.3870 hn        1 1CN      0.453800
     23 HN4         1.1470   -3.4530   -4.7330 ha        1 1CN      0.151000
     24 H4         -0.3370   -1.8110   -5.9220 ha        1 1CN      0.169000
     25 H8         -1.6360   -2.4990   -7.9170 ha        1 1CN      0.182000
     26 HN51        1.1430   -7.1900   -7.6050 hn        1 1CN      0.466300
     27 HN52        0.0600   -6.8360   -8.8850 hn        1 1CN      0.466300
     28 F           1.7800   -5.8070   -5.6570 f         1 1CN     -0.126900
     29 H13         0.3180    1.2220    1.5990 hn        1 1CN      0.453800
     30 Cl         -1.4370   -4.8040   -9.5190 cl        1 1CN     -0.043400
@<TRIPOS>BOND
     1    1    2 1   
     2    1    3 2   
     3    1    4 1   
     4    1    8 2   
     5    4   21 1   
     6    4   22 1   
     7    4   29 1   
     8    5    6 2   
     9    5    8 1   
    10    6    9 1   
    11    7    8 1   
    12    7    9 1   
    13    9   10 2   
    14   10   11 1   
    15   11   12 1   
    16   11   13 1   
    17   14   16 ar  
    18   14   19 ar  
    19   14   23 1   
    20   15   18 ar  
    21   15   19 ar  
    22   15   25 1   
    23   16   17 ar  
    24   16   28 1   
    25   17   18 ar  
    26   17   20 1   
    27   18   30 1   
    28   19   24 1   
    29   20   26 1   
    30   20   27 1   
@<TRIPOS>SUBSTRUCTURE
     1 1CN         1 TEMP              0 ****  ****    0 ROOT
