@<TRIPOS>MOLECULE
1CO
   21    20     1     0     0
SMALL
bcc


@<TRIPOS>ATOM
      1 C2          1.5900   -0.0230    0.1440 c3        1 1CO     -0.069400
      2 C6         -0.5750   -0.0620    1.4410 c3        1 1CO     -0.117100
      3 C5         -1.9430   -1.2900   -0.9050 c         1 1CO      0.909600
      4 C4         -0.4140   -1.1770   -0.7970 c3        1 1CO     -0.226400
      5 C3          0.0520    0.0060    0.0520 c3        1 1CO      0.185800
      6 C1          2.1420    1.2260    0.7750 c3        1 1CO      0.040700
      7 O4         -2.4490   -2.4460   -0.9170 o         1 1CO     -0.847300
      8 O3         -2.6260   -0.2240   -0.9960 o         1 1CO     -0.847300
      9 O7         -0.2890    1.2460   -0.5610 oh        1 1CO     -0.655800
     10 S2          3.9210    1.1110    0.7630 sh        1 1CO     -0.435900
     11 H1          1.8900   -0.9260    0.7360 hc        1 1CO      0.049200
     12 H2          2.0030   -0.1310   -0.8930 hc        1 1CO      0.049200
     13 H3         -0.3180    0.8500    2.0300 hc        1 1CO      0.037367
     14 H4         -1.6870   -0.1180    1.3310 hc        1 1CO      0.037367
     15 H5         -0.2150   -0.9660    1.9840 hc        1 1CO      0.037367
     16 H6         -0.0120   -1.0590   -1.8350 hc        1 1CO      0.037200
     17 H7         -0.0080   -2.1240   -0.3640 hc        1 1CO      0.037200
     18 H8          1.8050    2.1220    0.1990 h1        1 1CO      0.067700
     19 H9          1.7850    1.3310    1.8270 h1        1 1CO      0.067700
     20 H11        -1.2200    1.1690   -0.8380 ho        1 1CO      0.458000
     21 H12         4.2070    2.3260    1.1900 hs        1 1CO      0.186800
@<TRIPOS>BOND
     1    1    5 1   
     2    1    6 1   
     3    1   11 1   
     4    1   12 1   
     5    2    5 1   
     6    2   13 1   
     7    2   14 1   
     8    2   15 1   
     9    3    4 1   
    10    3    7 1   
    11    3    8 1   
    12    4    5 1   
    13    4   16 1   
    14    4   17 1   
    15    5    9 1   
    16    6   10 1   
    17    6   18 1   
    18    6   19 1   
    19    9   20 1   
    20   10   21 1   
@<TRIPOS>SUBSTRUCTURE
     1 1CO         1 TEMP              0 ****  ****    0 ROOT
