@<TRIPOS>MOLECULE
1CO
   21    20     1     0     0
SMALL
bcc


@<TRIPOS>ATOM
      1 C2          1.1970   -0.5670    0.1160 c3        1 1CO     -0.069400
      2 C6         -0.4360    1.0010    1.2310 c3        1 1CO     -0.117100
      3 C5         -2.6860   -0.3820   -0.1500 c         1 1CO      0.909600
      4 C4         -1.2590   -0.9520   -0.1060 c3        1 1CO     -0.226400
      5 C3         -0.1760    0.1210    0.0120 c3        1 1CO      0.185800
      6 C1          2.3320    0.4160    0.0130 c3        1 1CO      0.040700
      7 O4         -3.5980   -1.0300    0.4340 o         1 1CO     -0.847300
      8 O3         -2.8890    0.6990   -0.7840 o         1 1CO     -0.847300
      9 O7         -0.1290    0.9340   -1.1570 oh        1 1CO     -0.655800
     10 S2          3.8620   -0.4980    0.0740 sh        1 1CO     -0.435900
     11 H1          1.2430   -1.1160    1.0920 hc        1 1CO      0.049200
     12 H2          1.2790   -1.3190   -0.7130 hc        1 1CO      0.049200
     13 H3          0.2920    1.8450    1.2650 hc        1 1CO      0.037367
     14 H4         -1.4710    1.4200    1.1580 hc        1 1CO      0.037367
     15 H5         -0.3490    0.4010    2.1660 hc        1 1CO      0.037367
     16 H6         -1.1750   -1.6560    0.7580 hc        1 1CO      0.037200
     17 H7         -1.0990   -1.5280   -1.0520 hc        1 1CO      0.037200
     18 H8          2.2550    0.9830   -0.9460 h1        1 1CO      0.067700
     19 H9          2.3030    1.1450    0.8560 h1        1 1CO      0.067700
     20 H11        -1.0510    1.1790   -1.3600 ho        1 1CO      0.458000
     21 H12         4.6980    0.4870   -0.1870 hs        1 1CO      0.186800
@<TRIPOS>BOND
     1    1    5 1   
     2    1    6 1   
     3    1   11 1   
     4    1   12 1   
     5    2    5 1   
     6    2   13 1   
     7    2   14 1   
     8    2   15 1   
     9    3    4 1   
    10    3    7 1   
    11    3    8 1   
    12    4    5 1   
    13    4   16 1   
    14    4   17 1   
    15    5    9 1   
    16    6   10 1   
    17    6   18 1   
    18    6   19 1   
    19    9   20 1   
    20   10   21 1   
@<TRIPOS>SUBSTRUCTURE
     1 1CO         1 TEMP              0 ****  ****    0 ROOT
