@<TRIPOS>MOLECULE
1CO
   21    19     1     0     0
SMALL
bcc


@<TRIPOS>ATOM
      1 C2          1.0580   -0.1430    0.2340 c3        1 1CO     -0.179000
      2 C6         -1.0280   -0.0410    1.5520 c3        1 1CO     -0.206000
      3 C5         -1.4340   -1.2720   -1.8280 c1        1 1CO      0.328000
      4 C4         -0.8930   -1.5030   -0.4340 c2        1 1CO     -0.255000
      5 C3         -0.4520   -0.1840    0.1610 c3        1 1CO      0.113000
      6 C1          1.5350    1.2770    0.0250 c3        1 1CO     -0.215000
      7 O4         -0.6560   -1.2910   -2.8170 o         1 1CO     -0.582000
      8 O3         -2.6640   -1.0600   -1.9980 o         1 1CO     -0.582000
      9 O7         -0.9110    0.8720   -0.6470 oh        1 1CO     -0.380000
     10 S2          3.2940    1.3480    0.2370 sh        1 1CO     -0.075000
     11 H1          1.3510   -0.4600    1.1120 hc        1 1CO      0.109000
     12 H2          1.4340   -0.7190   -0.4620 hc        1 1CO      0.109000
     13 H3         -2.0060   -0.0660    1.5050 hc        1 1CO      0.065000
     14 H4         -0.7410    0.8130    1.9380 hc        1 1CO      0.065000
     15 H5         -0.7090   -0.7780    2.1150 hc        1 1CO      0.065000
     16 H6         -1.5910   -1.8970    0.1260 ha        1 1CO      0.076500
     17 H7         -0.1290   -2.1130   -0.4780 ha        1 1CO      0.076500
     18 H8          1.1040    1.8650    0.6770 h1        1 1CO      0.100500
     19 H9          1.3040    1.5690   -0.8800 h1        1 1CO      0.100500
     20 H11        -1.5340    1.3310   -0.2090 ho        1 1CO      0.255000
     21 H12         3.6650    2.4530    0.0720 hs        1 1CO      0.010000
@<TRIPOS>BOND
     1    1    5 1   
     2    1    6 1   
     3    1   11 1   
     4    1   12 1   
     5    2    5 1   
     6    2   13 1   
     7    2   14 1   
     8    2   15 1   
     9    3    7 1   
    10    3    8 1   
    11    4    5 1   
    12    4   16 1   
    13    4   17 1   
    14    5    9 1   
    15    6   10 1   
    16    6   18 1   
    17    6   19 1   
    18    9   20 1   
    19   10   21 1   
@<TRIPOS>SUBSTRUCTURE
     1 1CO         1 TEMP              0 ****  ****    0 ROOT
