@<TRIPOS>MOLECULE
1CO
   21    20     1     0     0
SMALL
bcc


@<TRIPOS>ATOM
      1 C2          1.5900   -0.0050    0.1340 c3        1 1CO     -0.069400
      2 C6         -0.5650   -0.0970    1.4450 c3        1 1CO     -0.117100
      3 C5         -1.9340   -1.2990   -0.9130 c         1 1CO      0.909600
      4 C4         -0.4050   -1.1680   -0.8140 c3        1 1CO     -0.226400
      5 C3          0.0520    0.0050    0.0530 c3        1 1CO      0.185800
      6 C1          2.1300    1.2390    0.7850 c3        1 1CO      0.040700
      7 O4         -2.4250   -2.4610   -0.9430 o         1 1CO     -0.847300
      8 O3         -2.6310   -0.2400   -0.9790 o         1 1CO     -0.847300
      9 O7         -0.3100    1.2520   -0.5340 oh        1 1CO     -0.655800
     10 S2          3.9110    1.1470    0.7560 sh        1 1CO     -0.435900
     11 H1          1.9970   -0.0880   -0.9080 hc        1 1CO      0.049200
     12 H2          1.9060   -0.9150    0.7060 hc        1 1CO      0.049200
     13 H3         -1.6760   -0.1660    1.3420 hc        1 1CO      0.037367
     14 H4         -0.1880   -1.0060    1.9690 hc        1 1CO      0.037367
     15 H5         -0.3150    0.8070    2.0500 hc        1 1CO      0.037367
     16 H6          0.0160   -2.1170   -0.4010 hc        1 1CO      0.037200
     17 H7         -0.0130   -1.0260   -1.8530 hc        1 1CO      0.037200
     18 H8          1.7780    2.1410    0.2280 h1        1 1CO      0.067700
     19 H9          1.7810    1.3180    1.8410 h1        1 1CO      0.067700
     20 H11        -1.2430    1.1680   -0.8050 ho        1 1CO      0.458000
     21 H12         4.1840    2.3570    1.2050 hs        1 1CO      0.186800
@<TRIPOS>BOND
     1    1    5 1   
     2    1    6 1   
     3    1   11 1   
     4    1   12 1   
     5    2    5 1   
     6    2   13 1   
     7    2   14 1   
     8    2   15 1   
     9    3    4 1   
    10    3    7 1   
    11    3    8 1   
    12    4    5 1   
    13    4   16 1   
    14    4   17 1   
    15    5    9 1   
    16    6   10 1   
    17    6   18 1   
    18    6   19 1   
    19    9   20 1   
    20   10   21 1   
@<TRIPOS>SUBSTRUCTURE
     1 1CO         1 TEMP              0 ****  ****    0 ROOT
