@<TRIPOS>MOLECULE
1CP
   88    77     1     0     0
SMALL
bcc


@<TRIPOS>ATOM
      1 O18        -4.2960   -2.8450    6.4990 o         1 1CP     -0.602500
      2 C43        -4.9530   -2.3020    5.5720 c2        1 1CP      0.323000
      3 O28        -6.1520   -1.9690    5.7630 o         1 1CP     -0.602500
      4 C42        -4.2840   -1.9950    4.2510 c3        1 1CP     -0.209000
      5 C41        -3.3720   -0.8000    4.4130 c3        1 1CP     -0.087000
      6 C8         -2.8800   -0.3530    3.0540 c2        1 1CP     -0.108000
      7 C7         -3.6600    0.2170    2.0460 c1        1 1CP     -0.136000
      8 C7A        -5.1560    0.4270    2.0920 c2        1 1CP     -0.145000
      9 C9         -1.5560   -0.3320    2.6330 c1        1 1CP     -0.107000
     10 C10        -0.3560   -0.7710    3.4480 c2        1 1CP     -0.031000
     11 N22        -1.5180    0.2650    1.3810 n2        1 1CP     -0.167000
     12 C6         -2.8100    0.6180    1.0230 c1        1 1CP     -0.111000
     13 C5         -3.2080    1.4180   -0.2060 c2        1 1CP     -0.031000
     14 C4         -2.2400    1.1290   -1.3340 c2        1 1CP     -0.107000
     15 N21        -0.9630    1.5940   -1.4310 n2        1 1CP     -0.167000
     16 C3         -2.5400    0.4460   -2.5210 c1        1 1CP     -0.108000
     17 C31        -3.7270   -0.4680   -2.7250 c2        1 1CP     -0.087000
     18 C32        -4.7420    0.2150   -3.6160 c3        1 1CP     -0.209000
     19 C33        -5.6860   -0.8190   -4.1900 c2        1 1CP      0.323000
     20 O23        -6.6040   -1.2990   -3.4740 o         1 1CP     -0.602500
     21 O13        -5.5470   -1.2070   -5.3800 o         1 1CP     -0.602500
     22 C2         -1.4620    0.5240   -3.3390 c1        1 1CP     -0.136000
     23 C2A        -1.3830    0.0040   -4.7590 c2        1 1CP     -0.145000
     24 C1         -0.4770    1.2530   -2.6810 c1        1 1CP     -0.111000
     25 C20         0.8520    1.6780   -3.2620 c2        1 1CP     -0.031000
     26 C19         1.9260    1.5590   -2.2050 c2        1 1CP     -0.107000
     27 N24         2.0550    0.5450   -1.3050 n2        1 1CP     -0.167000
     28 C18         3.0080    2.4300   -2.0290 c1        1 1CP     -0.108000
     29 C61         3.1220    3.8110   -2.6310 c2        1 1CP     -0.087000
     30 C62         4.1830    3.8060   -3.7100 c3        1 1CP     -0.209000
     31 C63         4.3220    5.1980   -4.2870 c2        1 1CP      0.323000
     32 O1R         3.8180    5.4680   -5.4090 o         1 1CP     -0.602500
     33 O2R         4.9360    6.0880   -3.6420 o         1 1CP     -0.602500
     34 C17         3.7850    1.9450   -1.0290 c1        1 1CP     -0.136000
     35 C86         5.1050    2.5240   -0.5660 c2        1 1CP     -0.145000
     36 C16         3.2020    0.7710   -0.5670 c1        1 1CP     -0.111000
     37 C15         3.7470   -0.1230    0.5230 c2        1 1CP     -0.031000
     38 C14         2.6000   -0.7770    1.2590 c2        1 1CP     -0.109000
     39 N23         1.5500   -0.1340    1.8360 n2        1 1CP     -0.167000
     40 C11         0.8030   -1.0680    2.5220 c2        1 1CP     -0.109000
     41 C12         1.3770   -2.3180    2.3070 c1        1 1CP     -0.122000
     42 C81         0.9020   -3.6270    2.8980 c2        1 1CP     -0.145000
     43 C13         2.4800   -2.1430    1.5500 c1        1 1CP     -0.122000
     44 C91         3.5560   -3.1820    1.3200 c2        1 1CP     -0.087000
     45 C92         4.4540   -3.2550    2.5350 c3        1 1CP     -0.209000
     46 C53         5.4990   -4.3300    2.3260 c2        1 1CP      0.323000
     47 O2M         6.4870   -4.1100    1.5790 o         1 1CP     -0.602500
     48 O1M         5.4000   -5.4290    2.9330 o         1 1CP     -0.602500
     49 H421       -4.9660   -1.7960    3.5790 hc        1 1CP      0.065000
     50 H422       -3.7590   -2.7690    3.9640 hc        1 1CP      0.065000
     51 H411       -3.8640   -0.0700    4.8380 hc        1 1CP      0.086000
     52 H412       -2.6080   -1.0470    4.9720 hc        1 1CP      0.086000
     53 H7A1       -5.6070   -0.3530    1.7060 ha        1 1CP      0.074333
     54 H7A2       -5.3900    1.2280    1.5780 ha        1 1CP      0.074333
     55 H7A3       -5.4420    0.5420    3.0220 ha        1 1CP      0.074333
     56 H101       -0.5830   -1.5760    3.9550 ha        1 1CP      0.104000
     57 H102       -0.1030   -0.0570    4.0670 ha        1 1CP      0.104000
     58 H22        -0.7960    0.2720    0.8230 DU        1 1CP      0.250000
     59 H51        -3.1860    2.3730    0.0060 ha        1 1CP      0.104000
     60 H52        -4.1130    1.1660   -0.4800 ha        1 1CP      0.104000
     61 H21        -0.5150    2.0650   -0.7910 DU        1 1CP      0.250000
     62 H311       -3.4300   -1.2990   -3.1470 ha        1 1CP      0.086000
     63 H312       -4.1360   -0.6700   -1.8610 ha        1 1CP      0.086000
     64 H321       -5.2500    0.8660   -3.0920 hc        1 1CP      0.065000
     65 H322       -4.2780    0.6740   -4.3460 hc        1 1CP      0.065000
     66 H2A1       -2.2880   -0.0760   -5.1290 ha        1 1CP      0.074333
     67 H2A2       -0.9500   -0.8760   -4.7610 ha        1 1CP      0.074333
     68 H2A3       -0.8600    0.6260   -5.3070 ha        1 1CP      0.074333
     69 H201        1.0750    1.1020   -4.0200 ha        1 1CP      0.104000
     70 H202        0.7940    2.6070   -3.5650 ha        1 1CP      0.104000
     71 H24         1.4890   -0.1660   -1.2130 DU        1 1CP      0.250000
     72 H611        3.3690    4.4510   -1.9330 ha        1 1CP      0.086000
     73 H612        2.2620    4.0700   -3.0190 ha        1 1CP      0.086000
     74 H621        3.9230    3.1830   -4.4190 hc        1 1CP      0.065000
     75 H622        5.0380    3.5250   -3.3260 hc        1 1CP      0.065000
     76 H861        5.0770    3.5010   -0.6410 ha        1 1CP      0.074333
     77 H862        5.8300    2.1740   -1.1250 ha        1 1CP      0.074333
     78 H863        5.2620    2.2730    0.3680 ha        1 1CP      0.074333
     79 H151        4.2740    0.4120    1.1500 ha        1 1CP      0.104000
     80 H152        4.3150   -0.8130    0.1260 ha        1 1CP      0.104000
     81 H23         1.3750    0.7600    1.7840 DU        1 1CP      0.250000
     82 H811        0.5730   -4.2090    2.1810 ha        1 1CP      0.074333
     83 H812        1.6470   -4.0660    3.3600 ha        1 1CP      0.074333
     84 H813        0.1790   -3.4550    3.5370 ha        1 1CP      0.074333
     85 H911        4.0870   -2.9340    0.5370 ha        1 1CP      0.086000
     86 H912        3.1400   -4.0540    1.1690 ha        1 1CP      0.086000
     87 H921        4.8960   -2.3930    2.6660 hc        1 1CP      0.065000
     88 H922        3.9180   -3.4700    3.3250 hc        1 1CP      0.065000
@<TRIPOS>BOND
     1    1    2 1   
     2    2    3 1   
     3    2    4 1   
     4    4    5 1   
     5    4   49 1   
     6    4   50 1   
     7    5    6 1   
     8    5   51 1   
     9    5   52 1   
    10    6    7 1   
    11    6    9 1   
    12    7   12 1   
    13    8   53 1   
    14    8   54 1   
    15    8   55 1   
    16    9   11 1   
    17   10   40 1   
    18   10   56 1   
    19   10   57 1   
    20   11   12 1   
    21   13   14 1   
    22   13   59 1   
    23   13   60 1   
    24   14   15 1   
    25   14   16 1   
    26   15   24 1   
    27   16   22 1   
    28   17   18 1   
    29   17   62 1   
    30   17   63 1   
    31   18   19 1   
    32   18   64 1   
    33   18   65 1   
    34   19   20 1   
    35   19   21 1   
    36   22   24 1   
    37   23   66 1   
    38   23   67 1   
    39   23   68 1   
    40   25   26 1   
    41   25   69 1   
    42   25   70 1   
    43   26   27 1   
    44   26   28 1   
    45   27   36 1   
    46   28   34 1   
    47   29   30 1   
    48   29   72 1   
    49   29   73 1   
    50   30   31 1   
    51   30   74 1   
    52   30   75 1   
    53   31   32 1   
    54   31   33 1   
    55   34   36 1   
    56   35   76 1   
    57   35   77 1   
    58   35   78 1   
    59   37   38 1   
    60   37   79 1   
    61   37   80 1   
    62   38   39 1   
    63   38   43 1   
    64   39   40 1   
    65   40   41 1   
    66   41   43 1   
    67   42   82 1   
    68   42   83 1   
    69   42   84 1   
    70   44   45 1   
    71   44   85 1   
    72   44   86 1   
    73   45   46 1   
    74   45   87 1   
    75   45   88 1   
    76   46   47 1   
    77   46   48 1   
@<TRIPOS>SUBSTRUCTURE
     1 1CP         1 TEMP              0 ****  ****    0 ROOT
