@<TRIPOS>MOLECULE
1CP
   88    92     1     0     0
SMALL
bcc


@<TRIPOS>ATOM
      1 O18         0.9890   -0.0060    1.8140 o         1 1CP     -0.867800
      2 C43         2.1640    0.2470    1.4090 c         1 1CP      0.904100
      3 O28         3.1190    0.4930    2.2050 o         1 1CP     -0.867800
      4 C42         2.4130    0.2830   -0.1050 c3        1 1CP     -0.180900
      5 C41         3.7640   -0.2940   -0.4680 c3        1 1CP     -0.004600
      6 C8          4.1720   -0.0820   -1.8690 cc        1 1CP     -0.104800
      7 C7          4.6600    1.1410   -2.4490 cc        1 1CP     -0.142300
      8 C7A         4.7510    2.4430   -1.7860 c3        1 1CP     -0.023800
      9 C9          4.2510   -1.0700   -2.8740 cd        1 1CP     -0.139100
     10 C10         3.8750   -2.4940   -2.7310 c3        1 1CP      0.061200
     11 N22         4.7690   -0.4860   -4.0320 na        1 1CP     -0.177600
     12 C6          5.0360    0.8600   -3.7800 cd        1 1CP     -0.130100
     13 C5          5.6710    1.7920   -4.7410 c3        1 1CP      0.061200
     14 C4          5.0510    1.8670   -6.0830 cc        1 1CP     -0.139100
     15 N21         5.0650    0.8010   -6.9940 na        1 1CP     -0.177600
     16 C3          4.3980    2.9600   -6.6870 cd        1 1CP     -0.104800
     17 C31         4.1530    4.2990   -6.1190 c3        1 1CP     -0.004600
     18 C32         5.1270    5.3390   -6.6390 c3        1 1CP     -0.180900
     19 C33         4.6310    6.7760   -6.4280 c         1 1CP      0.904100
     20 O23         3.4320    7.0680   -6.7150 o         1 1CP     -0.867800
     21 O13         5.4640    7.6370   -6.0090 o         1 1CP     -0.867800
     22 C2          4.0170    2.5390   -8.0130 cd        1 1CP     -0.142300
     23 C2A         3.3030    3.3480   -9.0030 c3        1 1CP     -0.023800
     24 C1          4.4600    1.2130   -8.1830 cc        1 1CP     -0.130100
     25 C20         4.3910    0.4050   -9.4200 c3        1 1CP      0.061200
     26 C19         4.0160   -1.0190   -9.2770 cc        1 1CP     -0.139100
     27 N24         3.4980   -1.6040   -8.1200 na        1 1CP     -0.177600
     28 C18         4.0940   -2.0070  -10.2830 cd        1 1CP     -0.104800
     29 C61         4.5020   -1.7960  -11.6840 c3        1 1CP     -0.004600
     30 C62         5.8530   -2.3730  -12.0470 c3        1 1CP     -0.180900
     31 C63         6.1020   -2.3370  -13.5620 c         1 1CP      0.904100
     32 O1R         7.2770   -2.0840  -13.9670 o         1 1CP     -0.867800
     33 O2R         5.1460   -2.5830  -14.3570 o         1 1CP     -0.867800
     34 C17         3.6060   -3.2310   -9.7030 cd        1 1CP     -0.142300
     35 C86         3.5150   -4.5330  -10.3660 c3        1 1CP     -0.023800
     36 C16         3.2310   -2.9500   -8.3720 cc        1 1CP     -0.130100
     37 C15         2.5960   -3.8820   -7.4110 c3        1 1CP      0.061200
     38 C14         3.2160   -3.9570   -6.0680 cc        1 1CP     -0.139100
     39 N23         3.2020   -2.8910   -5.1570 na        1 1CP     -0.177600
     40 C11         3.8060   -3.3030   -3.9690 cc        1 1CP     -0.130100
     41 C12         4.2500   -4.6290   -4.1390 cd        1 1CP     -0.142300
     42 C81         4.9640   -5.4380   -3.1490 c3        1 1CP     -0.023800
     43 C13         3.8690   -5.0500   -5.4650 cd        1 1CP     -0.104800
     44 C91         4.1140   -6.3890   -6.0330 c3        1 1CP     -0.004600
     45 C92         3.1410   -7.4290   -5.5130 c3        1 1CP     -0.180900
     46 C53         3.6360   -8.8660   -5.7240 c         1 1CP      0.904100
     47 O2M         4.8350   -9.1580   -5.4370 o         1 1CP     -0.867800
     48 O1M         2.8040   -9.7270   -6.1430 o         1 1CP     -0.867800
     49 H421        2.3540    1.3510   -0.4350 hc        1 1CP      0.026450
     50 H422        1.5980   -0.2800   -0.6260 hc        1 1CP      0.026450
     51 H411        3.7570   -1.3960   -0.2480 hc        1 1CP      0.048200
     52 H412        4.5320    0.1720    0.2130 hc        1 1CP      0.048200
     53 H7A1        4.1580    3.2120   -2.3440 hc        1 1CP      0.037200
     54 H7A2        5.8140    2.7930   -1.7430 hc        1 1CP      0.037200
     55 H7A3        4.3560    2.3770   -0.7410 hc        1 1CP      0.037200
     56 H101        4.6190   -2.9890   -2.0430 hc        1 1CP      0.063200
     57 H102        2.8730   -2.5340   -2.2140 hc        1 1CP      0.063200
     58 H22         5.0070   -0.9750   -4.8520 hn        1 1CP      0.287200
     59 H51         6.7590    1.5150   -4.8490 hc        1 1CP      0.063200
     60 H52         5.6320    2.8240   -4.2870 hc        1 1CP      0.063200
     61 H21         5.5880   -0.0280   -6.8930 hn        1 1CP      0.287200
     62 H311        3.1100    4.6330   -6.3820 hc        1 1CP      0.048200
     63 H312        4.2120    4.2600   -4.9980 hc        1 1CP      0.048200
     64 H321        5.2730    5.1980   -7.7410 hc        1 1CP      0.026450
     65 H322        6.1220    5.2150   -6.1430 hc        1 1CP      0.026450
     66 H2A1        3.1910    4.4020   -8.6390 hc        1 1CP      0.037200
     67 H2A2        3.8570    3.3640   -9.9750 hc        1 1CP      0.037200
     68 H2A3        2.2840    2.9260   -9.1950 hc        1 1CP      0.037200
     69 H201        3.6470    0.9000  -10.1090 hc        1 1CP      0.063200
     70 H202        5.3940    0.4440   -9.9380 hc        1 1CP      0.063200
     71 H24         3.2600   -1.1150   -7.2990 hn        1 1CP      0.287200
     72 H611        4.5090   -0.6930  -11.9040 hc        1 1CP      0.048200
     73 H612        3.7340   -2.2610  -12.3650 hc        1 1CP      0.048200
     74 H621        5.9120   -3.4410  -11.7170 hc        1 1CP      0.026450
     75 H622        6.6680   -1.8100  -11.5260 hc        1 1CP      0.026450
     76 H861        3.9100   -4.4670  -11.4120 hc        1 1CP      0.037200
     77 H862        2.4530   -4.8830  -10.4080 hc        1 1CP      0.037200
     78 H863        4.1090   -5.3020   -9.8080 hc        1 1CP      0.037200
     79 H151        1.5080   -3.6050   -7.3030 hc        1 1CP      0.063200
     80 H152        2.6350   -4.9140   -7.8640 hc        1 1CP      0.063200
     81 H23         2.6790   -2.0620   -5.2580 hn        1 1CP      0.287200
     82 H811        4.4100   -5.4540   -2.1770 hc        1 1CP      0.037200
     83 H812        5.9830   -5.0150   -2.9560 hc        1 1CP      0.037200
     84 H813        5.0760   -6.4910   -3.5130 hc        1 1CP      0.037200
     85 H911        4.0550   -6.3500   -7.1540 hc        1 1CP      0.048200
     86 H912        5.1570   -6.7220   -5.7700 hc        1 1CP      0.048200
     87 H921        2.1460   -7.3050   -6.0090 hc        1 1CP      0.026450
     88 H922        2.9940   -7.2880   -4.4110 hc        1 1CP      0.026450
@<TRIPOS>BOND
     1    1    2 1   
     2    2    3 1   
     3    2    4 1   
     4    4    5 1   
     5    4   49 1   
     6    4   50 1   
     7    5    6 1   
     8    5   51 1   
     9    5   52 1   
    10    6    7 1   
    11    6    9 2   
    12    7    8 1   
    13    7   12 2   
    14    8   53 1   
    15    8   54 1   
    16    8   55 1   
    17    9   10 1   
    18    9   11 1   
    19   10   40 1   
    20   10   56 1   
    21   10   57 1   
    22   11   12 1   
    23   11   58 1   
    24   12   13 1   
    25   13   14 1   
    26   13   59 1   
    27   13   60 1   
    28   14   15 1   
    29   14   16 2   
    30   15   24 1   
    31   15   61 1   
    32   16   17 1   
    33   16   22 1   
    34   17   18 1   
    35   17   62 1   
    36   17   63 1   
    37   18   19 1   
    38   18   64 1   
    39   18   65 1   
    40   19   20 1   
    41   19   21 1   
    42   22   23 1   
    43   22   24 2   
    44   23   66 1   
    45   23   67 1   
    46   23   68 1   
    47   24   25 1   
    48   25   26 1   
    49   25   69 1   
    50   25   70 1   
    51   26   27 1   
    52   26   28 2   
    53   27   36 1   
    54   27   71 1   
    55   28   29 1   
    56   28   34 1   
    57   29   30 1   
    58   29   72 1   
    59   29   73 1   
    60   30   31 1   
    61   30   74 1   
    62   30   75 1   
    63   31   32 1   
    64   31   33 1   
    65   34   35 1   
    66   34   36 2   
    67   35   76 1   
    68   35   77 1   
    69   35   78 1   
    70   36   37 1   
    71   37   38 1   
    72   37   79 1   
    73   37   80 1   
    74   38   39 1   
    75   38   43 2   
    76   39   40 1   
    77   39   81 1   
    78   40   41 2   
    79   41   42 1   
    80   41   43 1   
    81   42   82 1   
    82   42   83 1   
    83   42   84 1   
    84   43   44 1   
    85   44   45 1   
    86   44   85 1   
    87   44   86 1   
    88   45   46 1   
    89   45   87 1   
    90   45   88 1   
    91   46   47 1   
    92   46   48 1   
@<TRIPOS>SUBSTRUCTURE
     1 1CP         1 TEMP              0 ****  ****    0 ROOT
