@<TRIPOS>MOLECULE
1CP
   88    92     1     0     0
SMALL
bcc


@<TRIPOS>ATOM
      1 O18        -2.9530   -4.3900    6.9510 o         1 1CP     -0.867800
      2 C43        -2.0840   -4.4450    6.0270 c         1 1CP      0.903100
      3 O28        -1.5810   -5.5380    5.6300 o         1 1CP     -0.867800
      4 C42        -1.6060   -3.1240    5.4100 c3        1 1CP     -0.180900
      5 C41        -1.4370   -3.2130    3.9070 c3        1 1CP     -0.002100
      6 C8         -0.7140   -2.0620    3.3350 cc        1 1CP     -0.114300
      7 C7          0.6940   -1.7930    3.4820 cc        1 1CP     -0.141800
      8 C7A         1.6550   -2.6090    4.2270 c3        1 1CP     -0.020300
      9 C9         -1.2460   -1.0240    2.5390 cd        1 1CP     -0.138100
     10 C10        -2.6570   -0.8290    2.1350 c3        1 1CP      0.062700
     11 N22        -0.2090   -0.1500    2.2010 na        1 1CP     -0.169100
     12 C6          0.9740   -0.6000    2.7860 cd        1 1CP     -0.141600
     13 C5          2.2640    0.1230    2.7080 c3        1 1CP      0.062700
     14 C4          2.8090    0.3280    1.3460 cc        1 1CP     -0.138100
     15 N21         2.2360   -0.1820    0.1790 na        1 1CP     -0.169100
     16 C3          3.9700    1.0520    0.9990 cd        1 1CP     -0.114300
     17 C31         4.9150    1.6950    1.9290 c3        1 1CP     -0.002100
     18 C32         5.0320    3.1960    1.7740 c3        1 1CP     -0.180900
     19 C33         6.2810    3.7520    2.4740 c         1 1CP      0.903100
     20 O23         7.3810    3.1290    2.3710 o         1 1CP     -0.867800
     21 O13         6.1730    4.8420    3.1120 o         1 1CP     -0.867800
     22 C2          4.1040    0.9600   -0.4320 cd        1 1CP     -0.141800
     23 C2A         5.1650    1.5650   -1.2400 c3        1 1CP     -0.020300
     24 C1          3.0300    0.1790   -0.9100 cc        1 1CP     -0.141600
     25 C20         2.7970   -0.2600   -2.3040 c3        1 1CP      0.062700
     26 C19         1.3850   -0.3280   -2.7430 cc        1 1CP     -0.138100
     27 N24         0.3570    0.4360   -2.1850 na        1 1CP     -0.169100
     28 C18         0.8440   -1.1140   -3.7840 cd        1 1CP     -0.114300
     29 C61         1.5560   -2.0810   -4.6400 c3        1 1CP     -0.002100
     30 C62         1.7280   -1.6000   -6.0670 c3        1 1CP     -0.180900
     31 C63         2.1950   -2.7160   -7.0120 c         1 1CP      0.903100
     32 O1R         3.0650   -2.4280   -7.8890 o         1 1CP     -0.867800
     33 O2R         1.6800   -3.8700   -6.9160 o         1 1CP     -0.867800
     34 C17        -0.5600   -0.8020   -3.8540 cd        1 1CP     -0.141800
     35 C86        -1.5280   -1.3830   -4.7860 c3        1 1CP     -0.020300
     36 C16        -0.8300    0.1680   -2.8670 cc        1 1CP     -0.141600
     37 C15        -2.1130    0.8570   -2.5990 c3        1 1CP      0.062700
     38 C14        -2.6580    0.7010   -1.2310 cc        1 1CP     -0.138100
     39 N23        -2.0910   -0.1040   -0.2400 na        1 1CP     -0.169100
     40 C11        -2.8840   -0.0350    0.9060 cc        1 1CP     -0.141600
     41 C12        -3.9490    0.8540    0.6530 cd        1 1CP     -0.141800
     42 C81        -5.0050    1.2360    1.5930 c3        1 1CP     -0.020300
     43 C13        -3.8130    1.3190   -0.7030 cd        1 1CP     -0.114300
     44 C91        -4.7500    2.1940   -1.4300 c3        1 1CP     -0.002100
     45 C92        -4.8520    3.6020   -0.8840 c3        1 1CP     -0.180900
     46 C53        -6.0950    4.3340   -1.4110 c         1 1CP      0.903100
     47 O2M        -7.2010    3.7170   -1.4750 o         1 1CP     -0.867800
     48 O1M        -5.9760    5.5530   -1.7390 o         1 1CP     -0.867800
     49 H421       -0.6220   -2.8680    5.8820 hc        1 1CP      0.025950
     50 H422       -2.3310   -2.3130    5.6700 hc        1 1CP      0.025950
     51 H411       -2.4490   -3.3040    3.4290 hc        1 1CP      0.046450
     52 H412       -0.8750   -4.1620    3.6740 hc        1 1CP      0.046450
     53 H7A1        1.9650   -2.0870    5.1680 hc        1 1CP      0.035367
     54 H7A2        1.1980   -3.5920    4.5060 hc        1 1CP      0.035367
     55 H7A3        2.5750   -2.7980    3.6180 hc        1 1CP      0.035367
     56 H101       -3.2050   -0.3210    2.9790 hc        1 1CP      0.064700
     57 H102       -3.1240   -1.8470    2.0010 hc        1 1CP      0.064700
     58 H22        -0.3230    0.7120    1.7330 hn        1 1CP      0.299200
     59 H51         2.1610    1.1330    3.1980 hc        1 1CP      0.064700
     60 H52         3.0210   -0.4600    3.3070 hc        1 1CP      0.064700
     61 H21         1.4950   -0.8330    0.1480 hn        1 1CP      0.299200
     62 H311        4.6140    1.4600    2.9860 hc        1 1CP      0.046450
     63 H312        5.9400    1.2520    1.7700 hc        1 1CP      0.046450
     64 H321        5.1070    3.4600    0.6870 hc        1 1CP      0.025950
     65 H322        4.1230    3.7020    2.1860 hc        1 1CP      0.025950
     66 H2A1        4.8140    2.5300   -1.6870 hc        1 1CP      0.035367
     67 H2A2        6.0600    1.7820   -0.6030 hc        1 1CP      0.035367
     68 H2A3        5.4700    0.8860   -2.0750 hc        1 1CP      0.035367
     69 H201        3.3520    0.4470   -2.9860 hc        1 1CP      0.064700
     70 H202        3.2550   -1.2820   -2.4440 hc        1 1CP      0.064700
     71 H24         0.4780    1.1430   -1.5070 hn        1 1CP      0.299200
     72 H611        2.5670   -2.3050   -4.2050 hc        1 1CP      0.046450
     73 H612        0.9860   -3.0520   -4.6650 hc        1 1CP      0.046450
     74 H621        0.7480   -1.2190   -6.4530 hc        1 1CP      0.025950
     75 H622        2.4620   -0.7560   -6.1050 hc        1 1CP      0.025950
     76 H861       -1.8320   -0.6290   -5.5560 hc        1 1CP      0.035367
     77 H862       -1.0810   -2.2630   -5.3150 hc        1 1CP      0.035367
     78 H863       -2.4510   -1.7180   -4.2470 hc        1 1CP      0.035367
     79 H151       -2.0000    1.9600   -2.8060 hc        1 1CP      0.064700
     80 H152       -2.8740    0.4600   -3.3300 hc        1 1CP      0.064700
     81 H23        -1.3560   -0.7470   -0.3830 hn        1 1CP      0.299200
     82 H811       -4.6450    2.0450    2.2780 hc        1 1CP      0.035367
     83 H812       -5.8970    1.6210    1.0370 hc        1 1CP      0.035367
     84 H813       -5.3180    0.3630    2.2200 hc        1 1CP      0.035367
     85 H911       -4.4500    2.2420   -2.5120 hc        1 1CP      0.046450
     86 H912       -5.7790    1.7340   -1.3920 hc        1 1CP      0.046450
     87 H921       -4.9260    3.5710    0.2330 hc        1 1CP      0.025950
     88 H922       -3.9380    4.1890   -1.1490 hc        1 1CP      0.025950
@<TRIPOS>BOND
     1    1    2 1   
     2    2    3 1   
     3    2    4 1   
     4    4    5 1   
     5    4   49 1   
     6    4   50 1   
     7    5    6 1   
     8    5   51 1   
     9    5   52 1   
    10    6    7 1   
    11    6    9 2   
    12    7    8 1   
    13    7   12 2   
    14    8   53 1   
    15    8   54 1   
    16    8   55 1   
    17    9   10 1   
    18    9   11 1   
    19   10   40 1   
    20   10   56 1   
    21   10   57 1   
    22   11   12 1   
    23   11   58 1   
    24   12   13 1   
    25   13   14 1   
    26   13   59 1   
    27   13   60 1   
    28   14   15 1   
    29   14   16 2   
    30   15   24 1   
    31   15   61 1   
    32   16   17 1   
    33   16   22 1   
    34   17   18 1   
    35   17   62 1   
    36   17   63 1   
    37   18   19 1   
    38   18   64 1   
    39   18   65 1   
    40   19   20 1   
    41   19   21 1   
    42   22   23 1   
    43   22   24 2   
    44   23   66 1   
    45   23   67 1   
    46   23   68 1   
    47   24   25 1   
    48   25   26 1   
    49   25   69 1   
    50   25   70 1   
    51   26   27 1   
    52   26   28 2   
    53   27   36 1   
    54   27   71 1   
    55   28   29 1   
    56   28   34 1   
    57   29   30 1   
    58   29   72 1   
    59   29   73 1   
    60   30   31 1   
    61   30   74 1   
    62   30   75 1   
    63   31   32 1   
    64   31   33 1   
    65   34   35 1   
    66   34   36 2   
    67   35   76 1   
    68   35   77 1   
    69   35   78 1   
    70   36   37 1   
    71   37   38 1   
    72   37   79 1   
    73   37   80 1   
    74   38   39 1   
    75   38   43 2   
    76   39   40 1   
    77   39   81 1   
    78   40   41 2   
    79   41   42 1   
    80   41   43 1   
    81   42   82 1   
    82   42   83 1   
    83   42   84 1   
    84   43   44 1   
    85   44   45 1   
    86   44   85 1   
    87   44   86 1   
    88   45   46 1   
    89   45   87 1   
    90   45   88 1   
    91   46   47 1   
    92   46   48 1   
@<TRIPOS>SUBSTRUCTURE
     1 1CP         1 TEMP              0 ****  ****    0 ROOT
