@<TRIPOS>MOLECULE
1CP
   88    92     1     0     0
SMALL
bcc


@<TRIPOS>ATOM
      1 O18         0.8970    0.0080    1.7740 o         1 1CP     -0.867800
      2 C43         2.0740    0.2680    1.3810 c         1 1CP      0.904100
      3 O28         3.0190    0.5260    2.1860 o         1 1CP     -0.867800
      4 C42         2.3400    0.2980   -0.1320 c3        1 1CP     -0.180900
      5 C41         3.7010   -0.2680   -0.4760 c3        1 1CP     -0.004600
      6 C8          4.1220   -0.0610   -1.8730 cc        1 1CP     -0.104800
      7 C7          4.6060    1.1630   -2.4550 cc        1 1CP     -0.142300
      8 C7A         4.6790    2.4700   -1.7980 c3        1 1CP     -0.023800
      9 C9          4.2190   -1.0540   -2.8730 cd        1 1CP     -0.139100
     10 C10         3.8530   -2.4800   -2.7260 c3        1 1CP      0.061200
     11 N22         4.7450   -0.4710   -4.0280 na        1 1CP     -0.177600
     12 C6          4.9980    0.8780   -3.7800 cd        1 1CP     -0.130100
     13 C5          5.6360    1.8100   -4.7400 c3        1 1CP      0.061200
     14 C4          5.0290    1.8740   -6.0890 cc        1 1CP     -0.139100
     15 N21         5.0590    0.8030   -6.9940 na        1 1CP     -0.177600
     16 C3          4.3740    2.9590   -6.7040 cd        1 1CP     -0.104800
     17 C31         4.1140    4.2990   -6.1450 c3        1 1CP     -0.004600
     18 C32         5.0860    5.3430   -6.6600 c3        1 1CP     -0.180900
     19 C33         4.5790    6.7780   -6.4610 c         1 1CP      0.904100
     20 O23         3.3810    7.0600   -6.7620 o         1 1CP     -0.867800
     21 O13         5.4010    7.6460   -6.0380 o         1 1CP     -0.867800
     22 C2          4.0090    2.5290   -8.0320 cd        1 1CP     -0.142300
     23 C2A         3.2990    3.3270   -9.0320 c3        1 1CP     -0.023800
     24 C1          4.4640    1.2050   -8.1900 cc        1 1CP     -0.130100
     25 C20         4.4120    0.3900   -9.4240 c3        1 1CP      0.061200
     26 C19         4.0460   -1.0360   -9.2780 cc        1 1CP     -0.139100
     27 N24         3.5230   -1.6200   -8.1220 na        1 1CP     -0.177600
     28 C18         4.1410   -2.0280  -10.2790 cd        1 1CP     -0.104800
     29 C61         4.5580   -1.8190  -11.6770 c3        1 1CP     -0.004600
     30 C62         5.9160   -2.3890  -12.0270 c3        1 1CP     -0.180900
     31 C63         6.1770   -2.3580  -13.5400 c         1 1CP      0.904100
     32 O1R         7.3530   -2.0990  -13.9370 o         1 1CP     -0.867800
     33 O2R         5.2290   -2.6140  -14.3420 o         1 1CP     -0.867800
     34 C17         3.6570   -3.2530   -9.6970 cd        1 1CP     -0.142300
     35 C86         3.5820   -4.5580  -10.3550 c3        1 1CP     -0.023800
     36 C16         3.2690   -2.9690   -8.3700 cc        1 1CP     -0.130100
     37 C15         2.6330   -3.9020   -7.4110 c3        1 1CP      0.061200
     38 C14         3.2400   -3.9640   -6.0620 cc        1 1CP     -0.139100
     39 N23         3.2080   -2.8940   -5.1570 na        1 1CP     -0.177600
     40 C11         3.8040   -3.2950   -3.9600 cc        1 1CP     -0.130100
     41 C12         4.2610   -4.6180   -4.1190 cd        1 1CP     -0.142300
     42 C81         4.9720   -5.4150   -3.1180 c3        1 1CP     -0.023800
     43 C13         3.8970   -5.0480   -5.4470 cd        1 1CP     -0.104800
     44 C91         4.1600   -6.3890   -6.0050 c3        1 1CP     -0.004600
     45 C92         3.1910   -7.4350   -5.4880 c3        1 1CP     -0.180900
     46 C53         3.7030   -8.8680   -5.6870 c         1 1CP      0.904100
     47 O2M         4.9020   -9.1470   -5.3860 o         1 1CP     -0.867800
     48 O1M         2.8830   -9.7390   -6.1080 o         1 1CP     -0.867800
     49 H421        2.2750    1.3650   -0.4680 hc        1 1CP      0.026450
     50 H422        1.5360   -0.2740   -0.6580 hc        1 1CP      0.026450
     51 H411        3.7010   -1.3690   -0.2490 hc        1 1CP      0.048200
     52 H412        4.4560    0.2090    0.2100 hc        1 1CP      0.048200
     53 H7A1        4.0890    3.2320   -2.3690 hc        1 1CP      0.037117
     54 H7A2        5.7390    2.8270   -1.7440 hc        1 1CP      0.037117
     55 H7A3        4.2710    2.4070   -0.7580 hc        1 1CP      0.037117
     56 H101        4.5940   -2.9650   -2.0270 hc        1 1CP      0.063200
     57 H102        2.8460   -2.5240   -2.2190 hc        1 1CP      0.063200
     58 H22         4.9950   -0.9630   -4.8430 hn        1 1CP      0.287200
     59 H51         6.7270    1.5400   -4.8350 hc        1 1CP      0.063200
     60 H52         5.5860    2.8440   -4.2920 hc        1 1CP      0.063200
     61 H21         5.5870   -0.0210   -6.8840 hn        1 1CP      0.287200
     62 H311        3.0720    4.6240   -6.4210 hc        1 1CP      0.048200
     63 H312        4.1620    4.2660   -5.0240 hc        1 1CP      0.048200
     64 H321        5.2440    5.1980   -7.7600 hc        1 1CP      0.026450
     65 H322        6.0770    5.2280   -6.1540 hc        1 1CP      0.026450
     66 H2A1        3.1770    4.3820   -8.6760 hc        1 1CP      0.037117
     67 H2A2        3.8610    3.3410  -10.0000 hc        1 1CP      0.037117
     68 H2A3        2.2840    2.8970   -9.2310 hc        1 1CP      0.037117
     69 H201        3.6710    0.8760  -10.1220 hc        1 1CP      0.063200
     70 H202        5.4190    0.4340   -9.9320 hc        1 1CP      0.063200
     71 H24         3.2740   -1.1290   -7.3060 hn        1 1CP      0.287200
     72 H611        4.5600   -0.7180  -11.9020 hc        1 1CP      0.048200
     73 H612        3.7990   -2.2930  -12.3620 hc        1 1CP      0.048200
     74 H621        5.9800   -3.4560  -11.6920 hc        1 1CP      0.026450
     75 H622        6.7230   -1.8190  -11.5020 hc        1 1CP      0.026450
     76 H861        3.9820   -4.4930  -11.3990 hc        1 1CP      0.037117
     77 H862        2.5230   -4.9180  -10.4020 hc        1 1CP      0.037117
     78 H863        4.1790   -5.3190   -9.7910 hc        1 1CP      0.037117
     79 H151        1.5420   -3.6340   -7.3150 hc        1 1CP      0.063200
     80 H152        2.6850   -4.9360   -7.8590 hc        1 1CP      0.063200
     81 H23         2.6790   -2.0710   -5.2670 hn        1 1CP      0.287200
     82 H811        4.4070   -5.4340   -2.1520 hc        1 1CP      0.037117
     83 H812        5.9840   -4.9820   -2.9150 hc        1 1CP      0.037117
     84 H813        5.0990   -6.4690   -3.4760 hc        1 1CP      0.037117
     85 H911        4.1100   -6.3560   -7.1270 hc        1 1CP      0.048200
     86 H912        5.2030   -6.7100   -5.7310 hc        1 1CP      0.048200
     87 H921        2.2000   -7.3240   -5.9940 hc        1 1CP      0.026450
     88 H922        3.0330   -7.2890   -4.3880 hc        1 1CP      0.026450
@<TRIPOS>BOND
     1    1    2 1   
     2    2    3 1   
     3    2    4 1   
     4    4    5 1   
     5    4   49 1   
     6    4   50 1   
     7    5    6 1   
     8    5   51 1   
     9    5   52 1   
    10    6    7 1   
    11    6    9 2   
    12    7    8 1   
    13    7   12 2   
    14    8   53 1   
    15    8   54 1   
    16    8   55 1   
    17    9   10 1   
    18    9   11 1   
    19   10   40 1   
    20   10   56 1   
    21   10   57 1   
    22   11   12 1   
    23   11   58 1   
    24   12   13 1   
    25   13   14 1   
    26   13   59 1   
    27   13   60 1   
    28   14   15 1   
    29   14   16 2   
    30   15   24 1   
    31   15   61 1   
    32   16   17 1   
    33   16   22 1   
    34   17   18 1   
    35   17   62 1   
    36   17   63 1   
    37   18   19 1   
    38   18   64 1   
    39   18   65 1   
    40   19   20 1   
    41   19   21 1   
    42   22   23 1   
    43   22   24 2   
    44   23   66 1   
    45   23   67 1   
    46   23   68 1   
    47   24   25 1   
    48   25   26 1   
    49   25   69 1   
    50   25   70 1   
    51   26   27 1   
    52   26   28 2   
    53   27   36 1   
    54   27   71 1   
    55   28   29 1   
    56   28   34 1   
    57   29   30 1   
    58   29   72 1   
    59   29   73 1   
    60   30   31 1   
    61   30   74 1   
    62   30   75 1   
    63   31   32 1   
    64   31   33 1   
    65   34   35 1   
    66   34   36 2   
    67   35   76 1   
    68   35   77 1   
    69   35   78 1   
    70   36   37 1   
    71   37   38 1   
    72   37   79 1   
    73   37   80 1   
    74   38   39 1   
    75   38   43 2   
    76   39   40 1   
    77   39   81 1   
    78   40   41 2   
    79   41   42 1   
    80   41   43 1   
    81   42   82 1   
    82   42   83 1   
    83   42   84 1   
    84   43   44 1   
    85   44   45 1   
    86   44   85 1   
    87   44   86 1   
    88   45   46 1   
    89   45   87 1   
    90   45   88 1   
    91   46   47 1   
    92   46   48 1   
@<TRIPOS>SUBSTRUCTURE
     1 1CP         1 TEMP              0 ****  ****    0 ROOT
