@<TRIPOS>MOLECULE
1CQ
   44    47     1     0     0
SMALL
bcc


@<TRIPOS>ATOM
      1 CAO        -0.1480    0.2350    0.0320 ca        1 1CQ     -0.088500
      2 CAP         1.2270    0.2790   -0.1620 ca        1 1CQ     -0.186000
      3 CAQ         2.0780    0.1290    0.9460 ca        1 1CQ      0.123100
      4 OAY         3.4290    0.1790    0.6930 oh        1 1CQ     -0.497100
      5 CAR         1.5540   -0.0630    2.2310 ca        1 1CQ     -0.186000
      6 CAS         0.1730   -0.1040    2.4070 ca        1 1CQ     -0.088500
      7 CAF        -0.6910    0.0420    1.3130 ca        1 1CQ     -0.036000
      8 CAB        -2.1210    0.0210    1.4960 cc        1 1CQ     -0.234300
      9 CAC        -2.9550   -1.0070    1.9800 cd        1 1CQ     -0.007300
     10 CAG        -2.6410   -2.3590    2.4040 ca        1 1CQ     -0.070000
     11 CAT        -1.6420   -3.0820    1.7360 ca        1 1CQ     -0.073500
     12 CAU        -1.3330   -4.3810    2.1230 ca        1 1CQ     -0.187000
     13 CAV        -2.0300   -4.9660    3.1910 ca        1 1CQ      0.135100
     14 OAZ        -1.7830   -6.2450    3.6290 oh        1 1CQ     -0.494100
     15 CAW        -3.0300   -4.2520    3.8730 ca        1 1CQ     -0.187000
     16 CAX        -3.3270   -2.9550    3.4740 ca        1 1CQ     -0.073500
     17 NAD        -4.2550   -0.4870    1.9740 na        1 1CQ     -0.015600
     18 NAE        -4.3250    0.7630    1.5170 nd        1 1CQ     -0.545800
     19 CAA        -3.0330    1.1380    1.2160 cc        1 1CQ      0.531200
     20 NAH        -2.5910    2.4020    0.8060 nu        1 1CQ     -0.676300
     21 CAI        -3.4770    3.2940    0.1500 ca        1 1CQ      0.088600
     22 CAJ        -4.6740    3.7140    0.7650 ca        1 1CQ     -0.112000
     23 CAK        -5.4890    4.6570    0.1490 ca        1 1CQ     -0.168000
     24 CAL        -5.1150    5.2050   -1.0840 ca        1 1CQ      0.105100
     25 OBA        -5.8750    6.1440   -1.7460 oh        1 1CQ     -0.499100
     26 CAM        -3.9230    4.8080   -1.7080 ca        1 1CQ     -0.168000
     27 CAN        -3.1180    3.8570   -1.0960 ca        1 1CQ     -0.112000
     28 H1         -0.8210    0.3440   -0.8330 ha        1 1CQ      0.140500
     29 H2          1.6590    0.4280   -1.1620 ha        1 1CQ      0.143500
     30 H3          3.8940    0.0870    1.5380 ho        1 1CQ      0.420000
     31 H4          2.2260   -0.1770    3.0930 ha        1 1CQ      0.143500
     32 H5         -0.2450   -0.2490    3.4150 ha        1 1CQ      0.140500
     33 H6         -1.0970   -2.6090    0.9030 ha        1 1CQ      0.144000
     34 H7         -0.5490   -4.9440    1.5970 ha        1 1CQ      0.146500
     35 H8         -1.0770   -6.6190    3.0800 ho        1 1CQ      0.422000
     36 H9         -3.5600   -4.7270    4.7100 ha        1 1CQ      0.146500
     37 H10        -4.1010   -2.3920    4.0180 ha        1 1CQ      0.144000
     38 H11        -5.0870   -0.9770    2.2050 hn        1 1CQ      0.323700
     39 H12        -1.6940    2.3380    0.3600 hn        1 1CQ      0.414800
     40 H13        -4.9760    3.3030    1.7420 ha        1 1CQ      0.144000
     41 H14        -6.4230    4.9740    0.6350 ha        1 1CQ      0.142000
     42 H15        -6.6580    6.3240   -1.2060 ho        1 1CQ      0.418000
     43 H16        -3.6420    5.2500   -2.6740 ha        1 1CQ      0.142000
     44 H17        -2.1850    3.5530   -1.5960 ha        1 1CQ      0.144000
@<TRIPOS>BOND
     1    1    2 ar  
     2    1    7 ar  
     3    1   28 1   
     4    2    3 ar  
     5    2   29 1   
     6    3    4 1   
     7    3    5 ar  
     8    4   30 1   
     9    5    6 ar  
    10    5   31 1   
    11    6    7 ar  
    12    6   32 1   
    13    7    8 1   
    14    8    9 2   
    15    8   19 1   
    16    9   10 1   
    17    9   17 1   
    18   10   11 ar  
    19   10   16 ar  
    20   11   12 ar  
    21   11   33 1   
    22   12   13 ar  
    23   12   34 1   
    24   13   14 1   
    25   13   15 ar  
    26   14   35 1   
    27   15   16 ar  
    28   15   36 1   
    29   16   37 1   
    30   17   18 1   
    31   17   38 1   
    32   18   19 2   
    33   19   20 1   
    34   20   21 1   
    35   20   39 1   
    36   21   22 ar  
    37   21   27 ar  
    38   22   23 ar  
    39   22   40 1   
    40   23   24 ar  
    41   23   41 1   
    42   24   25 1   
    43   24   26 ar  
    44   25   42 1   
    45   26   27 ar  
    46   26   43 1   
    47   27   44 1   
@<TRIPOS>SUBSTRUCTURE
     1 1CQ         1 TEMP              0 ****  ****    0 ROOT
