@<TRIPOS>MOLECULE
1CQ
   44    47     1     0     0
SMALL
bcc


@<TRIPOS>ATOM
      1 CAO         0.4300   -2.1590    0.7990 ca        1 1CQ     -0.088500
      2 CAP         0.8840   -3.4730    0.8140 ca        1 1CQ     -0.186000
      3 CAQ         1.7340   -3.9130   -0.2150 ca        1 1CQ      0.123100
      4 OAY         2.1530   -5.2210   -0.1470 oh        1 1CQ     -0.497100
      5 CAR         2.1220   -3.0440   -1.2440 ca        1 1CQ     -0.186000
      6 CAS         1.6570   -1.7320   -1.2430 ca        1 1CQ     -0.088500
      7 CAF         0.8100   -1.2750   -0.2240 ca        1 1CQ     -0.036000
      8 CAB         0.3110    0.0770   -0.2320 cc        1 1CQ     -0.234300
      9 CAC         1.0110    1.3000   -0.1590 cd        1 1CQ     -0.007300
     10 CAG         2.4290    1.5700   -0.0180 ca        1 1CQ     -0.070000
     11 CAT         3.2200    0.7320    0.7820 ca        1 1CQ     -0.073500
     12 CAU         4.5800    0.9800    0.9360 ca        1 1CQ     -0.187000
     13 CAV         5.1570    2.0790    0.2840 ca        1 1CQ      0.135100
     14 OAZ         6.4910    2.3900    0.3890 oh        1 1CQ     -0.494100
     15 CAW         4.3780    2.9250   -0.5250 ca        1 1CQ     -0.187000
     16 CAX         3.0210    2.6640   -0.6680 ca        1 1CQ     -0.073500
     17 NAD         0.0410    2.3070   -0.2340 na        1 1CQ     -0.015600
     18 NAE        -1.2040    1.8400   -0.3290 nd        1 1CQ     -0.545800
     19 CAA        -1.1010    0.4650   -0.3450 cc        1 1CQ      0.531200
     20 NAH        -2.1340   -0.4600   -0.5420 nh        1 1CQ     -0.676300
     21 CAI        -3.4730   -0.1180   -0.2250 ca        1 1CQ      0.088600
     22 CAJ        -4.1050    0.9880   -0.8290 ca        1 1CQ     -0.112000
     23 CAK        -5.4460    1.2570   -0.5760 ca        1 1CQ     -0.168000
     24 CAL        -6.1780    0.4210    0.2750 ca        1 1CQ      0.105100
     25 OBA        -7.5080    0.6310    0.5650 oh        1 1CQ     -0.499100
     26 CAM        -5.5710   -0.6900    0.8790 ca        1 1CQ     -0.168000
     27 CAN        -4.2300   -0.9500    0.6330 ca        1 1CQ     -0.112000
     28 H1         -0.2300   -1.8050    1.6060 ha        1 1CQ      0.140500
     29 H2          0.5920   -4.1690    1.6120 ha        1 1CQ      0.143500
     30 H3          2.7070   -5.3970   -0.9210 ho        1 1CQ      0.420000
     31 H4          2.7850   -3.3970   -2.0470 ha        1 1CQ      0.143500
     32 H5          1.9540   -1.0470   -2.0520 ha        1 1CQ      0.140500
     33 H6          2.7560   -0.1330    1.2850 ha        1 1CQ      0.144000
     34 H7          5.1950    0.3210    1.5640 ha        1 1CQ      0.146500
     35 H8          6.9070    1.7340    0.9670 ho        1 1CQ      0.422000
     36 H9          4.8520    3.7770   -1.0320 ha        1 1CQ      0.146500
     37 H10         2.4150    3.3190   -1.3130 ha        1 1CQ      0.144000
     38 H11         0.1990    3.2830   -0.1540 hn        1 1CQ      0.323700
     39 H12        -1.8680   -1.3680   -0.2060 hn        1 1CQ      0.414800
     40 H13        -3.5470    1.6470   -1.5120 ha        1 1CQ      0.144000
     41 H14        -5.9270    2.1250   -1.0490 ha        1 1CQ      0.142000
     42 H15        -7.7950    1.4210    0.0850 ho        1 1CQ      0.418000
     43 H16        -6.1610   -1.3390    1.5410 ha        1 1CQ      0.142000
     44 H17        -3.7640   -1.8240    1.1140 ha        1 1CQ      0.144000
@<TRIPOS>BOND
     1    1    2 ar  
     2    1    7 ar  
     3    1   28 1   
     4    2    3 ar  
     5    2   29 1   
     6    3    4 1   
     7    3    5 ar  
     8    4   30 1   
     9    5    6 ar  
    10    5   31 1   
    11    6    7 ar  
    12    6   32 1   
    13    7    8 1   
    14    8    9 2   
    15    8   19 1   
    16    9   10 1   
    17    9   17 1   
    18   10   11 ar  
    19   10   16 ar  
    20   11   12 ar  
    21   11   33 1   
    22   12   13 ar  
    23   12   34 1   
    24   13   14 1   
    25   13   15 ar  
    26   14   35 1   
    27   15   16 ar  
    28   15   36 1   
    29   16   37 1   
    30   17   18 1   
    31   17   38 1   
    32   18   19 2   
    33   19   20 1   
    34   20   21 1   
    35   20   39 1   
    36   21   22 ar  
    37   21   27 ar  
    38   22   23 ar  
    39   22   40 1   
    40   23   24 ar  
    41   23   41 1   
    42   24   25 1   
    43   24   26 ar  
    44   25   42 1   
    45   26   27 ar  
    46   26   43 1   
    47   27   44 1   
@<TRIPOS>SUBSTRUCTURE
     1 1CQ         1 TEMP              0 ****  ****    0 ROOT
