@<TRIPOS>MOLECULE
1CQ
   45    48     1     0     0
SMALL
bcc


@<TRIPOS>ATOM
      1 CAO        -0.3230    0.6530    0.1650 ca        1 1CQ     -0.084500
      2 CAP         1.0200    0.7060   -0.1760 ca        1 1CQ     -0.183000
      3 CAQ         1.9860    0.3460    0.7840 ca        1 1CQ      0.159100
      4 OAY         3.2930    0.4290    0.3870 oh        1 1CQ     -0.477100
      5 CAR         1.5990   -0.0680    2.0680 ca        1 1CQ     -0.183000
      6 CAS         0.2470   -0.1170    2.3920 ca        1 1CQ     -0.084500
      7 CAF        -0.7250    0.2490    1.4500 ca        1 1CQ     -0.111000
      8 CAB        -2.1250    0.2210    1.7920 cc        1 1CQ     -0.147300
      9 CAC        -2.9540   -0.8390    2.2250 cd        1 1CQ      0.031700
     10 CAG        -2.6790   -2.2460    2.4220 ca        1 1CQ     -0.122000
     11 CAT        -1.8620   -2.9300    1.5100 ca        1 1CQ     -0.057500
     12 CAU        -1.5970   -4.2840    1.6810 ca        1 1CQ     -0.186500
     13 CAV        -2.1540   -4.9630    2.7780 ca        1 1CQ      0.169100
     14 OAZ        -1.9430   -6.2930    3.0170 oh        1 1CQ     -0.476100
     15 CAW        -2.9720   -4.2850    3.7030 ca        1 1CQ     -0.186500
     16 CAX        -3.2290   -2.9350    3.5180 ca        1 1CQ     -0.057500
     17 NAD        -4.2270   -0.2710    2.4390 na        1 1CQ      0.027400
     18 NAE        -4.2840    1.0210    2.1890 nd        1 1CQ     -0.454800
     19 CAA        -3.0110    1.3750    1.7860 cc        1 1CQ      0.317200
     20 NAH        -2.5970    2.7160    1.4200 n4        1 1CQ     -0.560100
     21 CAI        -3.4250    3.3360    0.3800 ca        1 1CQ     -0.101400
     22 CAJ        -4.6880    3.8570    0.7110 ca        1 1CQ     -0.051000
     23 CAK        -5.4560    4.4650   -0.2740 ca        1 1CQ     -0.174500
     24 CAL        -4.9700    4.5430   -1.5910 ca        1 1CQ      0.191100
     25 OBA        -5.6640    5.1220   -2.6100 oh        1 1CQ     -0.462100
     26 CAM        -3.7070    4.0080   -1.9240 ca        1 1CQ     -0.174500
     27 CAN        -2.9410    3.4020   -0.9420 ca        1 1CQ     -0.051000
     28 H1         -1.0830    0.8960   -0.5950 ha        1 1CQ      0.142000
     29 H2          1.3470    1.0090   -1.1820 ha        1 1CQ      0.161000
     30 H3          3.8590    0.1270    1.1150 ho        1 1CQ      0.437000
     31 H4          2.3570   -0.3570    2.8110 ha        1 1CQ      0.161000
     32 H5         -0.0610   -0.4500    3.3970 ha        1 1CQ      0.142000
     33 H6         -1.4270   -2.3910    0.6540 ha        1 1CQ      0.142500
     34 H7         -0.9590   -4.8190    0.9630 ha        1 1CQ      0.161500
     35 H8         -1.3760   -6.6490    2.3140 ho        1 1CQ      0.435000
     36 H9         -3.3920   -4.8360    4.5580 ha        1 1CQ      0.161500
     37 H10        -3.8580   -2.4050    4.2490 ha        1 1CQ      0.142500
     38 H11        -5.0450   -0.7580    2.7470 hn        1 1CQ      0.354700
     39 H12        -2.6250    3.3100    2.2610 hn        1 1CQ      0.467800
     40 H13        -5.0840    3.7870    1.7380 ha        1 1CQ      0.159500
     41 H14        -6.4440    4.8800   -0.0210 ha        1 1CQ      0.175500
     42 H15        -6.5130    5.4500   -2.2710 ho        1 1CQ      0.445000
     43 H16        -3.3480    4.0780   -2.9640 ha        1 1CQ      0.175500
     44 H17        -1.9580    2.9810   -1.2120 ha        1 1CQ      0.159500
     45 HAH2       -1.6210    2.6420    1.0850 hn        1 1CQ      0.467800
@<TRIPOS>BOND
     1    1    2 ar  
     2    1    7 ar  
     3    1   28 1   
     4    2    3 ar  
     5    2   29 1   
     6    3    4 1   
     7    3    5 ar  
     8    4   30 1   
     9    5    6 ar  
    10    5   31 1   
    11    6    7 ar  
    12    6   32 1   
    13    7    8 1   
    14    8    9 2   
    15    8   19 1   
    16    9   10 1   
    17    9   17 1   
    18   10   11 ar  
    19   10   16 ar  
    20   11   12 ar  
    21   11   33 1   
    22   12   13 ar  
    23   12   34 1   
    24   13   14 1   
    25   13   15 ar  
    26   14   35 1   
    27   15   16 ar  
    28   15   36 1   
    29   16   37 1   
    30   17   18 1   
    31   17   38 1   
    32   18   19 2   
    33   19   20 1   
    34   20   21 1   
    35   20   39 1   
    36   20   45 1   
    37   21   22 ar  
    38   21   27 ar  
    39   22   23 ar  
    40   22   40 1   
    41   23   24 ar  
    42   23   41 1   
    43   24   25 1   
    44   24   26 ar  
    45   25   42 1   
    46   26   27 ar  
    47   26   43 1   
    48   27   44 1   
@<TRIPOS>SUBSTRUCTURE
     1 1CQ         1 TEMP              0 ****  ****    0 ROOT
