@<TRIPOS>MOLECULE
1CQ
   44    47     1     0     0
SMALL
bcc


@<TRIPOS>ATOM
      1 CAO        -0.1490    0.2340    0.0350 ca        1 1CQ     -0.088500
      2 CAP         1.2280    0.3000   -0.1390 ca        1 1CQ     -0.186000
      3 CAQ         2.0640    0.1750    0.9830 ca        1 1CQ      0.123100
      4 OAY         3.4190    0.2460    0.7500 oh        1 1CQ     -0.497100
      5 CAR         1.5240   -0.0140    2.2630 ca        1 1CQ     -0.186000
      6 CAS         0.1420   -0.0780    2.4180 ca        1 1CQ     -0.088500
      7 CAF        -0.7080    0.0430    1.3090 ca        1 1CQ     -0.036000
      8 CAB        -2.1400   -0.0020    1.4710 cc        1 1CQ     -0.233300
      9 CAC        -2.9630   -1.0400    1.9520 cd        1 1CQ     -0.007300
     10 CAG        -2.6320   -2.3820    2.3920 ca        1 1CQ     -0.070000
     11 CAT        -1.6100   -3.0930    1.7460 ca        1 1CQ     -0.073500
     12 CAU        -1.2840   -4.3840    2.1490 ca        1 1CQ     -0.187000
     13 CAV        -1.9870   -4.9710    3.2100 ca        1 1CQ      0.135100
     14 OAZ        -1.7250   -6.2420    3.6640 oh        1 1CQ     -0.494100
     15 CAW        -3.0110   -4.2700    3.8700 ca        1 1CQ     -0.187000
     16 CAX        -3.3250   -2.9820    3.4560 ca        1 1CQ     -0.073500
     17 NAD        -4.2720   -0.5430    1.9210 na        1 1CQ     -0.015600
     18 NAE        -4.3570    0.7020    1.4520 nd        1 1CQ     -0.545800
     19 CAA        -3.0670    1.0970    1.1670 cc        1 1CQ      0.531200
     20 NAH        -2.6410    2.3640    0.7530 nh        1 1CQ     -0.676300
     21 CAI        -3.5320    3.2360    0.0780 ca        1 1CQ      0.088600
     22 CAJ        -4.7450    3.6400    0.6720 ca        1 1CQ     -0.112000
     23 CAK        -5.5660    4.5650    0.0380 ca        1 1CQ     -0.168000
     24 CAL        -5.1840    5.1090   -1.1950 ca        1 1CQ      0.105100
     25 OBA        -5.9500    6.0300   -1.8750 oh        1 1CQ     -0.499100
     26 CAM        -3.9770    4.7280   -1.7990 ca        1 1CQ     -0.168000
     27 CAN        -3.1650    3.7960   -1.1680 ca        1 1CQ     -0.112000
     28 H1         -0.8110    0.3220   -0.8410 ha        1 1CQ      0.140500
     29 H2          1.6730    0.4460   -1.1330 ha        1 1CQ      0.143500
     30 H3          3.8720    0.1710    1.6030 ho        1 1CQ      0.420000
     31 H4          2.1850   -0.1080    3.1360 ha        1 1CQ      0.143500
     32 H5         -0.2890   -0.2200    3.4200 ha        1 1CQ      0.140500
     33 H6         -1.0600   -2.6180    0.9170 ha        1 1CQ      0.144000
     34 H7         -0.4820   -4.9370    1.6400 ha        1 1CQ      0.146500
     35 H8         -1.0040   -6.6080    3.1300 ho        1 1CQ      0.422000
     36 H9         -3.5460   -4.7480    4.7040 ha        1 1CQ      0.146500
     37 H10        -4.1170   -2.4280    3.9820 ha        1 1CQ      0.144000
     38 H11        -5.0980   -1.0460    2.1440 hn        1 1CQ      0.323700
     39 H12        -1.7360    2.3120    0.3200 hn        1 1CQ      0.414800
     40 H13        -5.0530    3.2320    1.6480 ha        1 1CQ      0.144000
     41 H14        -6.5130    4.8690    0.5080 ha        1 1CQ      0.142000
     42 H15        -6.7440    6.2010   -1.3480 ho        1 1CQ      0.418000
     43 H16        -3.6900    5.1670   -2.7650 ha        1 1CQ      0.142000
     44 H17        -2.2200    3.5030   -1.6520 ha        1 1CQ      0.144000
@<TRIPOS>BOND
     1    1    2 ar  
     2    1    7 ar  
     3    1   28 1   
     4    2    3 ar  
     5    2   29 1   
     6    3    4 1   
     7    3    5 ar  
     8    4   30 1   
     9    5    6 ar  
    10    5   31 1   
    11    6    7 ar  
    12    6   32 1   
    13    7    8 1   
    14    8    9 2   
    15    8   19 1   
    16    9   10 1   
    17    9   17 1   
    18   10   11 ar  
    19   10   16 ar  
    20   11   12 ar  
    21   11   33 1   
    22   12   13 ar  
    23   12   34 1   
    24   13   14 1   
    25   13   15 ar  
    26   14   35 1   
    27   15   16 ar  
    28   15   36 1   
    29   16   37 1   
    30   17   18 1   
    31   17   38 1   
    32   18   19 2   
    33   19   20 1   
    34   20   21 1   
    35   20   39 1   
    36   21   22 ar  
    37   21   27 ar  
    38   22   23 ar  
    39   22   40 1   
    40   23   24 ar  
    41   23   41 1   
    42   24   25 1   
    43   24   26 ar  
    44   25   42 1   
    45   26   27 ar  
    46   26   43 1   
    47   27   44 1   
@<TRIPOS>SUBSTRUCTURE
     1 1CQ         1 TEMP              0 ****  ****    0 ROOT
