@<TRIPOS>MOLECULE
1CQ
   44    34     1     0     0
SMALL
bcc


@<TRIPOS>ATOM
      1 CAO         2.1160   -0.1110    1.0870 c1        1 1CQ     -0.095000
      2 CAP         3.5010   -0.0780    1.1090 c1        1 1CQ     -0.160000
      3 CAQ         4.2040    0.2990   -0.0250 c1        1 1CQ      0.078000
      4 OAY         5.6080    0.3910    0.0160 o         1 1CQ     -0.251500
      5 CAR         3.5210    0.6430   -1.1810 c2        1 1CQ     -0.215000
      6 CAS         2.1350    0.6100   -1.2030 c1        1 1CQ     -0.080000
      7 CAF         1.4330    0.2330   -0.0690 c1        1 1CQ     -0.043000
      8 CAB        -0.0800    0.2630   -0.0720 c2        1 1CQ     -0.159000
      9 CAC        -0.8610    1.3680    0.1120 c1        1 1CQ      0.008000
     10 CAG        -0.3660    2.7690    0.3940 c1        1 1CQ     -0.004500
     11 CAT        -0.1970    3.6660   -0.6490 c1        1 1CQ     -0.157250
     12 CAU         0.1780    4.9740   -0.3840 c1        1 1CQ     -0.157250
     13 CAV         0.3830    5.3850    0.9230 c1        1 1CQ      0.090000
     14 OAZ         0.8010    6.7020    1.1890 oh        1 1CQ     -0.247000
     15 CAW         0.2140    4.4880    1.9660 c1        1 1CQ     -0.158000
     16 CAX        -0.1610    3.1800    1.7020 c1        1 1CQ     -0.104000
     17 NAD        -2.1520    0.9770    0.0690 n2        1 1CQ     -0.134500
     18 NAE        -2.1780   -0.3780   -0.1440 n2        1 1CQ     -0.134500
     19 CAA        -0.9040   -0.8130   -0.2300 c1        1 1CQ      0.008000
     20 NAH        -0.4920   -2.1620   -0.3960 n2        1 1CQ     -0.196000
     21 CAI        -1.4620   -3.1920   -0.5040 c1        1 1CQ      0.004000
     22 CAJ        -1.4700   -4.0220   -1.6140 c1        1 1CQ     -0.157250
     23 CAK        -2.3710   -5.0730   -1.6880 c1        1 1CQ     -0.157250
     24 CAL        -3.2640   -5.2930   -0.6510 c1        1 1CQ     -0.004500
     25 OBA        -4.2070   -6.3340   -0.7450 o         1 1CQ     -0.251500
     26 CAM        -3.2560   -4.4630    0.4590 c1        1 1CQ     -0.104000
     27 CAN        -2.3550   -3.4130    0.5320 c1        1 1CQ     -0.086000
     28 H1          1.6210   -0.3770    1.8850 ha        1 1CQ      0.151000
     29 H2          3.9830   -0.3210    1.9230 ha        1 1CQ      0.152000
     30 H3          5.9630   -0.3510   -0.3200 ho        1 1CQ      0.217000
     31 H4          4.0160    0.9090   -1.9790 ha        1 1CQ      0.135000
     32 H5          1.6540    0.8530   -2.0170 ha        1 1CQ      0.141000
     33 H6         -0.3410    3.3760   -1.5700 ha        1 1CQ      0.134250
     34 H7          0.2970    5.6050   -1.1190 ha        1 1CQ      0.134250
     35 H8          0.1860    7.2730    0.8950 ho        1 1CQ      0.221000
     36 H9          0.3590    4.7780    2.8870 ha        1 1CQ      0.157000
     37 H10        -0.2800    2.5490    2.4370 ha        1 1CQ      0.153000
     38 H11        -2.8800    1.5190    0.1650 DU        1 1CQ      0.274000
     39 H12         0.3960   -2.3670   -0.4280 hn        1 1CQ      0.208000
     40 H13        -0.8410   -3.8670   -2.3440 ha        1 1CQ      0.134250
     41 H14        -2.3760   -5.6570   -2.4690 ha        1 1CQ      0.134250
     42 H15        -3.8420   -7.0910   -0.4540 ho        1 1CQ      0.217000
     43 H16        -3.8850   -4.6190    1.1890 ha        1 1CQ      0.153000
     44 H17        -2.3500   -2.8280    1.3140 ha        1 1CQ      0.156000
@<TRIPOS>BOND
     1    1    7 1   
     2    1   28 1   
     3    2    3 1   
     4    2   29 1   
     5    3    5 1   
     6    4   30 1   
     7    5    6 1   
     8    5   31 1   
     9    6   32 1   
    10    7    8 1   
    11    8    9 1   
    12    8   19 1   
    13    9   17 1   
    14   10   16 1   
    15   11   12 1   
    16   11   33 1   
    17   12   34 1   
    18   13   14 1   
    19   13   15 1   
    20   14   35 1   
    21   15   36 1   
    22   16   37 1   
    23   17   18 1   
    24   18   19 1   
    25   20   21 1   
    26   20   39 1   
    27   21   27 1   
    28   22   23 1   
    29   22   40 1   
    30   23   41 1   
    31   24   26 1   
    32   25   42 1   
    33   26   43 1   
    34   27   44 1   
@<TRIPOS>SUBSTRUCTURE
     1 1CQ         1 TEMP              0 ****  ****    0 ROOT
