@<TRIPOS>MOLECULE
1CS
   35    36     1     0     0
SMALL
bcc


@<TRIPOS>ATOM
      1 C5'         3.2180    0.5670   -2.8400 c3        1 1CS      0.121700
      2 O4'         2.4160    0.5840   -4.0270 os        1 1CS     -0.407100
      3 C4'         1.0620    0.4050   -3.8770 ca        1 1CS      0.894300
      4 N5'         0.3890    0.3830   -5.0810 nb        1 1CS     -0.744000
      5 C6'        -0.9630    0.2100   -4.9570 ca        1 1CS      0.719300
      6 C7'        -1.7800    0.1700   -6.2270 c3        1 1CS     -0.142400
      7 N1'        -1.6430    0.0550   -3.7790 nb        1 1CS     -0.801000
      8 C2'        -0.8590    0.0920   -2.6330 ca        1 1CS      0.826900
      9 N10        -1.5430   -0.0120   -1.4060 n         1 1CS     -0.550400
     10 C9         -0.9400   -0.5040   -0.2210 c         1 1CS      0.818100
     11 O9          0.0900   -1.2010   -0.2200 o         1 1CS     -0.554100
     12 N8         -1.5740   -0.1860    0.9970 n         1 1CS     -0.672300
     13 S7         -1.2260   -0.8090    2.4920 sy        1 1CS      1.521900
     14 O7A        -2.2130   -0.2990    3.3540 o         1 1CS     -0.631300
     15 O7B        -1.1230   -2.2060    2.4470 o         1 1CS     -0.631300
     16 C2          0.2820   -0.1470    2.8640 ca        1 1CS     -0.376500
     17 C3          1.3320   -1.0450    3.1190 ca        1 1CS     -0.002000
     18 C4          2.5980   -0.5990    3.4880 ca        1 1CS     -0.154000
     19 C5          2.8450    0.7690    3.6030 ca        1 1CS     -0.053000
     20 C6          1.8270    1.6850    3.3410 ca        1 1CS     -0.154000
     21 C1          0.5620    1.2240    2.9690 ca        1 1CS      0.134400
     22 N3'         0.5110    0.2780   -2.6240 nb        1 1CS     -0.792000
     23 CL11       -0.6440    2.3760    2.6330 cl        1 1CS     -0.077400
     24 H5'1        4.2530    0.6930   -3.2500 h1        1 1CS      0.059367
     25 H5'2        2.9450    1.4180   -2.1720 h1        1 1CS      0.059367
     26 H5'3        3.1130   -0.4070   -2.3050 h1        1 1CS      0.059367
     27 H7'1       -2.2130   -0.8540   -6.3500 hc        1 1CS      0.070367
     28 H7'2       -2.6150    0.9100   -6.1610 hc        1 1CS      0.070367
     29 H7'3       -1.1510    0.4080   -7.1180 hc        1 1CS      0.070367
     30 H10        -2.5380    0.0440   -1.4460 hn        1 1CS      0.348500
     31 HN8        -2.2920    0.5060    0.9480 hn        1 1CS      0.340500
     32 H3          1.1440   -2.1320    3.0190 ha        1 1CS      0.176000
     33 H4          3.4000   -1.3250    3.6840 ha        1 1CS      0.149000
     34 H5          3.8430    1.1300    3.8960 ha        1 1CS      0.144000
     35 H6          2.0210    2.7660    3.4260 ha        1 1CS      0.156000
@<TRIPOS>BOND
     1    1    2 1   
     2    1   24 1   
     3    1   25 1   
     4    1   26 1   
     5    2    3 1   
     6    3    4 ar  
     7    3   22 ar  
     8    4    5 ar  
     9    5    6 1   
    10    5    7 ar  
    11    6   27 1   
    12    6   28 1   
    13    6   29 1   
    14    7    8 ar  
    15    8    9 1   
    16    8   22 ar  
    17    9   10 1   
    18    9   30 1   
    19   10   11 2   
    20   10   12 1   
    21   12   13 1   
    22   12   31 1   
    23   13   14 2   
    24   13   15 2   
    25   13   16 1   
    26   16   17 ar  
    27   16   21 ar  
    28   17   18 ar  
    29   17   32 1   
    30   18   19 ar  
    31   18   33 1   
    32   19   20 ar  
    33   19   34 1   
    34   20   21 ar  
    35   20   35 1   
    36   21   23 1   
@<TRIPOS>SUBSTRUCTURE
     1 1CS         1 TEMP              0 ****  ****    0 ROOT
