@<TRIPOS>MOLECULE
1CS
   37    37     1     0     0
SMALL
bcc


@<TRIPOS>ATOM
      1 C5'       717.1420  237.3670  220.3340 c3        1 1CS      0.113700
      2 O4'       718.1700  237.6940  221.2860 os        1 1CS     -0.364100
      3 C4'       717.8270  238.3900  222.3990 ca        1 1CS      0.929300
      4 N5'       718.8950  238.6370  223.2470 nb        1 1CS     -0.673000
      5 C6'       718.5930  239.3300  224.3780 ca        1 1CS      0.752300
      6 C7'       719.7000  239.6310  225.3550 c3        1 1CS     -0.156400
      7 N1'       717.3210  239.7810  224.7110 nb        1 1CS     -0.783000
      8 C2'       716.3600  239.4790  223.7930 ca        1 1CS      0.790900
      9 N10       714.9740  239.9500  224.0930 n4        1 1CS     -0.663500
     10 C9        714.4450  239.3720  225.4270 c         1 1CS      0.661100
     11 O9        713.5250  238.5660  225.2610 o         1 1CS     -0.476100
     12 N8        714.9670  239.8390  226.5850 n         1 1CS     -0.595000
     13 S7      -1178.9450 -394.5480 -357.1500 s4        1 1CS      1.649300
     14 O7A     -1178.4540 -395.6010 -356.4690 o         1 1CS     -0.382400
     15 O7B     -1178.9030 -393.2980 -356.6360 o         1 1CS     -0.382400
     16 C2      -1179.5830 -394.7110 -358.5540 ca        1 1CS     -0.631500
     17 C3      -1180.0700 -393.5130 -359.1780 ca        1 1CS      0.012000
     18 C4      -1180.6590 -393.5120 -360.4220 ca        1 1CS     -0.144000
     19 C5      -1180.8000 -394.7160 -361.1300 ca        1 1CS      0.055000
     20 C6      -1180.3430 -395.9070 -360.5680 ca        1 1CS     -0.159000
     21 C1      -1179.7460 -395.9140 -359.3070 ca        1 1CS      0.182400
     22 N3'       716.5170  238.7950  222.6190 nb        1 1CS     -0.781000
     23 CL11    -1179.2190 -397.3890 -358.6930 cl        1 1CS      0.031600
     24 H5'1      716.3660  236.7190  220.8070 h1        1 1CS      0.079033
     25 H5'2      717.7250  236.8030  219.5580 h1        1 1CS      0.079033
     26 H5'3      716.6970  238.2970  219.9090 h1        1 1CS      0.079033
     27 H7'1      720.7010  239.4060  224.9060 hc        1 1CS      0.094367
     28 H7'2      719.5620  238.9950  226.2660 hc        1 1CS      0.094367
     29 H7'3      719.6690  240.7090  225.6520 hc        1 1CS      0.094367
     30 H10       714.9730  240.9760  224.1090 hn        1 1CS      0.488300
     31 HN8       714.6230  239.4240  227.4280 hn        1 1CS      0.374000
     32 H3      -1179.9660 -392.5520 -358.6310 ha        1 1CS      0.187000
     33 H4      -1181.0200 -392.5660 -360.8650 ha        1 1CS      0.192000
     34 H5      -1181.2730 -394.7200 -362.1310 ha        1 1CS      0.190000
     35 H6      -1180.4550 -396.8560 -361.1270 ha        1 1CS      0.199000
     36 H102      714.3280  239.6180  223.3540 hn        1 1CS      0.488300
     37 H82       715.7790  240.4120  226.6320 hn        1 1CS      0.374000
@<TRIPOS>BOND
     1    1    2 1   
     2    1   24 1   
     3    1   25 1   
     4    1   26 1   
     5    2    3 1   
     6    3    4 ar  
     7    3   22 ar  
     8    4    5 ar  
     9    5    6 1   
    10    5    7 ar  
    11    6   27 1   
    12    6   28 1   
    13    6   29 1   
    14    7    8 ar  
    15    8    9 1   
    16    8   22 ar  
    17    9   10 1   
    18    9   30 1   
    19    9   36 1   
    20   10   11 2   
    21   10   12 1   
    22   12   31 1   
    23   12   37 1   
    24   13   14 1   
    25   13   15 1   
    26   13   16 1   
    27   16   17 ar  
    28   16   21 ar  
    29   17   18 ar  
    30   17   32 1   
    31   18   19 ar  
    32   18   33 1   
    33   19   20 ar  
    34   19   34 1   
    35   20   21 ar  
    36   20   35 1   
    37   21   23 1   
@<TRIPOS>SUBSTRUCTURE
     1 1CS         1 TEMP              0 ****  ****    0 ROOT
