@<TRIPOS>MOLECULE
1CS
   36    36     1     0     0
SMALL
bcc


@<TRIPOS>ATOM
      1 C5'         0.6830    1.5750   -0.5690 c3        1 1CS      0.119700
      2 O4'         1.7810    0.7540   -0.1470 os        1 1CS     -0.390100
      3 C4'         1.8070    0.3420    1.1580 ca        1 1CS      0.900300
      4 N5'         2.9290   -0.3980    1.4660 nb        1 1CS     -0.715000
      5 C6'         2.9870   -0.8220    2.7650 ca        1 1CS      0.727300
      6 C7'         4.2030   -1.6100    3.1860 c3        1 1CS     -0.148400
      7 N1'         2.0320   -0.5760    3.7230 nb        1 1CS     -0.783000
      8 C2'         0.9560    0.1720    3.2930 ca        1 1CS      0.797900
      9 N10        -0.0270    0.4790    4.2840 n         1 1CS     -0.537400
     10 C9         -1.3830    0.5520    4.0000 c         1 1CS      0.741100
     11 O9         -1.9120    0.2270    2.9220 o         1 1CS     -0.557100
     12 N8         -2.3020    0.9910    5.0440 n         1 1CS     -0.704000
     13 S7         -4.3690   -0.3350    5.1950 s4        1 1CS      1.668300
     14 O7A        -4.2940   -0.2360    6.5440 o         1 1CS     -0.418400
     15 O7B        -5.0110    0.6120    4.4640 o         1 1CS     -0.418400
     16 C2         -3.9980   -1.6710    4.4650 ca        1 1CS     -0.598500
     17 C3         -4.0670   -1.6540    3.0370 ca        1 1CS      0.043000
     18 C4         -3.8210   -2.7760    2.2690 ca        1 1CS     -0.148000
     19 C5         -3.4750   -3.9810    2.8890 ca        1 1CS      0.036000
     20 C6         -3.3760   -4.0420    4.2810 ca        1 1CS     -0.159000
     21 C1         -3.6250   -2.9120    5.0570 ca        1 1CS      0.165400
     22 N3'         0.7810    0.6710    2.0220 nb        1 1CS     -0.786000
     23 CL11       -3.4810   -3.0620    6.7310 cl        1 1CS      0.004600
     24 H5'1        0.9300    1.7610   -1.6460 h1        1 1CS      0.065033
     25 H5'2       -0.2810    1.0230   -0.4670 h1        1 1CS      0.065033
     26 H5'3        0.6620    2.5290    0.0090 h1        1 1CS      0.065033
     27 H7'1        5.0140   -0.8880    3.4590 hc        1 1CS      0.080700
     28 H7'2        3.9780   -2.2550    4.0700 hc        1 1CS      0.080700
     29 H7'3        4.5640   -2.2530    2.3450 hc        1 1CS      0.080700
     30 H10         0.3010    0.5090    5.2260 hn        1 1CS      0.357500
     31 HN8        -1.8880    1.0780    5.9560 hn        1 1CS      0.310000
     32 H3         -4.3090   -0.6970    2.5290 ha        1 1CS      0.190000
     33 H4         -3.8880   -2.7160    1.1690 ha        1 1CS      0.186000
     34 H5         -3.2750   -4.8830    2.2830 ha        1 1CS      0.181000
     35 H6         -3.0970   -4.9940    4.7690 ha        1 1CS      0.190000
     36 H82        -2.7000    1.8780    4.7680 hn        1 1CS      0.310000
@<TRIPOS>BOND
     1    1    2 1   
     2    1   24 1   
     3    1   25 1   
     4    1   26 1   
     5    2    3 1   
     6    3    4 ar  
     7    3   22 ar  
     8    4    5 ar  
     9    5    6 1   
    10    5    7 ar  
    11    6   27 1   
    12    6   28 1   
    13    6   29 1   
    14    7    8 ar  
    15    8    9 1   
    16    8   22 ar  
    17    9   10 1   
    18    9   30 1   
    19   10   11 2   
    20   10   12 1   
    21   12   31 1   
    22   12   36 1   
    23   13   14 1   
    24   13   15 1   
    25   13   16 1   
    26   16   17 ar  
    27   16   21 ar  
    28   17   18 ar  
    29   17   32 1   
    30   18   19 ar  
    31   18   33 1   
    32   19   20 ar  
    33   19   34 1   
    34   20   21 ar  
    35   20   35 1   
    36   21   23 1   
@<TRIPOS>SUBSTRUCTURE
     1 1CS         1 TEMP              0 ****  ****    0 ROOT
