@<TRIPOS>MOLECULE
1CS
   36    36     1     0     0
SMALL
bcc


@<TRIPOS>ATOM
      1 C5'         0.7120    1.5480   -0.5720 c3        1 1CS      0.119700
      2 O4'         1.8080    0.7330   -0.1340 os        1 1CS     -0.390100
      3 C4'         1.8230    0.3310    1.1740 ca        1 1CS      0.900300
      4 N5'         2.9430   -0.4050    1.4990 nb        1 1CS     -0.715000
      5 C6'         2.9910   -0.8180    2.8010 ca        1 1CS      0.727300
      6 C7'         4.2040   -1.6010    3.2390 c3        1 1CS     -0.148400
      7 N1'         2.0270   -0.5670    3.7480 nb        1 1CS     -0.783000
      8 C2'         0.9530    0.1760    3.3030 ca        1 1CS      0.797900
      9 N10        -0.0390    0.4900    4.2820 ns        1 1CS     -0.537400
     10 C9         -1.3930    0.5580    3.9860 c         1 1CS      0.741100
     11 O9         -1.9110    0.2230    2.9050 o         1 1CS     -0.557100
     12 N8         -2.3220    1.0020    5.0180 nt        1 1CS     -0.704000
     13 S7         -4.3880   -0.3250    5.1590 s4        1 1CS      1.668300
     14 O7A        -4.3270   -0.2160    6.5070 o         1 1CS     -0.418400
     15 O7B        -5.0240    0.6160    4.4140 o         1 1CS     -0.418400
     16 C2         -4.0100   -1.6660    4.4430 ca        1 1CS     -0.598500
     17 C3         -4.0640   -1.6590    3.0140 ca        1 1CS      0.043000
     18 C4         -3.8080   -2.7870    2.2570 ca        1 1CS     -0.148000
     19 C5         -3.4670   -3.9870    2.8890 ca        1 1CS      0.036000
     20 C6         -3.3820   -4.0370    4.2820 ca        1 1CS     -0.159000
     21 C1         -3.6400   -2.9020    5.0480 ca        1 1CS      0.165400
     22 N3'         0.7880    0.6650    2.0260 nb        1 1CS     -0.786000
     23 Cl11       -3.5120   -3.0390    6.7240 cl        1 1CS      0.004600
     24 H5'1       -0.2520    0.9950   -0.4740 h1        1 1CS      0.065033
     25 H5'2        0.6850    2.5070   -0.0020 h1        1 1CS      0.065033
     26 H5'3        0.9700    1.7260   -1.6490 h1        1 1CS      0.065033
     27 H7'1        5.0130   -0.8760    3.5100 hc        1 1CS      0.080700
     28 H7'2        4.5700   -2.2540    2.4080 hc        1 1CS      0.080700
     29 H7'3        3.9730   -2.2360    4.1290 hc        1 1CS      0.080700
     30 H10         0.2800    0.5280    5.2280 hn        1 1CS      0.357500
     31 HN8        -2.7190    1.8870    4.7330 hn        1 1CS      0.310000
     32 H3         -4.3030   -0.7070    2.4960 ha        1 1CS      0.190000
     33 H4         -3.8650   -2.7360    1.1550 ha        1 1CS      0.186000
     34 H5         -3.2610   -4.8940    2.2920 ha        1 1CS      0.181000
     35 H6         -3.1070   -4.9850    4.7800 ha        1 1CS      0.190000
     36 H82        -1.9170    1.0970    5.9330 hn        1 1CS      0.310000
@<TRIPOS>BOND
     1    1    2 1   
     2    1   24 1   
     3    1   25 1   
     4    1   26 1   
     5    2    3 1   
     6    3    4 ar  
     7    3   22 ar  
     8    4    5 ar  
     9    5    6 1   
    10    5    7 ar  
    11    6   27 1   
    12    6   28 1   
    13    6   29 1   
    14    7    8 ar  
    15    8    9 1   
    16    8   22 ar  
    17    9   10 1   
    18    9   30 1   
    19   10   11 2   
    20   10   12 1   
    21   12   31 1   
    22   12   36 1   
    23   13   14 1   
    24   13   15 1   
    25   13   16 1   
    26   16   17 ar  
    27   16   21 ar  
    28   17   18 ar  
    29   17   32 1   
    30   18   19 ar  
    31   18   33 1   
    32   19   20 ar  
    33   19   34 1   
    34   20   21 ar  
    35   20   35 1   
    36   21   23 1   
@<TRIPOS>SUBSTRUCTURE
     1 1CS         1 TEMP              0 ****  ****    0 ROOT
