@<TRIPOS>MOLECULE
1CS
   35    31     1     0     0
SMALL
bcc


@<TRIPOS>ATOM
      1 C5'        -5.5460    2.7330   -1.4200 c3        1 1CS     -0.067000
      2 O4'        -4.7420    1.6090   -1.6870 os        1 1CS     -0.160000
      3 C4'        -4.1710    1.0330   -0.5400 c2        1 1CS      0.198000
      4 N5'        -4.9640    0.4430    0.3840 n1        1 1CS     -0.282000
      5 C6'        -4.4160   -0.2040    1.4250 c1        1 1CS      0.108000
      6 C7'        -5.3240   -0.9420    2.4420 c3        1 1CS     -0.166000
      7 N1'        -3.0800   -0.2660    1.5510 n1        1 1CS     -0.273000
      8 C2'        -2.2840    0.3220    0.6300 c1        1 1CS      0.208000
      9 N10        -0.8540    0.3660    0.8340 n         1 1CS     -0.318000
     10 C9         -0.0000   -0.3690   -0.0080 c2        1 1CS      0.439000
     11 O9         -0.4670   -1.0440   -0.9110 o         1 1CS     -0.299000
     12 N8          1.4480   -0.2910    0.1740 n         1 1CS     -0.853000
     13 S7          2.4290   -1.4830   -0.4470 s4        1 1CS      2.085800
     14 O7A         2.2840   -2.7140    0.2890 o         1 1CS     -0.511400
     15 O7B         1.9850   -1.8940   -1.7750 o         1 1CS     -0.511400
     16 C2          4.1540   -0.9280   -0.4720 c1        1 1CS     -0.820000
     17 C3          4.9700   -1.1600    0.6200 c2        1 1CS     -0.019000
     18 C4          6.2990   -0.7830    0.5810 c1        1 1CS     -0.153000
     19 C5          6.8130   -0.1740   -0.5510 c1        1 1CS     -0.104500
     20 C6          6.0020    0.0580   -1.6370 c1        1 1CS     -0.104500
     21 C1          4.6680   -0.3200   -1.6000 c1        1 1CS      0.037000
     22 N3'        -2.8320    0.9700   -0.4140 n2        1 1CS     -0.201000
     23 CL11        4.5180    0.0480   -3.2970 cl        1 1CS      0.014000
     24 H5'1       -4.9790    3.5030   -1.2440 h1        1 1CS      0.097000
     25 H5'2       -6.1340    2.5450   -0.5980 h1        1 1CS      0.097000
     26 H5'3       -6.1190    2.9190   -2.1980 h1        1 1CS      0.097000
     27 H7'1       -5.1590   -0.6000    3.3290 hc        1 1CS      0.108333
     28 H7'2       -5.1260   -1.9020    2.4200 hc        1 1CS      0.108333
     29 H7'3       -6.2510   -0.7990    2.2080 hc        1 1CS      0.108333
     30 H10        -0.5180    0.8560    1.4830 hn        1 1CS      0.259000
     31 HN8         1.8310    0.4350    0.6710 hn        1 1CS      0.249000
     32 H3          4.6050   -1.5950    1.4270 ha        1 1CS      0.175000
     33 H4          6.8690   -0.9440    1.3430 ha        1 1CS      0.150000
     34 H5          7.7260    0.0860   -0.5780 ha        1 1CS      0.151500
     35 H6          6.3640    0.4860   -2.4320 ha        1 1CS      0.151500
@<TRIPOS>BOND
     1    1    2 1   
     2    1   24 1   
     3    1   25 1   
     4    1   26 1   
     5    2    3 1   
     6    3    4 1   
     7    3   22 1   
     8    5    6 1   
     9    5    7 1   
    10    6   27 1   
    11    6   28 1   
    12    6   29 1   
    13    8    9 1   
    14    8   22 1   
    15    9   10 1   
    16    9   30 1   
    17   10   11 1   
    18   10   12 1   
    19   12   13 1   
    20   12   31 1   
    21   13   14 1   
    22   13   15 1   
    23   16   17 1   
    24   16   21 1   
    25   17   18 1   
    26   17   32 1   
    27   18   33 1   
    28   19   20 1   
    29   19   34 1   
    30   20   35 1   
    31   21   23 1   
@<TRIPOS>SUBSTRUCTURE
     1 1CS         1 TEMP              0 ****  ****    0 ROOT
