@<TRIPOS>MOLECULE
1CT
   36    33     1     0     0
SMALL
bcc


@<TRIPOS>ATOM
      1 OAA         0.4930    1.3880   -1.6870 o         1 1CT     -0.447000
      2 OAB        -1.2630    0.7690    5.2140 o         1 1CT     -0.746833
      3 OAC        -0.3090   -1.4290    4.6320 o         1 1CT     -0.746833
      4 OAD        -1.5550   -0.1390    2.9400 o         1 1CT     -0.746833
      5 FAE        -2.8720   -1.2760   -0.9140 f         1 1CT     -0.196000
      6 FAF        -2.9260   -3.2830   -1.7790 f         1 1CT     -0.196000
      7 FAG        -4.1320   -1.6830   -2.6540 f         1 1CT     -0.196000
      8 CAH        -0.2490   -0.9690   -5.1580 c1        1 1CT     -0.170750
      9 CAI         2.6240    2.9540    3.6080 c1        1 1CT     -0.170750
     10 CAJ        -1.3700   -1.7670   -5.3210 c1        1 1CT     -0.170750
     11 CAK         2.3520    2.2830    4.7900 c1        1 1CT     -0.170750
     12 CAL         0.0860   -0.4910   -3.9010 c1        1 1CT     -0.249000
     13 CAM         2.0470    2.5300    2.4210 c1        1 1CT     -0.198000
     14 CAN        -2.1570   -2.0880   -4.2260 c1        1 1CT     -0.044000
     15 CAO         1.5030    1.1880    4.7850 c1        1 1CT     -0.083000
     16 CAP         1.2050    0.3550    0.3200 c3        1 1CT     -0.021000
     17 NAQ        -0.0610   -0.8220   -1.5400 n         1 1CT     -0.431000
     18 OAR         0.6170    1.3370    1.1410 os        1 1CT     -0.219000
     19 CAS         0.5330    0.3630   -1.0360 c2        1 1CT      0.249000
     20 CAT        -0.7020   -0.8110   -2.8060 c2        1 1CT      0.202000
     21 CAU         1.1980    1.4340    2.4170 c2        1 1CT      0.152000
     22 CAV        -1.8230   -1.6100   -2.9680 c2        1 1CT     -0.294000
     23 CAW         0.9260    0.7630    3.5980 c2        1 1CT     -0.700000
     24 CAX        -2.9710   -1.9730   -2.0520 c3        1 1CT      0.498000
     25 PAY        -0.6150   -0.0430    4.1180 p5        1 1CT      1.688500
     26 HAH         0.3060   -0.7430   -5.9290 ha        1 1CT      0.095250
     27 HAI         3.2220    3.7260    3.6110 ha        1 1CT      0.095250
     28 HAJ        -1.6130   -2.0920   -6.2080 ha        1 1CT      0.095250
     29 HAK         2.7780    2.5670    5.6210 ha        1 1CT      0.095250
     30 HAL         0.8750    0.0720   -3.7860 ha        1 1CT      0.160000
     31 HAM         2.2390    3.0030    1.5890 ha        1 1CT      0.159000
     32 HAN        -2.9460   -2.6500   -4.3400 ha        1 1CT      0.103000
     33 HAO         1.3120    0.7150    5.6170 ha        1 1CT      0.165000
     34 HAP         1.0940   -0.5260    0.7340 h1        1 1CT      0.107500
     35 HAPA        2.1590    0.5480    0.2130 h1        1 1CT      0.107500
     36 HNAQ       -0.0070   -1.5980   -1.0630 hn        1 1CT      0.224000
@<TRIPOS>BOND
     1    1   19 1   
     2    2   25 1   
     3    3   25 1   
     4    4   25 1   
     5    5   24 1   
     6    6   24 1   
     7    7   24 1   
     8    8   10 1   
     9    8   26 1   
    10    9   11 1   
    11    9   27 1   
    12   10   28 1   
    13   11   29 1   
    14   12   20 1   
    15   12   30 1   
    16   13   21 1   
    17   13   31 1   
    18   14   22 1   
    19   14   32 1   
    20   15   23 1   
    21   15   33 1   
    22   16   18 1   
    23   16   19 1   
    24   16   34 1   
    25   16   35 1   
    26   17   19 1   
    27   17   20 1   
    28   17   36 1   
    29   18   21 1   
    30   20   22 1   
    31   21   23 1   
    32   22   24 1   
    33   23   25 1   
@<TRIPOS>SUBSTRUCTURE
     1 1CT         1 TEMP              0 ****  ****    0 ROOT
