@<TRIPOS>MOLECULE
1CT
   36    37     1     0     0
SMALL
bcc


@<TRIPOS>ATOM
      1 OAA         0.3240   -0.9490   -1.5370 o         1 1CT     -0.768300
      2 OAB        -5.4790   -1.3590    1.1220 o         1 1CT     -0.878000
      3 OAC        -5.7940    0.9830    2.1430 o         1 1CT     -0.878000
      4 OAD        -3.7500   -0.4030    2.6410 oh        1 1CT     -0.792400
      5 FAE         3.6420    2.1860    0.9110 f         1 1CT     -0.259300
      6 FAF         5.5110    1.3800    1.6100 f         1 1CT     -0.259300
      7 FAG         3.6550    0.5980    2.3710 f         1 1CT     -0.259300
      8 CAH         4.2890   -1.9210   -1.9680 ca        1 1CT     -0.085000
      9 CAI        -3.0490    2.0820   -1.9780 ca        1 1CT     -0.121000
     10 CAJ         5.4980   -1.4370   -1.4330 ca        1 1CT     -0.252000
     11 CAK        -4.3460    2.3070   -1.5110 ca        1 1CT     -0.216000
     12 CAL         3.0750   -1.4860   -1.5010 ca        1 1CT     -0.189000
     13 CAM        -2.2380    1.1620   -1.3360 ca        1 1CT     -0.195000
     14 CAN         5.4500   -0.5040   -0.4180 ca        1 1CT     -0.042000
     15 CAO        -4.8000    1.5910   -0.4110 ca        1 1CT     -0.074000
     16 CAP        -0.5460   -0.0990    0.5320 c2        1 1CT     -0.378900
     17 NAQ         1.7960   -0.0670    0.0410 n         1 1CT     -0.448100
     18 OAR        -1.8520   -0.5200    0.3380 os        1 1CT     -0.221200
     19 CAS         0.4410   -0.4210   -0.3940 c2        1 1CT      0.644300
     20 CAT         2.9830   -0.5110   -0.4430 ca        1 1CT      0.206600
     21 CAU        -2.7110    0.4380   -0.2160 ca        1 1CT      0.201100
     22 CAV         4.2280   -0.0370    0.0820 ca        1 1CT     -0.341300
     23 CAW        -4.0140    0.6430    0.2610 ca        1 1CT     -0.334500
     24 CAX         4.2560    0.9860    1.1940 c3        1 1CT      0.698200
     25 PAY        -4.9140   -0.0510    1.5380 p5        1 1CT      1.391900
     26 HAH         4.3230   -2.6670   -2.7760 ha        1 1CT      0.109000
     27 HAI        -2.6740    2.6330   -2.8520 ha        1 1CT      0.089000
     28 HAJ         6.4580   -1.7990   -1.8210 ha        1 1CT      0.106000
     29 HAK        -4.9940    3.0410   -2.0060 ha        1 1CT      0.091000
     30 HAL         2.1340   -1.8740   -1.9340 ha        1 1CT      0.197000
     31 HAM        -1.2150    0.9610   -1.6930 ha        1 1CT      0.152000
     32 HAN         6.3850   -0.1140    0.0140 ha        1 1CT      0.113000
     33 HAO        -5.8140    1.7830   -0.0120 ha        1 1CT      0.148000
     34 HAP        -0.3900    0.4070    1.4850 h4        1 1CT      0.117000
     35 HAPA       -3.0600   -0.9530    2.2850 ho        1 1CT      0.428000
     36 HNAQ        1.8320    0.5540    0.8200 hn        1 1CT      0.300500
@<TRIPOS>BOND
     1    1   19 1   
     2    2   25 1   
     3    3   25 1   
     4    4   25 1   
     5    4   35 1   
     6    5   24 1   
     7    6   24 1   
     8    7   24 1   
     9    8   10 ar  
    10    8   12 ar  
    11    8   26 1   
    12    9   11 ar  
    13    9   13 ar  
    14    9   27 1   
    15   10   14 ar  
    16   10   28 1   
    17   11   15 ar  
    18   11   29 1   
    19   12   20 ar  
    20   12   30 1   
    21   13   21 ar  
    22   13   31 1   
    23   14   22 ar  
    24   14   32 1   
    25   15   23 ar  
    26   15   33 1   
    27   16   18 1   
    28   16   19 2   
    29   16   34 1   
    30   17   19 1   
    31   17   20 1   
    32   17   36 1   
    33   18   21 1   
    34   20   22 ar  
    35   21   23 ar  
    36   22   24 1   
    37   23   25 1   
@<TRIPOS>SUBSTRUCTURE
     1 1CT         1 TEMP              0 ****  ****    0 ROOT
