@<TRIPOS>MOLECULE
1CT
   36    37     1     0     0
SMALL
bcc


@<TRIPOS>ATOM
      1 OAA         0.6380    1.5200    0.1400 o         1 1CT     -0.768300
      2 OAB        -1.5340   -0.4590    5.8220 o         1 1CT     -0.878000
      3 OAC         0.3620   -1.9950    6.6420 o         1 1CT     -0.878000
      4 OAD        -0.6930   -2.3060    4.3750 oh        1 1CT     -0.792400
      5 FAE         3.6050   -1.8950   -2.3840 f         1 1CT     -0.259300
      6 FAF         3.0140   -2.5280   -4.3540 f         1 1CT     -0.259300
      7 FAG         1.7260   -2.9140   -2.6730 f         1 1CT     -0.259300
      8 CAH         0.5790    1.8420   -3.9520 ca        1 1CT     -0.085000
      9 CAI         2.9860    1.4840    4.0450 ca        1 1CT     -0.121000
     10 CAJ         1.1290    1.1050   -5.0190 ca        1 1CT     -0.252000
     11 CAK         2.8320    1.0870    5.3760 ca        1 1CT     -0.216000
     12 CAL         0.6420    1.3860   -2.6600 ca        1 1CT     -0.189000
     13 CAM         2.1020    1.0220    3.0850 ca        1 1CT     -0.195000
     14 CAN         1.7420   -0.1010   -4.7470 ca        1 1CT     -0.042000
     15 CAO         1.7850    0.2390    5.7100 ca        1 1CT     -0.074000
     16 CAP         0.7450   -0.6140    1.2330 c2        1 1CT     -0.378900
     17 NAQ         1.3460   -0.3450   -1.0680 n         1 1CT     -0.448100
     18 OAR         0.1490   -0.2130    2.4190 os        1 1CT     -0.221200
     19 CAS         0.8660    0.2770    0.1710 c2        1 1CT      0.644300
     20 CAT         1.2750    0.1320   -2.3350 ca        1 1CT      0.206600
     21 CAU         1.0370    0.1590    3.4360 ca        1 1CT      0.201100
     22 CAV         1.8240   -0.5960   -3.4390 ca        1 1CT     -0.341300
     23 CAW         0.8620   -0.2430    4.7690 ca        1 1CT     -0.334500
     24 CAX         2.5120   -1.9240   -3.2210 c3        1 1CT      0.698200
     25 PAY        -0.2950   -1.2300    5.5500 p5        1 1CT      1.391900
     26 HAH         0.0880    2.8040   -4.1650 ha        1 1CT      0.109000
     27 HAI         3.8040    2.1610    3.7620 ha        1 1CT      0.089000
     28 HAJ         1.0680    1.4880   -6.0440 ha        1 1CT      0.106000
     29 HAK         3.5330    1.4380    6.1430 ha        1 1CT      0.091000
     30 HAL         0.2080    1.9790   -1.8330 ha        1 1CT      0.197000
     31 HAM         2.1960    1.3300    2.0310 ha        1 1CT      0.152000
     32 HAN         2.1770   -0.6930   -5.5670 ha        1 1CT      0.113000
     33 HAO         1.6720   -0.1080    6.7540 ha        1 1CT      0.148000
     34 HAP        -0.9910   -1.8850    3.5770 ho        1 1CT      0.428000
     35 HAPA        1.0080   -1.6720    1.2160 h4        1 1CT      0.117000
     36 HNAQ        1.7400   -1.2530   -0.9500 hn        1 1CT      0.300500
@<TRIPOS>BOND
     1    1   19 1   
     2    2   25 1   
     3    3   25 1   
     4    4   25 1   
     5    4   34 1   
     6    5   24 1   
     7    6   24 1   
     8    7   24 1   
     9    8   10 ar  
    10    8   12 ar  
    11    8   26 1   
    12    9   11 ar  
    13    9   13 ar  
    14    9   27 1   
    15   10   14 ar  
    16   10   28 1   
    17   11   15 ar  
    18   11   29 1   
    19   12   20 ar  
    20   12   30 1   
    21   13   21 ar  
    22   13   31 1   
    23   14   22 ar  
    24   14   32 1   
    25   15   23 ar  
    26   15   33 1   
    27   16   18 1   
    28   16   19 2   
    29   16   35 1   
    30   17   19 1   
    31   17   20 1   
    32   17   36 1   
    33   18   21 1   
    34   20   22 ar  
    35   21   23 ar  
    36   22   24 1   
    37   23   25 1   
@<TRIPOS>SUBSTRUCTURE
     1 1CT         1 TEMP              0 ****  ****    0 ROOT
