@<TRIPOS>MOLECULE
1CT
   36    37     1     0     0
SMALL
bcc


@<TRIPOS>ATOM
      1 OAA        -1.4810    0.9880   -0.7910 o         1 1CT     -0.802300
      2 OAB         1.1080   -1.6290    6.4180 o         1 1CT     -0.875500
      3 OAC         1.8270   -3.0250    4.3750 o         1 1CT     -0.875500
      4 OAD        -0.5050   -2.1760    4.5630 oh        1 1CT     -0.790400
      5 FAE         3.3310   -1.4360   -0.5600 f         1 1CT     -0.250300
      6 FAF         3.7560   -2.4660   -2.4060 f         1 1CT     -0.250300
      7 FAG         1.8920   -2.8280   -1.3890 f         1 1CT     -0.250300
      8 CAH         0.9620    1.3570   -4.0480 ca        1 1CT     -0.088000
      9 CAI         2.3080    2.0790    3.1990 ca        1 1CT     -0.112000
     10 CAJ         2.0440    0.6240   -4.5660 ca        1 1CT     -0.255000
     11 CAK         2.7800    1.5630    4.4070 ca        1 1CT     -0.220000
     12 CAL         0.4520    1.0960   -2.8000 ca        1 1CT     -0.196000
     13 CAM         1.3960    1.3530    2.4510 ca        1 1CT     -0.213000
     14 CAN         2.5930   -0.3820   -3.7950 ca        1 1CT     -0.043000
     15 CAO         2.3160    0.3270    4.8380 ca        1 1CT     -0.068000
     16 CAP        -0.7860    0.1590    1.2990 c2        1 1CT     -0.385900
     17 NAQ         0.5310   -0.1990   -0.7160 n         1 1CT     -0.444100
     18 OAR         0.0750   -0.6230    2.0570 os        1 1CT     -0.241200
     19 CAS        -0.6380    0.3690   -0.0680 c2        1 1CT      0.645300
     20 CAT         1.0000    0.0590   -1.9650 ca        1 1CT      0.205600
     21 CAU         0.9460    0.0850    2.8890 ca        1 1CT      0.202100
     22 CAV         2.0940   -0.6770   -2.5220 ca        1 1CT     -0.325300
     23 CAW         1.3990   -0.4440    4.1090 ca        1 1CT     -0.332500
     24 CAX         2.7400   -1.8050   -1.7440 c3        1 1CT      0.694200
     25 PAY         1.0640   -1.8940    4.9560 p5        1 1CT      1.389900
     26 HAH         0.5180    2.1590   -4.6580 ha        1 1CT      0.104000
     27 HAI         2.6570    3.0580    2.8410 ha        1 1CT      0.090000
     28 HAJ         2.4400    0.8490   -5.5620 ha        1 1CT      0.104000
     29 HAK         3.5000    2.1310    5.0100 ha        1 1CT      0.093000
     30 HAL        -0.4040    1.6800   -2.4150 ha        1 1CT      0.190000
     31 HAM         1.0010    1.7540    1.5060 ha        1 1CT      0.140000
     32 HAN         3.4400   -0.9700   -4.1830 ha        1 1CT      0.116000
     33 HAO         2.6500   -0.0720    5.8150 ha        1 1CT      0.151000
     34 HAP        -1.6520    0.5440    1.8350 h4        1 1CT      0.137000
     35 HAPA       -0.6380   -2.2610    3.6260 ho        1 1CT      0.428000
     36 HNAQ        1.0250   -0.8680   -0.1600 hn        1 1CT      0.328500
@<TRIPOS>BOND
     1    1   19 1   
     2    2   25 1   
     3    3   25 1   
     4    4   25 1   
     5    4   35 1   
     6    5   24 1   
     7    6   24 1   
     8    7   24 1   
     9    8   10 ar  
    10    8   12 ar  
    11    8   26 1   
    12    9   11 ar  
    13    9   13 ar  
    14    9   27 1   
    15   10   14 ar  
    16   10   28 1   
    17   11   15 ar  
    18   11   29 1   
    19   12   20 ar  
    20   12   30 1   
    21   13   21 ar  
    22   13   31 1   
    23   14   22 ar  
    24   14   32 1   
    25   15   23 ar  
    26   15   33 1   
    27   16   18 1   
    28   16   19 2   
    29   16   34 1   
    30   17   19 1   
    31   17   20 1   
    32   17   36 1   
    33   18   21 1   
    34   20   22 ar  
    35   21   23 ar  
    36   22   24 1   
    37   23   25 1   
@<TRIPOS>SUBSTRUCTURE
     1 1CT         1 TEMP              0 ****  ****    0 ROOT
