@<TRIPOS>MOLECULE
1CT
   36    37     1     0     0
SMALL
bcc


@<TRIPOS>ATOM
      1 OAA         0.6440    1.5200    0.1320 o         1 1CT     -0.768300
      2 OAB        -1.5950   -0.4590    5.7870 o         1 1CT     -0.878000
      3 OAC         0.2900   -1.9940    6.6310 o         1 1CT     -0.878000
      4 OAD        -0.7370   -2.3060    4.3520 oh        1 1CT     -0.792400
      5 FAE         3.6440   -1.8900   -2.3570 f         1 1CT     -0.259300
      6 FAF         3.0770   -2.5260   -4.3340 f         1 1CT     -0.259300
      7 FAG         1.7700   -2.9140   -2.6670 f         1 1CT     -0.259300
      8 CAH         0.6290    1.8400   -3.9610 ca        1 1CT     -0.085000
      9 CAI         2.9460    1.4840    4.0640 ca        1 1CT     -0.121000
     10 CAJ         1.1920    1.1040   -5.0210 ca        1 1CT     -0.252000
     11 CAK         2.7760    1.0870    5.3930 ca        1 1CT     -0.216000
     12 CAL         0.6770    1.3850   -2.6680 ca        1 1CT     -0.189000
     13 CAM         2.0730    1.0220    3.0940 ca        1 1CT     -0.195000
     14 CAN         1.8040   -0.1010   -4.7420 ca        1 1CT     -0.042000
     15 CAO         1.7240    0.2390    5.7150 ca        1 1CT     -0.074000
     16 CAP         0.7390   -0.6140    1.2260 c2        1 1CT     -0.378900
     17 NAQ         1.3670   -0.3440   -1.0670 ns        1 1CT     -0.448100
     18 OAR         0.1290   -0.2130    2.4050 os        1 1CT     -0.221200
     19 CAS         0.8720    0.2770    0.1660 c2        1 1CT      0.644300
     20 CAT         1.3090    0.1320   -2.3360 ca        1 1CT      0.206600
     21 CAU         1.0040    0.1590    3.4330 ca        1 1CT      0.201100
     22 CAV         1.8720   -0.5950   -3.4330 ca        1 1CT     -0.341300
     23 CAW         0.8130   -0.2430    4.7640 ca        1 1CT     -0.334500
     24 CAX         2.5600   -1.9220   -3.2070 c3        1 1CT      0.698200
     25 PAY        -0.3540   -1.2290    5.5300 p5        1 1CT      1.391900
     26 HAH         0.1390    2.8000   -4.1790 ha        1 1CT      0.109000
     27 HAI         3.7670    2.1610    3.7910 ha        1 1CT      0.089000
     28 HAJ         1.1420    1.4860   -6.0460 ha        1 1CT      0.106000
     29 HAK         3.4670    1.4390    6.1690 ha        1 1CT      0.091000
     30 HAL         0.2340    1.9770   -1.8460 ha        1 1CT      0.197000
     31 HAM         2.1800    1.3290    2.0410 ha        1 1CT      0.152000
     32 HAN         2.2500   -0.6930   -5.5570 ha        1 1CT      0.113000
     33 HAO         1.5990   -0.1070    6.7580 ha        1 1CT      0.148000
     34 HAP        -1.0250   -1.8850    3.5500 ho        1 1CT      0.428000
     35 HAPA        1.0030   -1.6720    1.2120 h4        1 1CT      0.117000
     36 HNAQ        1.7610   -1.2520   -0.9450 hn        1 1CT      0.300500
@<TRIPOS>BOND
     1    1   19 1   
     2    2   25 1   
     3    3   25 1   
     4    4   25 1   
     5    4   34 1   
     6    5   24 1   
     7    6   24 1   
     8    7   24 1   
     9    8   10 ar  
    10    8   12 ar  
    11    8   26 1   
    12    9   11 ar  
    13    9   13 ar  
    14    9   27 1   
    15   10   14 ar  
    16   10   28 1   
    17   11   15 ar  
    18   11   29 1   
    19   12   20 ar  
    20   12   30 1   
    21   13   21 ar  
    22   13   31 1   
    23   14   22 ar  
    24   14   32 1   
    25   15   23 ar  
    26   15   33 1   
    27   16   18 1   
    28   16   19 2   
    29   16   35 1   
    30   17   19 1   
    31   17   20 1   
    32   17   36 1   
    33   18   21 1   
    34   20   22 ar  
    35   21   23 ar  
    36   22   24 1   
    37   23   25 1   
@<TRIPOS>SUBSTRUCTURE
     1 1CT         1 TEMP              0 ****  ****    0 ROOT
