@<TRIPOS>MOLECULE
1CW
   17    17     1     0     0
SMALL
bcc


@<TRIPOS>ATOM
      1 O          -2.1980   -1.4140    0.1180 o         1 1CW     -0.833300
      2 C5         -1.9460   -0.1690    0.0710 c         1 1CW      0.916200
      3 O1         -2.8480    0.7110    0.0240 o         1 1CW     -0.833300
      4 C4         -0.4980    0.2830    0.0690 ca        1 1CW     -0.199600
      5 C3         -0.2330    1.6540    0.0190 ca        1 1CW     -0.082000
      6 C2          1.0730    2.1330    0.0050 ca        1 1CW     -0.195000
      7 C1          2.1470    1.2500    0.0480 ca        1 1CW     -0.126000
      8 C6          0.5840   -0.6120    0.1040 ca        1 1CW      0.140100
      9 O2          0.4400   -1.9760    0.1350 oh        1 1CW     -0.570100
     10 C           1.9310   -0.1380    0.1030 ca        1 1CW      0.003600
     11 N           3.0460   -1.0160    0.2060 nh        1 1CW     -0.779200
     12 H2         -1.0940    2.3430   -0.0120 ha        1 1CW      0.152000
     13 H3          1.2620    3.2150   -0.0380 ha        1 1CW      0.106000
     14 H4          3.1750    1.6410    0.0420 ha        1 1CW      0.112000
     15 H5         -0.5180   -2.1940    0.1710 ho        1 1CW      0.488000
     16 H6          2.7320   -1.9490    0.4050 hn        1 1CW      0.350300
     17 H7          3.5490   -1.0240   -0.6620 hn        1 1CW      0.350300
@<TRIPOS>BOND
     1    1    2 1   
     2    2    3 1   
     3    2    4 1   
     4    4    5 ar  
     5    4    8 ar  
     6    5    6 ar  
     7    5   12 1   
     8    6    7 ar  
     9    6   13 1   
    10    7   10 ar  
    11    7   14 1   
    12    8    9 1   
    13    8   10 ar  
    14    9   15 1   
    15   10   11 1   
    16   11   16 1   
    17   11   17 1   
@<TRIPOS>SUBSTRUCTURE
     1 1CW         1 TEMP              0 ****  ****    0 ROOT
