@<TRIPOS>MOLECULE
1CW
   18    18     1     0     0
SMALL
bcc


@<TRIPOS>ATOM
      1 O          -0.0970   -0.1320   -0.0690 o         1 1CW     -0.784800
      2 C5          1.1700   -0.1100    0.0150 c         1 1CW      0.926200
      3 O1          1.8310   -0.1120    1.0760 o         1 1CW     -0.784800
      4 C4          1.9460   -0.0780   -1.3030 ca        1 1CW     -0.204600
      5 C3          3.3300   -0.0420   -1.2880 ca        1 1CW     -0.022000
      6 C2          4.0720   -0.0080   -2.4840 ca        1 1CW     -0.160000
      7 C1          3.4310   -0.0110   -3.7060 ca        1 1CW     -0.102000
      8 C6          1.2660   -0.0830   -2.5420 ca        1 1CW      0.244100
      9 O2         -0.0830   -0.1170   -2.6810 oh        1 1CW     -0.585100
     10 C           2.0190   -0.0490   -3.7430 ca        1 1CW     -0.195400
     11 N           1.3230   -0.0560   -5.0230 n4        1 1CW     -0.674000
     12 H2          3.8390   -0.0410   -0.3060 ha        1 1CW      0.187000
     13 H3          5.1720    0.0210   -2.4410 ha        1 1CW      0.147000
     14 H4          4.0130    0.0180   -4.6390 ha        1 1CW      0.126000
     15 H5         -0.5200   -0.1290   -1.7780 ho        1 1CW      0.536000
     16 H6          0.3290    0.1520   -4.8580 hn        1 1CW      0.449133
     17 H7          1.4050   -0.9810   -5.4530 hn        1 1CW      0.449133
     18 HN3         1.7270    0.6470   -5.6440 hn        1 1CW      0.449133
@<TRIPOS>BOND
     1    1    2 1   
     2    2    3 1   
     3    2    4 1   
     4    4    5 ar  
     5    4    8 ar  
     6    5    6 ar  
     7    5   12 1   
     8    6    7 ar  
     9    6   13 1   
    10    7   10 ar  
    11    7   14 1   
    12    8    9 1   
    13    8   10 ar  
    14    9   15 1   
    15   10   11 1   
    16   11   16 1   
    17   11   17 1   
    18   11   18 1   
@<TRIPOS>SUBSTRUCTURE
     1 1CW         1 TEMP              0 ****  ****    0 ROOT
