@<TRIPOS>MOLECULE
1CW
   17    17     1     0     0
SMALL
bcc


@<TRIPOS>ATOM
      1 O          -0.1010   -0.0840   -0.0490 o         1 1CW     -0.833300
      2 C5          1.1700   -0.0660   -0.0270 c         1 1CW      0.916200
      3 O1          1.8360   -0.0680    1.0430 o         1 1CW     -0.833300
      4 C4          1.9220   -0.0420   -1.3440 ca        1 1CW     -0.199600
      5 C3          3.3180   -0.0190   -1.3080 ca        1 1CW     -0.082000
      6 C2          4.0670   -0.0060   -2.4810 ca        1 1CW     -0.195000
      7 C1          3.4340   -0.0070   -3.7200 ca        1 1CW     -0.126000
      8 C6          1.2790   -0.0510   -2.5940 ca        1 1CW      0.141100
      9 O2         -0.0830   -0.0920   -2.7460 oh        1 1CW     -0.570100
     10 C           2.0310   -0.0250   -3.8080 ca        1 1CW      0.003600
     11 N           1.4090    0.0340   -5.0860 nv        1 1CW     -0.779200
     12 H2          3.8070   -0.0160   -0.3190 ha        1 1CW      0.152000
     13 H3          5.1650    0.0080   -2.4330 ha        1 1CW      0.106000
     14 H4          4.0370    0.0100   -4.6390 ha        1 1CW      0.112000
     15 H5         -0.5040   -0.0680   -1.8580 ho        1 1CW      0.488000
     16 H6          0.4230    0.1850   -4.9810 hn        1 1CW      0.350300
     17 H7          1.5530   -0.8330   -5.5700 hn        1 1CW      0.350300
@<TRIPOS>BOND
     1    1    2 1   
     2    2    3 1   
     3    2    4 1   
     4    4    5 ar  
     5    4    8 ar  
     6    5    6 ar  
     7    5   12 1   
     8    6    7 ar  
     9    6   13 1   
    10    7   10 ar  
    11    7   14 1   
    12    8    9 1   
    13    8   10 ar  
    14    9   15 1   
    15   10   11 1   
    16   11   16 1   
    17   11   17 1   
@<TRIPOS>SUBSTRUCTURE
     1 1CW         1 TEMP              0 ****  ****    0 ROOT
