@<TRIPOS>MOLECULE
1CW
   17    11     1     0     0
SMALL
bcc


@<TRIPOS>ATOM
      1 O          -1.1810    1.0490    3.0460 o         1 1CW     -0.568000
      2 C5         -0.8440   -0.0240    2.4800 c1        1 1CW      0.365000
      3 O1         -1.1360   -1.1310    3.0040 o         1 1CW     -0.568000
      4 C4         -0.0740    0.0170    1.1780 c1        1 1CW     -0.179000
      5 C3          1.3100    0.0880    1.1940 c1        1 1CW     -0.082000
      6 C2          2.0150    0.1490    0.0010 c1        1 1CW     -0.160500
      7 C1          1.3350    0.1400   -1.2060 c1        1 1CW     -0.160500
      8 C6         -0.7540    0.0080   -0.0300 c1        1 1CW      0.008500
      9 O2         -2.1570   -0.0960   -0.0470 o         1 1CW     -0.324000
     10 C          -0.0490    0.0700   -1.2220 c1        1 1CW      0.008500
     11 N          -0.7450    0.0620   -2.4590 n2        1 1CW     -0.288000
     12 H2          1.7890    0.0840    2.0440 ha        1 1CW      0.152000
     13 H3          2.9890    0.1990    0.0120 ha        1 1CW      0.109000
     14 H4          1.8300    0.1930   -2.0460 ha        1 1CW      0.109000
     15 H5         -2.3900   -0.9340   -0.2350 ho        1 1CW      0.287000
     16 H6         -0.2830   -0.0220   -3.2430 hn        1 1CW      0.145500
     17 H7         -1.6560    0.1450   -2.4710 hn        1 1CW      0.145500
@<TRIPOS>BOND
     1    1    2 1   
     2    2    3 1   
     3    4    5 1   
     4    5   12 1   
     5    6    7 1   
     6    6   13 1   
     7    7   14 1   
     8    8   10 1   
     9    9   15 1   
    10   11   16 1   
    11   11   17 1   
@<TRIPOS>SUBSTRUCTURE
     1 1CW         1 TEMP              0 ****  ****    0 ROOT
