@<TRIPOS>MOLECULE
1CW
   17    17     1     0     0
SMALL
bcc


@<TRIPOS>ATOM
      1 O          -0.1090   -0.0870   -0.0560 o         1 1CW     -0.833300
      2 C5          1.1620   -0.0700   -0.0300 c         1 1CW      0.916200
      3 O1          1.8250   -0.0760    1.0430 o         1 1CW     -0.833300
      4 C4          1.9190   -0.0440   -1.3450 ca        1 1CW     -0.199600
      5 C3          3.3150   -0.0230   -1.3040 ca        1 1CW     -0.082000
      6 C2          4.0670   -0.0070   -2.4740 ca        1 1CW     -0.195000
      7 C1          3.4380   -0.0050   -3.7150 ca        1 1CW     -0.126000
      8 C6          1.2800   -0.0500   -2.5960 ca        1 1CW      0.141100
      9 O2         -0.0820   -0.0890   -2.7530 oh        1 1CW     -0.570100
     10 C           2.0360   -0.0210   -3.8080 ca        1 1CW      0.003600
     11 N           1.4180    0.0400   -5.0880 nh        1 1CW     -0.779200
     12 H2          3.8000   -0.0220   -0.3130 ha        1 1CW      0.152000
     13 H3          5.1650    0.0060   -2.4230 ha        1 1CW      0.106000
     14 H4          4.0440    0.0130   -4.6330 ha        1 1CW      0.112000
     15 H5         -0.5060   -0.0680   -1.8670 ho        1 1CW      0.488000
     16 H6          1.5620   -0.8260   -5.5730 hn        1 1CW      0.350300
     17 H7          0.4310    0.1930   -4.9860 hn        1 1CW      0.350300
@<TRIPOS>BOND
     1    1    2 1   
     2    2    3 1   
     3    2    4 1   
     4    4    5 ar  
     5    4    8 ar  
     6    5    6 ar  
     7    5   12 1   
     8    6    7 ar  
     9    6   13 1   
    10    7   10 ar  
    11    7   14 1   
    12    8    9 1   
    13    8   10 ar  
    14    9   15 1   
    15   10   11 1   
    16   11   16 1   
    17   11   17 1   
@<TRIPOS>SUBSTRUCTURE
     1 1CW         1 TEMP              0 ****  ****    0 ROOT
