@<TRIPOS>MOLECULE
1CX
   36    37     1     0     0
SMALL
bcc


@<TRIPOS>ATOM
      1 N1          1.0480    0.1840    0.4670 ne        1 1CX     -0.552100
      2 C4         -1.1920    0.2100   -0.5940 ca        1 1CX     -0.133000
      3 C5         -2.5520   -0.0690   -0.5260 ca        1 1CX     -0.102000
      4 C6         -3.1230   -0.5160    0.6660 ca        1 1CX      0.046900
      5 C7          3.1440    1.2460    0.0420 cf        1 1CX     -0.243800
      6 C8          3.8150    2.4210    0.0700 ce        1 1CX     -0.016000
      7 C10         1.8180    3.7350   -0.3130 c2        1 1CX      0.112300
      8 C13         3.9200   -0.0260    0.1430 c         1 1CX      0.632300
      9 C15         5.6430   -4.0080   -0.5250 c3        1 1CX      0.126400
     10 C1         -2.3280   -0.6880    1.7930 ca        1 1CX     -0.133000
     11 C2         -0.9470   -0.4190    1.7390 ca        1 1CX      0.151900
     12 C3         -0.3510    0.0410    0.5250 ca        1 1CX      0.093400
     13 I1         -5.1000   -0.9160    0.7580 i         1 1CX     -0.117900
     14 C9          3.1390    3.6890   -0.0170 ce        1 1CX     -0.174000
     15 C11         0.9900    2.4810   -0.5560 c3        1 1CX      0.105500
     16 C12         1.6700    1.2170    0.0020 cf        1 1CX      0.485600
     17 F2          0.7220    2.3290   -1.9090 f         1 1CX     -0.211300
     18 F3         -0.2100   -0.5900    2.8580 f         1 1CX     -0.116900
     19 O1          4.9100   -0.1080    0.8890 o         1 1CX     -0.555100
     20 N2          3.5960   -1.0570   -0.7840 n         1 1CX     -0.340400
     21 O2          4.0560   -2.2730   -0.4560 os        1 1CX     -0.276900
     22 C14         5.4050   -2.5570   -0.9230 c3        1 1CX      0.083400
     23 O3          4.8920   -4.9010   -1.3220 oh        1 1CX     -0.598800
     24 H4         -0.7630    0.5560   -1.5500 ha        1 1CX      0.157000
     25 H5         -3.1730    0.0700   -1.4260 ha        1 1CX      0.156000
     26 H8          4.9160    2.4330    0.1650 ha        1 1CX      0.170000
     27 H15         6.7160   -4.2760   -0.7190 h1        1 1CX      0.060200
     28 H15A        5.4000   -4.1570    0.5610 h1        1 1CX      0.060200
     29 H1         -2.7540   -1.0400    2.7470 ha        1 1CX      0.167000
     30 H9          3.7230    4.6070    0.1570 ha        1 1CX      0.167000
     31 H11        -0.0040    2.6230   -0.0250 h1        1 1CX      0.093700
     32 HN2         2.6050   -1.1530   -0.9690 hn        1 1CX      0.310500
     33 H14         6.1250   -1.8740   -0.4060 h1        1 1CX      0.063700
     34 H14A        5.4590   -2.4270   -2.0330 h1        1 1CX      0.063700
     35 HO3         3.9610   -4.6830   -1.1890 ho        1 1CX      0.409000
     36 F1          1.1400    4.8950   -0.4320 f         1 1CX     -0.145500
@<TRIPOS>BOND
     1    1   12 1   
     2    1   16 2   
     3    2    3 ar  
     4    2   12 ar  
     5    2   24 1   
     6    3    4 ar  
     7    3   25 1   
     8    4   10 ar  
     9    4   13 1   
    10    5    6 2   
    11    5    8 1   
    12    5   16 1   
    13    6   14 1   
    14    6   26 1   
    15    7   14 2   
    16    7   15 1   
    17    7   36 1   
    18    8   19 2   
    19    8   20 1   
    20    9   22 1   
    21    9   23 1   
    22    9   27 1   
    23    9   28 1   
    24   10   11 ar  
    25   10   29 1   
    26   11   12 ar  
    27   11   18 1   
    28   14   30 1   
    29   15   16 1   
    30   15   17 1   
    31   15   31 1   
    32   20   21 1   
    33   20   32 1   
    34   21   22 1   
    35   22   33 1   
    36   22   34 1   
    37   23   35 1   
@<TRIPOS>SUBSTRUCTURE
     1 1CX         1 TEMP              0 ****  ****    0 ROOT
