@<TRIPOS>MOLECULE
1CX
   37    38     1     0     0
SMALL
bcc


@<TRIPOS>ATOM
      1 N1          0.1990    0.3920   -0.1270 n2        1 1CX     -0.099000
      2 C4          2.6130   -0.0230   -0.0250 c2        1 1CX     -0.165000
      3 C5          3.8010   -0.2300    0.7620 c2        1 1CX      0.012000
      4 C6          3.7300   -0.3790    2.1160 c2        1 1CX     -0.354000
      5 C7         -1.6740    0.2340   -1.6550 c3        1 1CX     -0.085000
      6 C8         -2.7030    0.7320   -0.6320 c3        1 1CX     -0.178000
      7 C10        -0.6760   -2.7550   -1.2780 c2        1 1CX     -0.250000
      8 C13        -1.4410    1.4360   -2.5650 c2        1 1CX      0.310000
      9 C15        -3.1280    2.1290   -1.0950 c3        1 1CX      0.332000
     10 C1          2.4820   -0.5480    2.7590 c1        1 1CX      0.009000
     11 C2          1.2480   -0.1120    2.0740 c3        1 1CX      0.062000
     12 C3          1.3740    0.0280    0.5440 c2        1 1CX     -0.066000
     13 I1          5.3670   -0.5400    3.2770 i         1 1CX      0.240000
     14 C9         -1.9930   -2.5850   -1.0630 c1        1 1CX      0.262000
     15 C11         0.1510   -1.5520   -1.7370 c3        1 1CX      0.084000
     16 C12        -0.3640   -0.2650   -1.0770 c2        1 1CX     -0.061000
     17 F3          0.1440   -0.8700    2.4240 f         1 1CX     -0.120000
     18 O1         -2.1790    2.4970   -2.2400 os        1 1CX     -0.237000
     19 N2         -0.6190    1.4990   -3.5990 n8        1 1CX     -0.253000
     20 O2         -3.0660    3.2560   -0.3160 os        1 1CX     -0.255000
     21 C14        -2.0730    3.3220    0.7110 c3        1 1CX     -0.073000
     22 O3         -4.3410    2.1430   -1.7290 oh        1 1CX     -0.274000
     23 H4          2.7610    0.1340   -1.1070 ha        1 1CX      0.147000
     24 H5          4.7600   -0.2730    0.2130 ha        1 1CX      0.171000
     25 H8         -2.1380   -0.5910   -2.2790 hc        1 1CX      0.182000
     26 H15        -2.3550    2.6410    1.5510 h1        1 1CX      0.108667
     27 H15A       -3.6020    0.0570   -0.6240 hc        1 1CX      0.173000
     28 H1          1.0900    0.9510    2.4800 h1        1 1CX      0.165000
     29 H9         -2.2960    0.7790    0.4090 hc        1 1CX      0.173000
     30 H11         1.2250   -1.7480   -1.4250 h1        1 1CX      0.163000
     31 HN2        -0.0790    0.6960   -3.8630 hn        1 1CX      0.292500
     32 H14        -2.1200    4.3940    1.0360 h1        1 1CX      0.108667
     33 H14A       -1.0670    3.0690    0.3020 h1        1 1CX      0.108667
     34 HO3        -4.6890    3.0540   -1.7630 ho        1 1CX      0.279000
     35 F1          0.0290   -3.9000   -1.1290 f         1 1CX     -0.047000
     36 H22        -0.5490    2.3320   -4.1520 hn        1 1CX      0.292500
     37 F2          0.1300   -1.4090   -3.1170 f         1 1CX     -0.157000
@<TRIPOS>BOND
     1    1   12 1   
     2    1   16 1   
     3    2    3 1   
     4    2   12 1   
     5    2   23 1   
     6    3    4 1   
     7    3   24 1   
     8    4   10 1   
     9    4   13 1   
    10    5    6 1   
    11    5    8 1   
    12    5   16 1   
    13    5   25 1   
    14    6    9 1   
    15    6   27 1   
    16    6   29 1   
    17    7   14 1   
    18    7   15 1   
    19    7   35 1   
    20    8   18 1   
    21    8   19 1   
    22    9   18 1   
    23    9   20 1   
    24    9   22 1   
    25   10   11 1   
    26   11   12 1   
    27   11   17 1   
    28   11   28 1   
    29   15   16 1   
    30   15   30 1   
    31   15   37 1   
    32   19   31 1   
    33   19   36 1   
    34   20   21 1   
    35   21   26 1   
    36   21   32 1   
    37   21   33 1   
    38   22   34 1   
@<TRIPOS>SUBSTRUCTURE
     1 1CX         1 TEMP              0 ****  ****    0 ROOT
