@<TRIPOS>MOLECULE
1CX
   37    37     1     0     0
SMALL
bcc


@<TRIPOS>ATOM
      1 N1          0.5710    0.1120   -0.3800 n2        1 1CX     -0.112000
      2 C4          3.0020   -0.2090   -0.3750 c2        1 1CX     -0.158000
      3 C5          4.2580   -0.1400    0.3250 c2        1 1CX      0.007000
      4 C6          4.3000    0.1360    1.6610 c2        1 1CX     -0.351000
      5 C7         -1.3170   -0.5420   -1.7800 c3        1 1CX     -0.105000
      6 C8         -2.2320   -1.6490   -1.4270 c1        1 1CX     -0.071000
      7 C10        -0.3860   -3.2180   -1.4590 c2        1 1CX      0.214000
      8 C13        -1.9590    0.7750   -1.3600 c2        1 1CX      0.350000
      9 C15        -4.0390    4.8060   -1.3790 c1        1 1CX      0.208000
     10 C1          3.1160    0.1280    2.4330 c1        1 1CX      0.001000
     11 C2          1.8130    0.3200    1.7660 c3        1 1CX      0.062000
     12 C3          1.8100   -0.0060    0.2610 c2        1 1CX     -0.071000
     13 I1          6.0270    0.3920    2.6630 i         1 1CX      0.239000
     14 C9         -1.7350   -2.9530   -1.3820 c2        1 1CX     -0.269000
     15 C11         0.6590   -2.0990   -1.6140 c3        1 1CX      0.043000
     16 C12         0.0580   -0.7540   -1.1770 c2        1 1CX     -0.036000
     17 F3          0.7760   -0.3190    2.4250 f         1 1CX     -0.126000
     18 O1         -1.3460    1.8500   -1.8790 oh        1 1CX     -0.196000
     19 N2         -3.0390    0.8360   -0.5980 n3        1 1CX     -0.265000
     20 O2         -3.2910    3.8170   -0.7940 os        1 1CX     -0.432000
     21 C14        -2.7960    4.1500    0.5130 c3        1 1CX     -0.051000
     22 O3         -4.4290    4.3930   -2.5530 oh        1 1CX     -0.222000
     23 H4          3.0490   -0.3850   -1.4650 ha        1 1CX      0.159000
     24 H5          5.1710   -0.3320   -0.2680 ha        1 1CX      0.172000
     25 H8         -1.1940   -0.4980   -2.9120 hc        1 1CX      0.208000
     26 H15        -2.9770    5.2280    0.7480 h1        1 1CX      0.103667
     27 H15A       -1.7170    2.7100   -1.5760 ho        1 1CX      0.292000
     28 H1          1.6390    1.4520    1.8500 h1        1 1CX      0.163000
     29 H9         -2.4570   -3.7810   -1.2440 ha        1 1CX      0.206000
     30 H11         1.5460   -2.3560   -0.9520 h1        1 1CX      0.160000
     31 HN2        -3.4760   -0.0320   -0.3130 hn        1 1CX      0.302000
     32 H14        -1.7020    3.9270    0.4920 h1        1 1CX      0.103667
     33 H14A       -3.3350    3.4950    1.2410 h1        1 1CX      0.103667
     34 HO3        -4.1550    3.5000   -2.8330 ho        1 1CX      0.202000
     35 F1          0.1170   -4.4450   -1.3570 f         1 1CX     -0.021000
     36 H22        -3.4640    1.7050   -0.3290 hn        1 1CX      0.302000
     37 F2          1.1070   -2.0270   -2.9200 f         1 1CX     -0.113000
@<TRIPOS>BOND
     1    1   12 1   
     2    1   16 1   
     3    2    3 1   
     4    2   12 1   
     5    2   23 1   
     6    3    4 1   
     7    3   24 1   
     8    4   10 1   
     9    4   13 1   
    10    5    6 1   
    11    5    8 1   
    12    5   16 1   
    13    5   25 1   
    14    6   14 1   
    15    7   14 1   
    16    7   15 1   
    17    7   35 1   
    18    8   18 1   
    19    8   19 1   
    20    9   20 1   
    21    9   22 1   
    22   10   11 1   
    23   11   12 1   
    24   11   17 1   
    25   11   28 1   
    26   14   29 1   
    27   15   16 1   
    28   15   30 1   
    29   15   37 1   
    30   18   27 1   
    31   19   31 1   
    32   19   36 1   
    33   20   21 1   
    34   21   26 1   
    35   21   32 1   
    36   21   33 1   
    37   22   34 1   
@<TRIPOS>SUBSTRUCTURE
     1 1CX         1 TEMP              0 ****  ****    0 ROOT
