@<TRIPOS>MOLECULE
1CX
   36    30     1     0     0
SMALL
bcc


@<TRIPOS>ATOM
      1 N1          1.1150    0.3670    1.2790 n1        1 1CX     -0.106000
      2 C4          3.5240    0.1740    1.2900 c1        1 1CX     -0.097500
      3 C5          4.7520    0.2110    1.9810 c1        1 1CX     -0.097500
      4 C6          4.7670    0.3100    3.3750 c1        1 1CX     -0.250000
      5 C7         -0.8660   -0.5730    0.1430 c1        1 1CX     -0.125000
      6 C8         -1.8210   -1.7160    0.0800 c1        1 1CX     -0.049000
      7 C10        -0.1170   -3.1810    1.4760 c1        1 1CX      0.065000
      8 C13        -1.1490    0.7190   -0.6750 c1        1 1CX      0.304000
      9 C15        -3.3920    2.0290   -4.7320 c3        1 1CX     -0.026000
     10 C1          3.5770    0.3720    4.0760 c1        1 1CX     -0.117000
     11 C2          2.3490    0.3360    3.3820 c1        1 1CX      0.059000
     12 C3          2.3380    0.2370    1.9870 c1        1 1CX     -0.021000
     13 I1          6.5510    0.8520    4.3090 i         1 1CX      0.162000
     14 C9         -1.4870   -3.0150    0.7700 c1        1 1CX     -0.183000
     15 C11         0.9800   -2.1190    1.2750 c2        1 1CX      0.065000
     16 C12         0.4480   -0.7170    0.9030 c2        1 1CX      0.051000
     17 F1          0.1520   -4.2650    2.1150 f         1 1CX     -0.082000
     18 F2          1.9580   -2.5620    0.3300 f         1 1CX     -0.133000
     19 F3          1.1680    0.5690    4.0630 f         1 1CX     -0.105000
     20 O1         -0.3360    1.6960   -0.6220 o         1 1CX     -0.288000
     21 N2         -2.2950    0.7680   -1.5930 n3        1 1CX     -0.183000
     22 O2         -2.1610    1.3550   -2.8050 os        1 1CX     -0.220000
     23 C14        -3.4140    1.8340   -3.2400 c3        1 1CX     -0.064000
     24 O3         -4.6770    2.4210   -5.1680 oh        1 1CX     -0.325000
     25 H4          3.5150    0.1060    0.3050 ha        1 1CX      0.158000
     26 H5          5.5990    0.1650    1.4830 ha        1 1CX      0.158000
     27 H8         -2.7120   -1.6020   -0.3820 ha        1 1CX      0.152000
     28 H15        -3.1470    1.2060   -5.1560 h1        1 1CX      0.099500
     29 H15A       -2.7370    2.7270   -4.9670 h1        1 1CX      0.099500
     30 H1          3.5870    0.4440    5.1010 ha        1 1CX      0.163000
     31 H9         -2.1120   -3.7650    0.7300 ha        1 1CX      0.164000
     32 H11         1.5520   -2.0540    2.1200 h4        1 1CX      0.138000
     33 HN2        -3.0920    0.2750   -1.3870 hn        1 1CX      0.210000
     34 H14        -3.6100    2.6960   -2.7970 h1        1 1CX      0.107500
     35 H14A       -4.1420    1.1540   -2.9990 h1        1 1CX      0.107500
     36 HO3        -4.6660    2.5440   -6.0480 ho        1 1CX      0.206000
@<TRIPOS>BOND
     1    1   16 1   
     2    2    3 1   
     3    2   25 1   
     4    3   26 1   
     5    4   10 1   
     6    4   13 1   
     7    5    6 1   
     8    5   16 1   
     9    6   27 1   
    10    7   14 1   
    11    7   17 1   
    12    8   20 1   
    13    8   21 1   
    14    9   23 1   
    15    9   24 1   
    16    9   28 1   
    17    9   29 1   
    18   10   30 1   
    19   11   12 1   
    20   11   19 1   
    21   14   31 1   
    22   15   16 1   
    23   15   18 1   
    24   15   32 1   
    25   21   22 1   
    26   21   33 1   
    27   22   23 1   
    28   23   34 1   
    29   23   35 1   
    30   24   36 1   
@<TRIPOS>SUBSTRUCTURE
     1 1CX         1 TEMP              0 ****  ****    0 ROOT
