@<TRIPOS>MOLECULE
1CY
   33    34     1     0     0
SMALL
bcc


@<TRIPOS>ATOM
      1 N1          0.0720    0.3840   -0.0150 n2        1 1CY     -0.547900
      2 C2          1.3750    0.3970    0.0440 ce        1 1CY      0.710200
      3 N3          2.2140   -0.0760    1.1010 ne        1 1CY     -0.794000
      4 C4          1.5280   -0.5780    2.1420 c2        1 1CY      0.789100
      5 N5          0.1660   -0.6440    2.2690 nh        1 1CY     -0.619000
      6 C6         -0.7090   -0.1620    1.1130 c3        1 1CY      0.455400
      7 N7          2.1330    0.9610   -1.1160 n4        1 1CY     -0.780600
      8 N8          2.3750   -1.0900    3.2760 n4        1 1CY     -0.807600
      9 C9         -1.5690   -1.3450    0.5990 c3        1 1CY     -0.114600
     10 C10        -1.6690    0.9380    1.6330 c3        1 1CY     -0.114600
     11 C11        -0.4440   -1.2440    3.4130 ca        1 1CY     -0.033400
     12 C12        -0.6030   -2.6460    3.4800 ca        1 1CY     -0.112500
     13 C13        -1.2210   -3.2220    4.5820 ca        1 1CY     -0.112000
     14 C14        -1.7000   -2.4170    5.6290 ca        1 1CY      0.063400
     15 C15        -1.5530   -1.0240    5.5590 ca        1 1CY     -0.112000
     16 C16        -0.9350   -0.4360    4.4600 ca        1 1CY     -0.112500
     17 CL17       -2.4520   -3.1210    6.9540 cl        1 1CY      0.029600
     18 HN7         1.4790    1.2830   -1.8480 hn        1 1CY      0.494467
     19 HN7A        2.7500    0.2340   -1.5040 hn        1 1CY      0.494467
     20 HN8         2.4740   -0.3430    3.9790 hn        1 1CY      0.499467
     21 HN8A        3.3110   -1.3560    2.9310 hn        1 1CY      0.499467
     22 H9         -2.2470   -0.9750   -0.2120 hc        1 1CY      0.087533
     23 H9A        -2.1990   -1.7340    1.4370 hc        1 1CY      0.087533
     24 H9B        -0.9420   -2.1750    0.1970 hc        1 1CY      0.087533
     25 H10        -1.1170    1.8140    2.0480 hc        1 1CY      0.087533
     26 H10A       -2.3180    1.2820    0.7880 hc        1 1CY      0.087533
     27 H10B       -2.3260    0.5050    2.4280 hc        1 1CY      0.087533
     28 H12        -0.2750   -3.2940    2.6500 ha        1 1CY      0.159000
     29 H13        -1.3510   -4.3190    4.6250 ha        1 1CY      0.192500
     30 H15        -1.9420   -0.3850    6.3730 ha        1 1CY      0.192500
     31 H16        -0.8550    0.6640    4.4140 ha        1 1CY      0.159000
     32 H73         2.7030    1.7560   -0.7930 hn        1 1CY      0.494467
     33 H83         1.9180   -1.9100    3.7100 hn        1 1CY      0.499467
@<TRIPOS>BOND
     1    1    2 2   
     2    1    6 1   
     3    2    3 1   
     4    2    7 1   
     5    3    4 2   
     6    4    5 1   
     7    4    8 1   
     8    5    6 1   
     9    5   11 1   
    10    6    9 1   
    11    6   10 1   
    12    7   18 1   
    13    7   19 1   
    14    7   32 1   
    15    8   20 1   
    16    8   21 1   
    17    8   33 1   
    18    9   22 1   
    19    9   23 1   
    20    9   24 1   
    21   10   25 1   
    22   10   26 1   
    23   10   27 1   
    24   11   12 ar  
    25   11   16 ar  
    26   12   13 ar  
    27   12   28 1   
    28   13   14 ar  
    29   13   29 1   
    30   14   15 ar  
    31   14   17 1   
    32   15   16 ar  
    33   15   30 1   
    34   16   31 1   
@<TRIPOS>SUBSTRUCTURE
     1 1CY         1 TEMP              0 ****  ****    0 ROOT
