@<TRIPOS>MOLECULE
1CY
   33    34     1     0     0
SMALL
bcc


@<TRIPOS>ATOM
      1 N1          0.0730    0.3510   -0.0300 n2        1 1CY     -0.547900
      2 C2          1.3740    0.3980    0.0450 ce        1 1CY      0.710200
      3 N3          2.2120   -0.0350    1.1200 ne        1 1CY     -0.794000
      4 C4          1.5260   -0.5380    2.1590 c2        1 1CY      0.789100
      5 N5          0.1640   -0.6370    2.2710 nh        1 1CY     -0.619000
      6 C6         -0.7080   -0.1970    1.0970 c3        1 1CY      0.455400
      7 N7          2.1320    0.9640   -1.1150 nz        1 1CY     -0.780600
      8 N8          2.3710   -1.0110    3.3120 nz        1 1CY     -0.807600
      9 C9         -1.5310   -1.4090    0.5910 c3        1 1CY     -0.114600
     10 C10        -1.7030    0.8860    1.5870 c3        1 1CY     -0.114600
     11 C11        -0.4450   -1.2350    3.4170 ca        1 1CY     -0.033400
     12 C12        -0.5680   -2.6400    3.5040 ca        1 1CY     -0.112500
     13 C13        -1.1850   -3.2140    4.6080 ca        1 1CY     -0.112000
     14 C14        -1.6980   -2.4060    5.6360 ca        1 1CY      0.063400
     15 C15        -1.5860   -1.0110    5.5450 ca        1 1CY     -0.112000
     16 C16        -0.9690   -0.4240    4.4450 ca        1 1CY     -0.112500
     17 Cl17       -2.4490   -3.1080    6.9630 cl        1 1CY      0.029600
     18 HN7         2.7720    0.2470   -1.4840 hn        1 1CY      0.494467
     19 HN7A        2.6770    1.7780   -0.7980 hn        1 1CY      0.494467
     20 HN8         1.9300   -1.8350    3.7540 hn        1 1CY      0.499467
     21 HN8A        2.4410   -0.2500    4.0050 hn        1 1CY      0.499467
     22 H9         -2.2080   -1.0700   -0.2330 hc        1 1CY      0.087533
     23 H9A        -0.8780   -2.2290    0.2110 hc        1 1CY      0.087533
     24 H9B        -2.1620   -1.8010    1.4280 hc        1 1CY      0.087533
     25 H10        -2.3580    0.4490    2.3810 hc        1 1CY      0.087533
     26 H10A       -1.1790    1.7820    1.9950 hc        1 1CY      0.087533
     27 H10B       -2.3490    1.2010    0.7290 hc        1 1CY      0.087533
     28 H12        -0.2130   -3.2920    2.6890 ha        1 1CY      0.159000
     29 H13        -1.2870   -4.3140    4.6670 ha        1 1CY      0.192500
     30 H15        -2.0010   -0.3690    6.3440 ha        1 1CY      0.192500
     31 H16        -0.9170    0.6770    4.3830 ha        1 1CY      0.159000
     32 H73         1.4790    1.2580   -1.8600 hn        1 1CY      0.494467
     33 H83         3.3180   -1.2580    2.9820 hn        1 1CY      0.499467
@<TRIPOS>BOND
     1    1    2 2   
     2    1    6 1   
     3    2    3 1   
     4    2    7 1   
     5    3    4 2   
     6    4    5 1   
     7    4    8 1   
     8    5    6 1   
     9    5   11 1   
    10    6    9 1   
    11    6   10 1   
    12    7   18 1   
    13    7   19 1   
    14    7   32 1   
    15    8   20 1   
    16    8   21 1   
    17    8   33 1   
    18    9   22 1   
    19    9   23 1   
    20    9   24 1   
    21   10   25 1   
    22   10   26 1   
    23   10   27 1   
    24   11   12 ar  
    25   11   16 ar  
    26   12   13 ar  
    27   12   28 1   
    28   13   14 ar  
    29   13   29 1   
    30   14   15 ar  
    31   14   17 1   
    32   15   16 ar  
    33   15   30 1   
    34   16   31 1   
@<TRIPOS>SUBSTRUCTURE
     1 1CY         1 TEMP              0 ****  ****    0 ROOT
