@<TRIPOS>MOLECULE
1CY
   31    27     1     0     0
SMALL
bcc


@<TRIPOS>ATOM
      1 N1          0.4230    0.2850   -2.6000 n1        1 1CY     -0.323000
      2 C2          1.8190    0.1370   -2.6060 c1        1 1CY      0.174000
      3 N3          2.5250    0.0470   -1.3850 n1        1 1CY     -0.332000
      4 C4          1.8310    0.1010   -0.1700 c1        1 1CY      0.253000
      5 N5          0.3970    0.1010   -0.1640 n3        1 1CY     -0.296000
      6 C6         -0.3400   -0.0680   -1.4170 c2        1 1CY      0.172000
      7 N7          2.4890    0.0300   -3.7940 n3        1 1CY     -0.310000
      8 N8          2.5490    0.1510    1.0560 n2        1 1CY     -0.336000
      9 C9         -0.7130   -1.5260   -1.5350 c3        1 1CY     -0.220000
     10 C10        -1.6270    0.7690   -1.3750 c3        1 1CY     -0.220000
     11 C11        -0.3200    0.1520    1.0920 c2        1 1CY      0.032000
     12 C12        -0.8640    1.3510    1.5330 c2        1 1CY     -0.112000
     13 C13        -1.5300    1.4060    2.7540 c1        1 1CY     -0.126000
     14 C14        -1.6490    0.2510    3.5390 c1        1 1CY     -0.061000
     15 C15        -1.1080   -0.9400    3.1000 c1        1 1CY     -0.123000
     16 C16        -0.4390   -0.9950    1.8730 c1        1 1CY     -0.130000
     17 CL17       -2.4270    0.3370    5.1250 cl        1 1CY     -0.007000
     18 HN7         2.0380    0.0880   -4.5700 hn        1 1CY      0.203000
     19 HN7A        3.3980   -0.1480   -3.7980 hn        1 1CY      0.203000
     20 HN8         2.2780    0.6990    1.7130 hn        1 1CY      0.215500
     21 HN8A        3.3020   -0.3460    1.1620 hn        1 1CY      0.215500
     22 H9          0.0340   -2.0740   -1.2540 hc        1 1CY      0.085833
     23 H9A        -1.4750   -1.7090   -0.9730 hc        1 1CY      0.085833
     24 H9B        -0.9390   -1.7320   -2.4700 hc        1 1CY      0.085833
     25 H10        -2.1240    0.6530   -2.2250 hc        1 1CY      0.085833
     26 H10A       -2.1870    0.4720   -0.6260 hc        1 1CY      0.085833
     27 H10B       -1.3990    1.7100   -1.2580 hc        1 1CY      0.085833
     28 H12        -0.7790    2.1700    0.9750 ha        1 1CY      0.154000
     29 H13        -1.9100    2.2440    3.0620 ha        1 1CY      0.152000
     30 H15        -1.1940   -1.7780    3.6700 ha        1 1CY      0.152000
     31 H16        -0.0570   -1.8390    1.5620 ha        1 1CY      0.154000
@<TRIPOS>BOND
     1    1    2 1   
     2    2    7 1   
     3    3    4 1   
     4    4    5 1   
     5    5    6 1   
     6    5   11 1   
     7    6    9 1   
     8    6   10 1   
     9    7   18 1   
    10    7   19 1   
    11    8   20 1   
    12    8   21 1   
    13    9   22 1   
    14    9   23 1   
    15    9   24 1   
    16   10   25 1   
    17   10   26 1   
    18   10   27 1   
    19   11   12 1   
    20   11   16 1   
    21   12   13 1   
    22   12   28 1   
    23   13   29 1   
    24   14   15 1   
    25   14   17 1   
    26   15   30 1   
    27   16   31 1   
@<TRIPOS>SUBSTRUCTURE
     1 1CY         1 TEMP              0 ****  ****    0 ROOT
