@<TRIPOS>MOLECULE
1CY
   31    32     1     0     0
SMALL
bcc


@<TRIPOS>ATOM
      1 N1         -3.0470    0.9110    0.5680 n2        1 1CY     -0.734900
      2 C2         -3.5410   -0.3190    0.5220 ce        1 1CY      0.828200
      3 N3         -2.9200   -1.4440   -0.1120 ne        1 1CY     -0.838000
      4 C4         -1.6410   -1.2830   -0.4740 c2        1 1CY      0.844100
      5 N5         -0.9670   -0.0280   -0.4870 nh        1 1CY     -0.686000
      6 C6         -1.7550    1.1850   -0.0620 c3        1 1CY      0.446400
      7 N7         -4.7470   -0.6080    1.2000 nh        1 1CY     -0.872800
      8 N8         -0.9180   -2.4190   -0.8860 nh        1 1CY     -0.901800
      9 C9         -0.9190    2.0600    0.9140 c3        1 1CY     -0.095100
     10 C10        -1.9880    2.0550   -1.3350 c3        1 1CY     -0.095100
     11 C11         0.4400   -0.0190   -0.2880 ca        1 1CY      0.121600
     12 C12         1.0480   -0.7450    0.7600 ca        1 1CY     -0.126500
     13 C13         2.4300   -0.7440    0.9140 ca        1 1CY     -0.120000
     14 C14         3.2300   -0.0140    0.0310 ca        1 1CY      0.012400
     15 C15         2.6460    0.7130   -1.0110 ca        1 1CY     -0.120000
     16 C16         1.2640    0.7090   -1.1740 ca        1 1CY     -0.126500
     17 CL17        4.9180   -0.0100    0.2220 cl        1 1CY     -0.088400
     18 HN7        -5.3350    0.1810    1.3550 hn        1 1CY      0.408800
     19 HN7A       -5.2260   -1.4160    0.8700 hn        1 1CY      0.408800
     20 HN8        -1.4700   -3.2190   -1.1070 hn        1 1CY      0.423800
     21 HN8A       -0.1470   -2.2560   -1.4910 hn        1 1CY      0.423800
     22 H9          0.0020    2.4250    0.4000 hc        1 1CY      0.046367
     23 H9A        -1.5270    2.9420    1.2270 hc        1 1CY      0.046367
     24 H9B        -0.6280    1.4830    1.8230 hc        1 1CY      0.046367
     25 H10        -2.5680    1.4980   -2.1060 hc        1 1CY      0.046367
     26 H10A       -2.5560    2.9710   -1.0450 hc        1 1CY      0.046367
     27 H10B       -1.0080    2.3630   -1.7700 hc        1 1CY      0.046367
     28 H12         0.4280   -1.3260    1.4620 ha        1 1CY      0.152000
     29 H13         2.8880   -1.3160    1.7360 ha        1 1CY      0.151500
     30 H15         3.2750    1.2880   -1.7080 ha        1 1CY      0.151500
     31 H16         0.8190    1.2840   -2.0010 ha        1 1CY      0.152000
@<TRIPOS>BOND
     1    1    2 2   
     2    1    6 1   
     3    2    3 1   
     4    2    7 1   
     5    3    4 2   
     6    4    5 1   
     7    4    8 1   
     8    5    6 1   
     9    5   11 1   
    10    6    9 1   
    11    6   10 1   
    12    7   18 1   
    13    7   19 1   
    14    8   20 1   
    15    8   21 1   
    16    9   22 1   
    17    9   23 1   
    18    9   24 1   
    19   10   25 1   
    20   10   26 1   
    21   10   27 1   
    22   11   12 ar  
    23   11   16 ar  
    24   12   13 ar  
    25   12   28 1   
    26   13   14 ar  
    27   13   29 1   
    28   14   15 ar  
    29   14   17 1   
    30   15   16 ar  
    31   15   30 1   
    32   16   31 1   
@<TRIPOS>SUBSTRUCTURE
     1 1CY         1 TEMP              0 ****  ****    0 ROOT
