@<TRIPOS>MOLECULE
1CY
   33    34     1     0     0
SMALL
bcc


@<TRIPOS>ATOM
      1 N1          0.0670    0.3670   -0.0230 n2        1 1CY     -0.547900
      2 C2          1.3690    0.3870    0.0360 ce        1 1CY      0.710200
      3 N3          2.2110   -0.0730    1.0970 ne        1 1CY     -0.794000
      4 C4          1.5280   -0.5710    2.1410 c2        1 1CY      0.789100
      5 N5          0.1650   -0.6430    2.2680 nh        1 1CY     -0.619000
      6 C6         -0.7120   -0.1750    1.1080 c3        1 1CY      0.455400
      7 N7          2.1250    0.9470   -1.1280 n4        1 1CY     -0.780600
      8 N8          2.3770   -1.0700    3.2800 n4        1 1CY     -0.807600
      9 C9         -1.5650   -1.3670    0.6030 c3        1 1CY     -0.114600
     10 C10        -1.6790    0.9230    1.6200 c3        1 1CY     -0.114600
     11 C11        -0.4420   -1.2370    3.4170 ca        1 1CY     -0.033400
     12 C12        -0.5940   -2.6400    3.4940 ca        1 1CY     -0.112500
     13 C13        -1.2090   -3.2100    4.6010 ca        1 1CY     -0.112000
     14 C14        -1.6920   -2.4000    5.6420 ca        1 1CY      0.063400
     15 C15        -1.5520   -1.0060    5.5610 ca        1 1CY     -0.112000
     16 C16        -0.9370   -0.4230    4.4580 ca        1 1CY     -0.112500
     17 CL17       -2.4420   -3.0970    6.9720 cl        1 1CY      0.029600
     18 HN7         2.6910    1.7470   -0.8100 hn        1 1CY      0.494467
     19 HN7A        2.7460    0.2200   -1.5100 hn        1 1CY      0.494467
     20 HN8         2.4710   -0.3170    3.9770 hn        1 1CY      0.499467
     21 HN8A        3.3140   -1.3340    2.9360 hn        1 1CY      0.499467
     22 H9         -2.1930   -1.7530    1.4440 hc        1 1CY      0.087533
     23 H9A        -0.9330   -2.1960    0.2080 hc        1 1CY      0.087533
     24 H9B        -2.2440   -1.0070   -0.2110 hc        1 1CY      0.087533
     25 H10        -1.1320    1.8050    2.0280 hc        1 1CY      0.087533
     26 H10A       -2.3290    1.2580    0.7720 hc        1 1CY      0.087533
     27 H10B       -2.3330    0.4930    2.4180 hc        1 1CY      0.087533
     28 H12        -0.2630   -3.2930    2.6700 ha        1 1CY      0.159000
     29 H13        -1.3330   -4.3080    4.6530 ha        1 1CY      0.192500
     30 H15        -1.9440   -0.3620    6.3700 ha        1 1CY      0.192500
     31 H16        -0.8620    0.6760    4.4030 ha        1 1CY      0.159000
     32 H73         1.4700    1.2600   -1.8620 hn        1 1CY      0.494467
     33 H83         1.9240   -1.8890    3.7200 hn        1 1CY      0.499467
@<TRIPOS>BOND
     1    1    2 2   
     2    1    6 1   
     3    2    3 1   
     4    2    7 1   
     5    3    4 2   
     6    4    5 1   
     7    4    8 1   
     8    5    6 1   
     9    5   11 1   
    10    6    9 1   
    11    6   10 1   
    12    7   18 1   
    13    7   19 1   
    14    7   32 1   
    15    8   20 1   
    16    8   21 1   
    17    8   33 1   
    18    9   22 1   
    19    9   23 1   
    20    9   24 1   
    21   10   25 1   
    22   10   26 1   
    23   10   27 1   
    24   11   12 ar  
    25   11   16 ar  
    26   12   13 ar  
    27   12   28 1   
    28   13   14 ar  
    29   13   29 1   
    30   14   15 ar  
    31   14   17 1   
    32   15   16 ar  
    33   15   30 1   
    34   16   31 1   
@<TRIPOS>SUBSTRUCTURE
     1 1CY         1 TEMP              0 ****  ****    0 ROOT
