@<TRIPOS>MOLECULE
1D0
   46    47     1     0     0
SMALL
bcc


@<TRIPOS>ATOM
      1 N1          0.4670    1.1430   -0.8330 nb        1 1D0     -0.680000
      2 C2          1.4600   -0.5490    9.7060 ca        1 1D0      0.090100
      3 C4          1.3870   -2.8360   10.4970 ca        1 1D0     -0.173000
      4 C5          1.8760   -3.2700    9.2690 ca        1 1D0     -0.145000
      5 C6          2.1780   -2.3590    8.2610 ca        1 1D0     -0.149000
      6 O           1.2600    0.7740   10.0200 oh        1 1D0     -0.558100
      7 C3          1.1730   -1.4770   10.7130 ca        1 1D0     -0.153000
      8 C1          2.0040   -0.9710    8.4520 ca        1 1D0      0.109600
      9 N           2.4580   -0.0490    7.4950 nu        1 1D0     -0.711600
     10 O3P         5.6470   -1.8710   -1.3580 o         1 1D0     -0.925500
     11 P           4.2050   -1.9860   -0.9550 p5        1 1D0      1.315900
     12 O1P         3.1850   -1.6090   -2.0030 o         1 1D0     -0.925500
     13 O2P         3.8410   -3.1730   -0.1030 o         1 1D0     -0.925500
     14 O4P         4.0090   -0.6640    0.1570 os        1 1D0     -0.562200
     15 C5M         3.0340   -0.8060    1.1090 c3        1 1D0      0.246700
     16 C51         1.8550    0.1150    0.8820 ca        1 1D0     -0.159600
     17 C61         1.4790    0.3520   -0.4690 ca        1 1D0      0.364200
     18 C41         1.1100    0.7160    1.9100 ca        1 1D0     -0.143300
     19 C31         0.0390    1.5540    1.5270 ca        1 1D0      0.018800
     20 O3         -0.7900    2.2480    2.3800 oh        1 1D0     -0.551100
     21 C21        -0.2500    1.7480    0.1510 ca        1 1D0      0.297600
     22 C2A        -1.3840    2.6510   -0.2040 c3        1 1D0     -0.104400
     23 C4A         1.5320    0.4230    3.3240 c3        1 1D0      0.150100
     24 N2          0.7060    0.9560    4.3790 n2        1 1D0     -0.619900
     25 CA          0.9320    0.6860    5.6150 ce        1 1D0      0.352300
     26 C           0.0480    1.2800    6.7240 c         1 1D0      0.828300
     27 OXT         0.5960    2.1160    7.5140 o         1 1D0     -0.833300
     28 O1         -1.1330    0.8780    6.8550 o         1 1D0     -0.833300
     29 CB          2.0500   -0.2270    6.1160 c3        1 1D0      0.087500
     30 H1          1.1550   -3.5590   11.2900 ha        1 1D0      0.099000
     31 H2          2.0270   -4.3430    9.0860 ha        1 1D0      0.108000
     32 H3          2.5710   -2.7310    7.3020 ha        1 1D0      0.140000
     33 H4          0.8370    1.2200    9.2520 ho        1 1D0      0.484000
     34 H5          0.7660   -1.1140   11.6660 ha        1 1D0      0.119000
     35 H6          2.3210    0.9080    7.7900 hn        1 1D0      0.426800
     36 H9          2.6450   -1.8710    1.1290 h1        1 1D0      0.014200
     37 H10         3.4810   -0.5680    2.1220 h1        1 1D0      0.014200
     38 H11         2.0820   -0.1910   -1.2700 h4        1 1D0      0.146100
     39 H12        -0.5870    1.9890    3.2950 ho        1 1D0      0.456000
     40 H13        -1.5710    2.6870   -1.3040 hc        1 1D0      0.018367
     41 H14        -2.3120    2.2990    0.3110 hc        1 1D0      0.018367
     42 H15        -1.1620    3.6850    0.1580 hc        1 1D0      0.018367
     43 H16         2.5860    0.8250    3.4400 h1        1 1D0      0.052700
     44 H17         1.6030   -0.7050    3.4180 h1        1 1D0      0.052700
     45 H19         2.9810   -0.0380    5.5010 h1        1 1D0      0.061700
     46 H20         1.7270   -1.2900    5.9260 h1        1 1D0      0.061700
@<TRIPOS>BOND
     1    1   17 ar  
     2    1   21 ar  
     3    2    6 1   
     4    2    7 ar  
     5    2    8 ar  
     6    3    4 ar  
     7    3    7 ar  
     8    3   30 1   
     9    4    5 ar  
    10    4   31 1   
    11    5    8 ar  
    12    5   32 1   
    13    6   33 1   
    14    7   34 1   
    15    8    9 1   
    16    9   29 1   
    17    9   35 1   
    18   10   11 1   
    19   11   12 1   
    20   11   13 1   
    21   11   14 1   
    22   14   15 1   
    23   15   16 1   
    24   15   36 1   
    25   15   37 1   
    26   16   17 ar  
    27   16   18 ar  
    28   17   38 1   
    29   18   19 ar  
    30   18   23 1   
    31   19   20 1   
    32   19   21 ar  
    33   20   39 1   
    34   21   22 1   
    35   22   40 1   
    36   22   41 1   
    37   22   42 1   
    38   23   24 1   
    39   23   43 1   
    40   23   44 1   
    41   24   25 2   
    42   25   26 1   
    43   25   29 1   
    44   26   27 1   
    45   26   28 1   
    46   29   45 1   
    47   29   46 1   
@<TRIPOS>SUBSTRUCTURE
     1 1D0         1 TEMP              0 ****  ****    0 ROOT
