@<TRIPOS>MOLECULE
1D0
   46    47     1     0     0
SMALL
bcc


@<TRIPOS>ATOM
      1 N1          3.5780   -3.3260   -0.6160 nb        1 1D0     -0.680000
      2 C2         -5.8780    1.6630    0.1590 ca        1 1D0      0.090100
      3 C4         -6.7690    2.0620    2.3740 ca        1 1D0     -0.173000
      4 C5         -5.4740    2.0870    2.8840 ca        1 1D0     -0.145000
      5 C6         -4.3760    1.9220    2.0450 ca        1 1D0     -0.149000
      6 O          -6.1680    1.4970   -1.1750 oh        1 1D0     -0.558100
      7 C3         -6.9710    1.8430    1.0140 ca        1 1D0     -0.153000
      8 C1         -4.5390    1.7280    0.6550 ca        1 1D0      0.109600
      9 N          -3.4290    1.7210   -0.2060 nh        1 1D0     -0.711600
     10 O3P         5.8510    1.4920    2.1800 o         1 1D0     -0.925500
     11 P           4.9260    0.3190    2.3300 p5        1 1D0      1.315900
     12 O1P         5.5290   -1.0440    2.0890 o         1 1D0     -0.925500
     13 O2P         3.9320    0.3910    3.4590 o         1 1D0     -0.925500
     14 O4P         3.9010    0.4550    0.9320 os        1 1D0     -0.562200
     15 C5M         2.6440   -0.0800    1.0420 c3        1 1D0      0.246700
     16 C51         2.4600   -1.3230    0.2010 ca        1 1D0     -0.159600
     17 C61         3.5800   -2.1950    0.0930 ca        1 1D0      0.364200
     18 C41         1.2630   -1.6720   -0.4470 ca        1 1D0     -0.143300
     19 C31         1.2600   -2.8690   -1.1980 ca        1 1D0      0.018800
     20 O3          0.1980   -3.3680   -1.9190 oh        1 1D0     -0.551100
     21 C21         2.4330   -3.6660   -1.2640 ca        1 1D0      0.297600
     22 C2A         2.3830   -4.9150   -2.0790 c3        1 1D0     -0.104400
     23 C4A         0.1000   -0.7310   -0.2910 c3        1 1D0      0.150100
     24 N2         -1.1560   -1.1400   -0.8680 n2        1 1D0     -0.619900
     25 CA         -2.2280   -0.4470   -0.7120 ce        1 1D0      0.352300
     26 C          -3.5530   -0.8930   -1.3520 c         1 1D0      0.828300
     27 OXT        -4.0260   -0.1540   -2.2740 o         1 1D0     -0.833300
     28 O1         -4.1440   -1.9070   -0.9060 o         1 1D0     -0.833300
     29 CB         -2.3200    0.8420    0.1030 c3        1 1D0      0.087500
     30 H1         -7.6300    2.1980    3.0410 ha        1 1D0      0.099000
     31 H2         -5.3090    2.2380    3.9600 ha        1 1D0      0.108000
     32 H3         -3.3620    1.9540    2.4740 ha        1 1D0      0.140000
     33 H4         -5.5920    0.7850   -1.5360 ho        1 1D0      0.484000
     34 H5         -7.9840    1.7960    0.5950 ha        1 1D0      0.119000
     35 H6         -3.6990    1.6350   -1.1760 hn        1 1D0      0.426800
     36 H9          2.4160   -0.3510    2.1190 h1        1 1D0      0.014200
     37 H10         1.8920    0.6950    0.7000 h1        1 1D0      0.014200
     38 H11         4.5160   -1.8970    0.6710 h4        1 1D0      0.146100
     39 H12        -0.5850   -2.8180   -1.7470 ho        1 1D0      0.456000
     40 H13         1.5350   -5.5530   -1.7270 hc        1 1D0      0.018367
     41 H14         2.1920   -4.6520   -3.1490 hc        1 1D0      0.018367
     42 H15         3.3300   -5.5030   -2.0160 hc        1 1D0      0.018367
     43 H16        -0.0250   -0.5450    0.8200 h1        1 1D0      0.052700
     44 H17         0.4160    0.2570   -0.7510 h1        1 1D0      0.052700
     45 H19        -1.3890    1.4580   -0.0800 h1        1 1D0      0.061700
     46 H20        -2.3280    0.5520    1.1920 h1        1 1D0      0.061700
@<TRIPOS>BOND
     1    1   17 ar  
     2    1   21 ar  
     3    2    6 1   
     4    2    7 ar  
     5    2    8 ar  
     6    3    4 ar  
     7    3    7 ar  
     8    3   30 1   
     9    4    5 ar  
    10    4   31 1   
    11    5    8 ar  
    12    5   32 1   
    13    6   33 1   
    14    7   34 1   
    15    8    9 1   
    16    9   29 1   
    17    9   35 1   
    18   10   11 1   
    19   11   12 1   
    20   11   13 1   
    21   11   14 1   
    22   14   15 1   
    23   15   16 1   
    24   15   36 1   
    25   15   37 1   
    26   16   17 ar  
    27   16   18 ar  
    28   17   38 1   
    29   18   19 ar  
    30   18   23 1   
    31   19   20 1   
    32   19   21 ar  
    33   20   39 1   
    34   21   22 1   
    35   22   40 1   
    36   22   41 1   
    37   22   42 1   
    38   23   24 1   
    39   23   43 1   
    40   23   44 1   
    41   24   25 2   
    42   25   26 1   
    43   25   29 1   
    44   26   27 1   
    45   26   28 1   
    46   29   45 1   
    47   29   46 1   
@<TRIPOS>SUBSTRUCTURE
     1 1D0         1 TEMP              0 ****  ****    0 ROOT
