@<TRIPOS>MOLECULE
1D0
   46    40     1     0     0
SMALL
bcc


@<TRIPOS>ATOM
      1 N1         -2.4310    0.1290   -4.6650 n1        1 1D0     -0.158000
      2 C2          1.9150   -1.3280    4.5520 c1        1 1D0      0.079000
      3 C4          0.7630   -1.2240    6.6460 c1        1 1D0     -0.152000
      4 C5         -0.1140   -0.2770    6.1190 c1        1 1D0     -0.152000
      5 C6          0.0230    0.1440    4.8120 c1        1 1D0     -0.152000
      6 O           3.0150   -1.7640    3.7970 oh        1 1D0     -0.273000
      7 C3          1.7690   -1.7440    5.8660 c1        1 1D0     -0.152000
      8 C1          1.0360   -0.3770    4.0190 c1        1 1D0     -0.035000
      9 N           1.2070    0.0690    2.7380 n3        1 1D0     -0.275000
     10 O3P         3.3760    2.1830   -4.4810 o         1 1D0     -1.246000
     11 P           3.0820    0.8360   -4.9700 p3        1 1D0      2.507000
     12 O1P         3.3760    0.7590   -6.4150 o         1 1D0     -1.246000
     13 O2P         3.9620   -0.1940   -4.2110 os        1 1D0     -1.253000
     14 O4P         1.5690    0.5190   -4.7290 os        1 1D0     -0.727000
     15 C5M         1.1000    0.4220   -3.3990 c3        1 1D0      0.082000
     16 C51        -0.4010    0.3070   -3.4100 c2        1 1D0     -0.057000
     17 C61        -1.0820    0.4480   -4.5940 c1        1 1D0     -0.097000
     18 C41        -1.0460   -0.1430   -2.3100 c2        1 1D0     -0.139000
     19 C31        -2.3790   -0.4590   -2.3750 c1        1 1D0      0.059000
     20 O3         -3.0300   -0.9420   -1.2500 oh        1 1D0     -0.302000
     21 C21        -3.0710   -0.3160   -3.5780 c1        1 1D0     -0.132000
     22 C2A        -4.6630   -0.5610   -3.6260 c3        1 1D0     -0.128000
     23 C4A        -0.2890   -0.2660   -0.9660 c3        1 1D0     -0.064000
     24 N2          0.1210    1.0310   -0.5260 n2        1 1D0     -0.220000
     25 CA          0.3080    1.2670    0.8020 c1        1 1D0     -0.073000
     26 C           0.7490    2.6320    1.2750 c2        1 1D0      0.368000
     27 OXT         1.8460    3.0350    0.9930 o         1 1D0     -0.568000
     28 O1         -0.0790    3.4010    1.8680 o         1 1D0     -0.568000
     29 CB          0.0750    0.1320    1.8240 c2        1 1D0     -0.093000
     30 H1          0.6640   -1.5130    7.5530 ha        1 1D0      0.132250
     31 H2         -0.8500    0.1000    6.6970 ha        1 1D0      0.132250
     32 H3         -0.5950    0.8120    4.4460 ha        1 1D0      0.132250
     33 H4          2.8830   -2.6220    3.5400 ho        1 1D0      0.247000
     34 H5          2.4210   -2.4490    6.2640 ha        1 1D0      0.132250
     35 H6          2.1170    0.2980    2.4130 hn        1 1D0      0.217000
     36 H9          1.4620   -0.3230   -3.0020 h1        1 1D0      0.063000
     37 H10         1.3730    1.2530   -2.8790 h1        1 1D0      0.063000
     38 H11        -0.6500    0.8040   -5.3380 ha        1 1D0      0.211000
     39 H12        -3.4580   -0.3130   -0.8800 ho        1 1D0      0.264000
     40 H13        -4.8560   -1.4760   -3.3920 hc        1 1D0      0.059333
     41 H14        -5.0000   -0.3770   -4.5420 hc        1 1D0      0.059333
     42 H15        -5.1140    0.0530   -2.9740 hc        1 1D0      0.059333
     43 H16         0.5270   -0.8530   -1.0890 h1        1 1D0      0.099000
     44 H17        -0.9010   -0.6780   -0.2720 h1        1 1D0      0.099000
     45 H19        -0.0120   -0.7390    1.3390 h4        1 1D0      0.098500
     46 H20        -0.7190    0.3010    2.3120 h4        1 1D0      0.098500
@<TRIPOS>BOND
     1    1   21 1   
     2    2    6 1   
     3    2    8 1   
     4    3    7 1   
     5    3   30 1   
     6    4    5 1   
     7    4   31 1   
     8    5   32 1   
     9    6   33 1   
    10    7   34 1   
    11    8    9 1   
    12    9   29 1   
    13    9   35 1   
    14   10   11 1   
    15   11   12 1   
    16   11   14 1   
    17   14   15 1   
    18   15   16 1   
    19   15   36 1   
    20   15   37 1   
    21   16   17 1   
    22   16   18 1   
    23   17   38 1   
    24   18   19 1   
    25   18   23 1   
    26   19   20 1   
    27   20   39 1   
    28   21   22 1   
    29   22   40 1   
    30   22   41 1   
    31   22   42 1   
    32   23   24 1   
    33   23   43 1   
    34   23   44 1   
    35   24   25 1   
    36   25   26 1   
    37   26   27 1   
    38   26   28 1   
    39   29   45 1   
    40   29   46 1   
@<TRIPOS>SUBSTRUCTURE
     1 1D0         1 TEMP              0 ****  ****    0 ROOT
