@<TRIPOS>MOLECULE
1D0
   46    47     1     0     0
SMALL
bcc


@<TRIPOS>ATOM
      1 N1          0.4420    1.0740   -0.8450 nb        1 1D0     -0.680000
      2 C2          1.4500   -0.5150    9.7080 ca        1 1D0      0.090100
      3 C4          1.4570   -2.7980   10.5130 ca        1 1D0     -0.173000
      4 C5          1.9670   -3.2210    9.2890 ca        1 1D0     -0.145000
      5 C6          2.2410   -2.3060    8.2770 ca        1 1D0     -0.149000
      6 O           1.2000    0.8020   10.0140 oh        1 1D0     -0.558100
      7 C3          1.1920   -1.4470   10.7190 ca        1 1D0     -0.153000
      8 C1          2.0150   -0.9240    8.4600 ca        1 1D0      0.109600
      9 N           2.4390    0.0090    7.4980 nh        1 1D0     -0.711600
     10 O3P         5.7330   -1.7480   -1.3290 o         1 1D0     -0.925500
     11 P           4.2950   -1.9130   -0.9310 p5        1 1D0      1.315900
     12 O1P         3.2660   -1.5810   -1.9860 o         1 1D0     -0.925500
     13 O2P         3.9710   -3.1080   -0.0730 o         1 1D0     -0.925500
     14 O4P         4.0450   -0.5930    0.1710 os        1 1D0     -0.562200
     15 C5M         3.0720   -0.7660    1.1200 c3        1 1D0      0.246700
     16 C51         1.8600    0.1100    0.8830 ca        1 1D0     -0.159600
     17 C61         1.4820    0.3240   -0.4720 ca        1 1D0      0.364200
     18 C41         1.0890    0.6890    1.9030 ca        1 1D0     -0.143300
     19 C31        -0.0110    1.4840    1.5110 ca        1 1D0      0.018800
     20 O3         -0.8690    2.1520    2.3560 oh        1 1D0     -0.551100
     21 C21        -0.3010    1.6580    0.1320 ca        1 1D0      0.297600
     22 C2A        -1.4670    2.5160   -0.2340 c3        1 1D0     -0.104400
     23 C4A         1.5150    0.4210    3.3210 c3        1 1D0      0.150100
     24 N2          0.6650    0.9290    4.3690 n2        1 1D0     -0.619900
     25 CA          0.8960    0.6750    5.6080 ce        1 1D0      0.352300
     26 C          -0.0140    1.2430    6.7100 c         1 1D0      0.828300
     27 OXT         0.4990    2.1030    7.4960 o         1 1D0     -0.833300
     28 O1         -1.1810    0.7990    6.8380 o         1 1D0     -0.833300
     29 CB          2.0450   -0.1920    6.1190 c3        1 1D0      0.087500
     30 H1          1.2480   -3.5250   11.3090 ha        1 1D0      0.099000
     31 H2          2.1590   -4.2890    9.1130 ha        1 1D0      0.108000
     32 H3          2.6520   -2.6690    7.3220 ha        1 1D0      0.140000
     33 H4          0.7650    1.2280    9.2400 ho        1 1D0      0.484000
     34 H5          0.7680   -1.0930   11.6680 ha        1 1D0      0.119000
     35 H6          2.2670    0.9610    7.7880 hn        1 1D0      0.426800
     36 H9          2.7230   -1.8440    1.1460 h1        1 1D0      0.014200
     37 H10         3.5050   -0.5040    2.1330 h1        1 1D0      0.014200
     38 H11         2.1070   -0.2010   -1.2670 h4        1 1D0      0.146100
     39 H12        -0.6600    1.9070    3.2730 ho        1 1D0      0.456000
     40 H13        -1.6510    2.5380   -1.3340 hc        1 1D0      0.018367
     41 H14        -2.3830    2.1330    0.2800 hc        1 1D0      0.018367
     42 H15        -1.2850    3.5600    0.1230 hc        1 1D0      0.018367
     43 H16         2.5540    0.8620    3.4380 h1        1 1D0      0.052700
     44 H17         1.6280   -0.7030    3.4220 h1        1 1D0      0.052700
     45 H19         2.9710    0.0270    5.5070 h1        1 1D0      0.061700
     46 H20         1.7620   -1.2680    5.9340 h1        1 1D0      0.061700
@<TRIPOS>BOND
     1    1   17 ar  
     2    1   21 ar  
     3    2    6 1   
     4    2    7 ar  
     5    2    8 ar  
     6    3    4 ar  
     7    3    7 ar  
     8    3   30 1   
     9    4    5 ar  
    10    4   31 1   
    11    5    8 ar  
    12    5   32 1   
    13    6   33 1   
    14    7   34 1   
    15    8    9 1   
    16    9   29 1   
    17    9   35 1   
    18   10   11 1   
    19   11   12 1   
    20   11   13 1   
    21   11   14 1   
    22   14   15 1   
    23   15   16 1   
    24   15   36 1   
    25   15   37 1   
    26   16   17 ar  
    27   16   18 ar  
    28   17   38 1   
    29   18   19 ar  
    30   18   23 1   
    31   19   20 1   
    32   19   21 ar  
    33   20   39 1   
    34   21   22 1   
    35   22   40 1   
    36   22   41 1   
    37   22   42 1   
    38   23   24 1   
    39   23   43 1   
    40   23   44 1   
    41   24   25 2   
    42   25   26 1   
    43   25   29 1   
    44   26   27 1   
    45   26   28 1   
    46   29   45 1   
    47   29   46 1   
@<TRIPOS>SUBSTRUCTURE
     1 1D0         1 TEMP              0 ****  ****    0 ROOT
