@<TRIPOS>MOLECULE
1D0
   46    47     1     0     0
SMALL
bcc


@<TRIPOS>ATOM
      1 N1          0.4680    1.0140   -0.8670 nb        1 1D0     -0.680000
      2 C2          1.4020   -0.4600    9.7100 ca        1 1D0      0.090100
      3 C4          1.4530   -2.7350   10.5360 ca        1 1D0     -0.173000
      4 C5          1.9860   -3.1570    9.3220 ca        1 1D0     -0.145000
      5 C6          2.2480   -2.2450    8.3040 ca        1 1D0     -0.149000
      6 O           1.1180    0.8540   10.0010 oh        1 1D0     -0.558100
      7 C3          1.1550   -1.3880   10.7270 ca        1 1D0     -0.153000
      8 C1          1.9880   -0.8670    8.4710 ca        1 1D0      0.109600
      9 N           2.4010    0.0660    7.5050 nh        1 1D0     -0.711600
     10 O3P         5.8240   -1.6970   -1.2710 o         1 1D0     -0.925500
     11 P           4.3850   -1.8900   -0.8870 p5        1 1D0      1.315900
     12 O1P         3.3610   -1.5890   -1.9550 o         1 1D0     -0.925500
     13 O2P         4.0780   -3.0840   -0.0210 o         1 1D0     -0.925500
     14 O4P         4.0950   -0.5660    0.2010 os        1 1D0     -0.562200
     15 C5M         3.1160   -0.7510    1.1410 c3        1 1D0      0.246700
     16 C51         1.8880    0.0950    0.8840 ca        1 1D0     -0.159600
     17 C61         1.5200    0.2900   -0.4770 ca        1 1D0      0.364200
     18 C41         1.0940    0.6670    1.8910 ca        1 1D0     -0.143300
     19 C31        -0.0190    1.4340    1.4800 ca        1 1D0      0.018800
     20 O3         -0.9000    2.0900    2.3100 oh        1 1D0     -0.551100
     21 C21        -0.2980    1.5900    0.0970 ca        1 1D0      0.297600
     22 C2A        -1.4780    2.4190   -0.2880 c3        1 1D0     -0.104400
     23 C4A         1.5100    0.4200    3.3150 c3        1 1D0      0.150100
     24 N2          0.6390    0.9180    4.3500 n2        1 1D0     -0.619900
     25 CA          0.8620    0.6800    5.5930 ce        1 1D0      0.352300
     26 C          -0.0720    1.2360    6.6810 c         1 1D0      0.828300
     27 OXT         0.4130    2.1150    7.4650 o         1 1D0     -0.833300
     28 O1         -1.2300    0.7670    6.8010 o         1 1D0     -0.833300
     29 CB          2.0250   -0.1560    6.1250 c3        1 1D0      0.087500
     30 H1          1.2540   -3.4590   11.3370 ha        1 1D0      0.099000
     31 H2          2.2040   -4.2220    9.1580 ha        1 1D0      0.108000
     32 H3          2.6770   -2.6070    7.3560 ha        1 1D0      0.140000
     33 H4          0.6810    1.2620    9.2190 ho        1 1D0      0.484000
     34 H5          0.7130   -1.0360   11.6690 ha        1 1D0      0.119000
     35 H6          2.2030    1.0180    7.7840 hn        1 1D0      0.426800
     36 H9          3.5330   -0.4710    2.1570 h1        1 1D0      0.014200
     37 H10         2.7900   -1.8360    1.1730 h1        1 1D0      0.014200
     38 H11         2.1650   -0.2280   -1.2600 h4        1 1D0      0.146100
     39 H12        -0.6960    1.8570    3.2320 ho        1 1D0      0.456000
     40 H13        -2.3910    2.0200    0.2200 hc        1 1D0      0.018367
     41 H14        -1.3230    3.4700    0.0610 hc        1 1D0      0.018367
     42 H15        -1.6510    2.4270   -1.3910 hc        1 1D0      0.018367
     43 H16         2.5380    0.8850    3.4400 h1        1 1D0      0.052700
     44 H17         1.6470   -0.7000    3.4280 h1        1 1D0      0.052700
     45 H19         2.9520    0.0780    5.5190 h1        1 1D0      0.061700
     46 H20         1.7680   -1.2400    5.9470 h1        1 1D0      0.061700
@<TRIPOS>BOND
     1    1   17 ar  
     2    1   21 ar  
     3    2    6 1   
     4    2    7 ar  
     5    2    8 ar  
     6    3    4 ar  
     7    3    7 ar  
     8    3   30 1   
     9    4    5 ar  
    10    4   31 1   
    11    5    8 ar  
    12    5   32 1   
    13    6   33 1   
    14    7   34 1   
    15    8    9 1   
    16    9   29 1   
    17    9   35 1   
    18   10   11 1   
    19   11   12 1   
    20   11   13 1   
    21   11   14 1   
    22   14   15 1   
    23   15   16 1   
    24   15   36 1   
    25   15   37 1   
    26   16   17 ar  
    27   16   18 ar  
    28   17   38 1   
    29   18   19 ar  
    30   18   23 1   
    31   19   20 1   
    32   19   21 ar  
    33   20   39 1   
    34   21   22 1   
    35   22   40 1   
    36   22   41 1   
    37   22   42 1   
    38   23   24 1   
    39   23   43 1   
    40   23   44 1   
    41   24   25 2   
    42   25   26 1   
    43   25   29 1   
    44   26   27 1   
    45   26   28 1   
    46   29   45 1   
    47   29   46 1   
@<TRIPOS>SUBSTRUCTURE
     1 1D0         1 TEMP              0 ****  ****    0 ROOT
