@<TRIPOS>MOLECULE
1D1
   47    50     1     0     0
SMALL
bcc


@<TRIPOS>ATOM
      1 O23         0.0110    0.2220    0.0250 o         1 1D1     -0.620500
      2 C13         1.2520    0.1530    0.0400 c         1 1D1      0.704500
      3 N12         1.9590    0.0570    1.2370 n         1 1D1     -0.354000
      4 C24         1.2780    0.0440    2.5030 c3        1 1D1      0.074300
      5 C9          3.3550   -0.0700    1.2020 ca        1 1D1     -0.210000
      6 C8          4.1650    0.0740    2.3520 ca        1 1D1      0.416200
      7 N7          5.5030   -0.0340    2.3290 nb        1 1D1     -0.724000
      8 C14         2.0580    0.2000   -1.2740 c3        1 1D1      0.139500
      9 C21         2.2750    1.6770   -1.6500 c3        1 1D1     -0.106400
     10 C22         0.9980    2.3110   -2.1350 c3        1 1D1     -0.102100
     11 N15         3.2670   -0.6130   -1.1950 nh        1 1D1     -0.732300
     12 C16         3.9520   -0.8770   -2.4610 c3        1 1D1      0.215500
     13 C20         3.0020   -1.1180   -3.6570 c3        1 1D1     -0.082400
     14 C19         3.8080   -1.9450   -4.6460 c3        1 1D1     -0.080900
     15 C18         4.7950   -2.7570   -3.8200 c3        1 1D1     -0.080900
     16 C17         4.8600   -2.1310   -2.4330 c3        1 1D1     -0.082400
     17 C10         4.0510   -0.3550   -0.0430 ca        1 1D1      0.644200
     18 N11         5.4080   -0.4350   -0.0730 nb        1 1D1     -0.722000
     19 C6          6.0820   -0.2840    1.1120 ca        1 1D1      0.741500
     20 C2          7.5440   -0.4000    1.0470 cc        1 1D1     -0.197800
     21 C3          8.3470   -0.6910   -0.0770 cd        1 1D1     -0.127000
     22 C4          9.7040   -0.6960    0.3660 cd        1 1D1     -0.215000
     23 C5          9.6940   -0.4090    1.7440 cc        1 1D1     -0.141300
     24 N1          8.3840   -0.2300    2.1540 na        1 1D1     -0.148100
     25 H1          1.5080    0.9840    3.0740 h1        1 1D1      0.054700
     26 H2          0.1700   -0.0190    2.3330 h1        1 1D1      0.054700
     27 H3          1.6100   -0.8410    3.1100 h1        1 1D1      0.054700
     28 H4          3.7230    0.2810    3.3440 h4        1 1D1      0.031100
     29 H5          1.3840   -0.2720   -2.0530 h1        1 1D1      0.105700
     30 H6          2.6730    2.2370   -0.7640 hc        1 1D1      0.055200
     31 H7          3.0500    1.7390   -2.4610 hc        1 1D1      0.055200
     32 H8          1.1540    3.4040   -2.3040 hc        1 1D1      0.046033
     33 H9          0.6680    1.8480   -3.0970 hc        1 1D1      0.046033
     34 H10         0.1780    2.1780   -1.3850 hc        1 1D1      0.046033
     35 H11         4.6030    0.0130   -2.7200 h1        1 1D1      0.045700
     36 H12         2.0950   -1.6980   -3.3470 hc        1 1D1      0.056450
     37 H13         2.6680   -0.1490   -4.1000 hc        1 1D1      0.056450
     38 H14         3.1390   -2.6070   -5.2500 hc        1 1D1      0.044700
     39 H15         4.3530   -1.2750   -5.3580 hc        1 1D1      0.044700
     40 H16         4.4600   -3.8220   -3.7480 hc        1 1D1      0.044700
     41 H17         5.8040   -2.7580   -4.3020 hc        1 1D1      0.044700
     42 H18         4.5180   -2.8610   -1.6580 hc        1 1D1      0.056450
     43 H19         5.9100   -1.8390   -2.1860 hc        1 1D1      0.056450
     44 H20         7.9870   -0.8750   -1.0850 ha        1 1D1      0.163000
     45 H21        10.5820   -0.8840   -0.2420 ha        1 1D1      0.154000
     46 H22        10.5250   -0.3240    2.4450 h4        1 1D1      0.167000
     47 H23         8.0790   -0.0250    3.0700 hn        1 1D1      0.310700
@<TRIPOS>BOND
     1    1    2 2   
     2    2    3 1   
     3    2    8 1   
     4    3    4 1   
     5    3    5 1   
     6    4   25 1   
     7    4   26 1   
     8    4   27 1   
     9    5    6 ar  
    10    5   17 ar  
    11    6    7 ar  
    12    6   28 1   
    13    7   19 ar  
    14    8    9 1   
    15    8   11 1   
    16    8   29 1   
    17    9   10 1   
    18    9   30 1   
    19    9   31 1   
    20   10   32 1   
    21   10   33 1   
    22   10   34 1   
    23   11   12 1   
    24   11   17 1   
    25   12   13 1   
    26   12   16 1   
    27   12   35 1   
    28   13   14 1   
    29   13   36 1   
    30   13   37 1   
    31   14   15 1   
    32   14   38 1   
    33   14   39 1   
    34   15   16 1   
    35   15   40 1   
    36   15   41 1   
    37   16   42 1   
    38   16   43 1   
    39   17   18 ar  
    40   18   19 ar  
    41   19   20 1   
    42   20   21 2   
    43   20   24 1   
    44   21   22 1   
    45   21   44 1   
    46   22   23 2   
    47   22   45 1   
    48   23   24 1   
    49   23   46 1   
    50   24   47 1   
@<TRIPOS>SUBSTRUCTURE
     1 1D1         1 TEMP              0 ****  ****    0 ROOT
