@<TRIPOS>MOLECULE
1D1
   47    50     1     0     0
SMALL
bcc


@<TRIPOS>ATOM
      1 O23        -4.0480   -1.5430   -0.3600 o         1 1D1     -0.620500
      2 C13        -2.8530   -1.2450   -0.1940 c         1 1D1      0.704500
      3 N12        -1.8330   -2.1480   -0.4870 n         1 1D1     -0.354000
      4 C24        -2.1260   -3.4660   -0.9830 c3        1 1D1      0.074300
      5 C9         -0.4980   -1.7500   -0.3320 ca        1 1D1     -0.210000
      6 C8          0.5820   -2.6640   -0.3670 ca        1 1D1      0.416200
      7 N7          1.8630   -2.2960   -0.2090 nb        1 1D1     -0.724000
      8 C14        -2.4570    0.1340    0.3710 c3        1 1D1      0.139500
      9 C21        -2.5150    0.0570    1.9080 c3        1 1D1     -0.106400
     10 C22        -3.9380    0.0010    2.3980 c3        1 1D1     -0.102100
     11 N15        -1.1940    0.6040   -0.1880 nh        1 1D1     -0.732300
     12 C16        -0.8660    2.0110    0.0480 c3        1 1D1      0.215500
     13 C20        -2.0810    2.9650   -0.0230 c3        1 1D1     -0.082400
     14 C19        -1.4990    4.3250   -0.3710 c3        1 1D1     -0.080900
     15 C18        -0.2380    4.0580   -1.1800 c3        1 1D1     -0.080900
     16 C17         0.1430    2.5980   -0.9680 c3        1 1D1     -0.082400
     17 C10        -0.1510   -0.3530   -0.1200 ca        1 1D1      0.644200
     18 N11         1.1440    0.0150    0.0700 nb        1 1D1     -0.722000
     19 C6          2.1020   -0.9640    0.0060 ca        1 1D1      0.741500
     20 C2          3.4910   -0.5260    0.1920 cc        1 1D1     -0.197800
     21 C3          3.9740    0.7860    0.3860 cd        1 1D1     -0.127000
     22 C4          5.3930    0.6970    0.5130 cd        1 1D1     -0.215000
     23 C5          5.7380   -0.6620    0.3940 cc        1 1D1     -0.141300
     24 N1          4.5840   -1.4010    0.2010 na        1 1D1     -0.148100
     25 H1         -3.2240   -3.5470   -1.2040 h1        1 1D1      0.054700
     26 H2         -1.5440   -3.6610   -1.9230 h1        1 1D1      0.054700
     27 H3         -1.8500   -4.2370   -0.2150 h1        1 1D1      0.054700
     28 H4          0.4150   -3.7440   -0.5340 h4        1 1D1      0.031100
     29 H5         -3.2670    0.8430    0.0180 h1        1 1D1      0.105700
     30 H6         -1.9490   -0.8430    2.2610 hc        1 1D1      0.055200
     31 H7         -2.0100    0.9620    2.3400 hc        1 1D1      0.055200
     32 H8         -3.9540   -0.1570    3.5030 hc        1 1D1      0.046033
     33 H9         -4.4710    0.9560    2.1700 hc        1 1D1      0.046033
     34 H10        -4.4960   -0.8350    1.9080 hc        1 1D1      0.046033
     35 H11        -0.4140    2.1140    1.0820 h1        1 1D1      0.045700
     36 H12        -2.7960    2.6550   -0.8270 hc        1 1D1      0.056450
     37 H13        -2.6280    2.9830    0.9500 hc        1 1D1      0.056450
     38 H14        -2.2340    4.9360   -0.9500 hc        1 1D1      0.044700
     39 H15        -1.2510    4.8920    0.5620 hc        1 1D1      0.044700
     40 H16        -0.4220    4.2550   -2.2660 hc        1 1D1      0.044700
     41 H17         0.5900    4.7350   -0.8550 hc        1 1D1      0.044700
     42 H18         1.1830    2.5230   -0.5640 hc        1 1D1      0.056450
     43 H19         0.1130    2.0410   -1.9370 hc        1 1D1      0.056450
     44 H20         3.3680    1.6880    0.4260 ha        1 1D1      0.163000
     45 H21         6.0810    1.5210    0.6720 ha        1 1D1      0.154000
     46 H22         6.7180   -1.1390    0.4350 h4        1 1D1      0.167000
     47 H23         4.5270   -2.3790    0.0790 hn        1 1D1      0.310700
@<TRIPOS>BOND
     1    1    2 2   
     2    2    3 1   
     3    2    8 1   
     4    3    4 1   
     5    3    5 1   
     6    4   25 1   
     7    4   26 1   
     8    4   27 1   
     9    5    6 ar  
    10    5   17 ar  
    11    6    7 ar  
    12    6   28 1   
    13    7   19 ar  
    14    8    9 1   
    15    8   11 1   
    16    8   29 1   
    17    9   10 1   
    18    9   30 1   
    19    9   31 1   
    20   10   32 1   
    21   10   33 1   
    22   10   34 1   
    23   11   12 1   
    24   11   17 1   
    25   12   13 1   
    26   12   16 1   
    27   12   35 1   
    28   13   14 1   
    29   13   36 1   
    30   13   37 1   
    31   14   15 1   
    32   14   38 1   
    33   14   39 1   
    34   15   16 1   
    35   15   40 1   
    36   15   41 1   
    37   16   42 1   
    38   16   43 1   
    39   17   18 ar  
    40   18   19 ar  
    41   19   20 1   
    42   20   21 2   
    43   20   24 1   
    44   21   22 1   
    45   21   44 1   
    46   22   23 2   
    47   22   45 1   
    48   23   24 1   
    49   23   46 1   
    50   24   47 1   
@<TRIPOS>SUBSTRUCTURE
     1 1D1         1 TEMP              0 ****  ****    0 ROOT
