@<TRIPOS>MOLECULE
1D1
   47    42     1     0     0
SMALL
bcc


@<TRIPOS>ATOM
      1 O23        -2.8870   -2.6700    0.1730 o         1 1D1     -0.337000
      2 C13        -1.7290   -2.2360    0.2460 c1        1 1D1      0.275000
      3 N12        -1.0780   -2.2490    1.3960 n2        1 1D1     -0.266000
      4 C24        -1.6270   -2.9600    2.5060 c3        1 1D1     -0.082000
      5 C9         -0.0470   -1.2000    1.6140 c1        1 1D1     -0.076000
      6 C8          0.6730   -1.1010    2.8060 c1        1 1D1     -0.055000
      7 N7          1.7000   -0.1870    2.9150 n1        1 1D1     -0.152000
      8 C14        -0.9830   -1.9010   -0.9770 c3        1 1D1      0.001000
      9 C21        -1.9420   -1.9060   -2.2210 c3        1 1D1     -0.148000
     10 C22        -2.2250   -3.3670   -2.6440 c3        1 1D1     -0.218000
     11 N15        -0.2750   -0.6810   -0.8650 n3        1 1D1     -0.229000
     12 C16        -1.0890    0.3850   -1.3260 c3        1 1D1      0.013000
     13 C20        -0.4930    0.9720   -2.7360 c3        1 1D1     -0.170000
     14 C19        -0.9350    2.2140   -2.8370 c3        1 1D1     -0.157000
     15 C18        -1.1580    2.6970   -1.3330 c3        1 1D1     -0.157000
     16 C17        -1.0550    1.3950   -0.4550 c3        1 1D1     -0.170000
     17 C10         0.2920   -0.3300    0.4780 c1        1 1D1      0.109000
     18 N11         1.2830    0.5500    0.5920 n1        1 1D1     -0.181000
     19 C6          2.0250    0.6500    1.8250 c1        1 1D1      0.095000
     20 C2          3.0950    1.6940    1.9710 c2        1 1D1     -0.068000
     21 C3          2.9850    2.8790    2.6900 c1        1 1D1     -0.123000
     22 C4          4.1820    3.5000    2.6520 c1        1 1D1     -0.215000
     23 C5          5.0480    2.7110    1.9110 c1        1 1D1     -0.117000
     24 N1          4.3610    1.6030    1.5000 n2        1 1D1     -0.147000
     25 H1         -0.9520   -3.3320    2.9930 h1        1 1D1      0.094000
     26 H2         -2.1490   -2.3290    3.0830 h1        1 1D1      0.094000
     27 H3         -2.1880   -3.6270    2.1960 h1        1 1D1      0.094000
     28 H4          0.4450   -1.6890    3.5750 ha        1 1D1      0.171000
     29 H5         -0.3730   -2.6170   -1.2110 h1        1 1D1      0.125000
     30 H6         -1.5100   -1.4200   -2.9740 hc        1 1D1      0.100000
     31 H7         -2.7540   -1.4780   -1.9940 hc        1 1D1      0.100000
     32 H8         -1.4010   -3.7960   -2.8720 hc        1 1D1      0.084333
     33 H9         -2.6700   -3.8730   -1.8660 hc        1 1D1      0.084333
     34 H10        -2.8110   -3.3710   -3.4050 hc        1 1D1      0.084333
     35 H11        -1.9790    0.0870   -1.4450 h1        1 1D1      0.100000
     36 H12         0.4490    0.9650   -2.7180 hc        1 1D1      0.092500
     37 H13        -0.8350    0.4100   -3.5220 hc        1 1D1      0.092500
     38 H14        -0.2700    2.7710   -3.2770 hc        1 1D1      0.082000
     39 H15        -1.7710    2.2340   -3.3270 hc        1 1D1      0.082000
     40 H16        -2.0350    3.1000   -1.2340 hc        1 1D1      0.082000
     41 H17        -0.4770    3.3230   -1.0800 hc        1 1D1      0.082000
     42 H18        -0.2450    1.3850    0.0240 hc        1 1D1      0.092500
     43 H19        -1.8860    1.3350    0.2160 hc        1 1D1      0.092500
     44 H20         2.1890    3.2000    3.1390 DU        1 1D1      0.187000
     45 H21         4.4100    4.4070    3.0980 DU        1 1D1      0.187000
     46 H22         6.0020    2.9130    1.7120 DU        1 1D1      0.187000
     47 H23         4.6880    0.9390    1.0100 DU        1 1D1      0.187000
@<TRIPOS>BOND
     1    1    2 1   
     2    2    8 1   
     3    3    4 1   
     4    3    5 1   
     5    4   25 1   
     6    4   26 1   
     7    4   27 1   
     8    5   17 1   
     9    6    7 1   
    10    6   28 1   
    11    8    9 1   
    12    8   11 1   
    13    8   29 1   
    14    9   10 1   
    15    9   30 1   
    16    9   31 1   
    17   10   32 1   
    18   10   33 1   
    19   10   34 1   
    20   11   12 1   
    21   11   17 1   
    22   12   13 1   
    23   12   16 1   
    24   12   35 1   
    25   13   14 1   
    26   13   36 1   
    27   13   37 1   
    28   14   15 1   
    29   14   38 1   
    30   14   39 1   
    31   15   16 1   
    32   15   40 1   
    33   15   41 1   
    34   16   42 1   
    35   16   43 1   
    36   18   19 1   
    37   19   20 1   
    38   20   21 1   
    39   20   24 1   
    40   21   22 1   
    41   22   23 1   
    42   23   24 1   
@<TRIPOS>SUBSTRUCTURE
     1 1D1         1 TEMP              0 ****  ****    0 ROOT
