@<TRIPOS>MOLECULE
1D1
   47    50     1     0     0
SMALL
bcc


@<TRIPOS>ATOM
      1 O23         0.0130    0.2270    0.0270 o         1 1D1     -0.620500
      2 C13         1.2540    0.1580    0.0410 c         1 1D1      0.704500
      3 N12         1.9610    0.0610    1.2360 n         1 1D1     -0.354000
      4 C24         1.2820    0.0490    2.5040 c3        1 1D1      0.074300
      5 C9          3.3570   -0.0670    1.2010 ca        1 1D1     -0.210000
      6 C8          4.1680    0.0770    2.3500 ca        1 1D1      0.416200
      7 N7          5.5060   -0.0320    2.3260 nb        1 1D1     -0.724000
      8 C14         2.0590    0.2040   -1.2740 c3        1 1D1      0.139500
      9 C21         2.2770    1.6810   -1.6510 c3        1 1D1     -0.106400
     10 C22         0.9990    2.3150   -2.1350 c3        1 1D1     -0.102100
     11 N15         3.2670   -0.6100   -1.1960 nh        1 1D1     -0.732300
     12 C16         3.9510   -0.8750   -2.4630 c3        1 1D1      0.215500
     13 C20         3.0010   -1.1150   -3.6580 c3        1 1D1     -0.082400
     14 C19         3.8050   -1.9420   -4.6470 c3        1 1D1     -0.080900
     15 C18         4.7930   -2.7550   -3.8220 c3        1 1D1     -0.080900
     16 C17         4.8580   -2.1290   -2.4350 c3        1 1D1     -0.082400
     17 C10         4.0520   -0.3530   -0.0450 ca        1 1D1      0.644200
     18 N11         5.4090   -0.4330   -0.0750 nb        1 1D1     -0.722000
     19 C6          6.0840   -0.2830    1.1090 ca        1 1D1      0.741500
     20 C2          7.5460   -0.4000    1.0430 cc        1 1D1     -0.197800
     21 C3          8.3480   -0.6910   -0.0810 cd        1 1D1     -0.127000
     22 C4          9.7060   -0.6970    0.3610 cd        1 1D1     -0.215000
     23 C5          9.6960   -0.4100    1.7390 cc        1 1D1     -0.141300
     24 N1          8.3870   -0.2300    2.1490 na        1 1D1     -0.148100
     25 H1          1.6140   -0.8370    3.1100 h1        1 1D1      0.054700
     26 H2          1.5120    0.9890    3.0740 h1        1 1D1      0.054700
     27 H3          0.1730   -0.0140    2.3340 h1        1 1D1      0.054700
     28 H4          3.7270    0.2840    3.3430 h4        1 1D1      0.031100
     29 H5          1.3840   -0.2680   -2.0520 h1        1 1D1      0.105700
     30 H6          2.6750    2.2410   -0.7650 hc        1 1D1      0.055200
     31 H7          3.0510    1.7420   -2.4620 hc        1 1D1      0.055200
     32 H8          0.1800    2.1830   -1.3850 hc        1 1D1      0.046033
     33 H9          1.1560    3.4080   -2.3050 hc        1 1D1      0.046033
     34 H10         0.6690    1.8520   -3.0970 hc        1 1D1      0.046033
     35 H11         4.6030    0.0160   -2.7220 h1        1 1D1      0.045700
     36 H12         2.6670   -0.1460   -4.1000 hc        1 1D1      0.056450
     37 H13         2.0940   -1.6950   -3.3480 hc        1 1D1      0.056450
     38 H14         4.3500   -1.2730   -5.3600 hc        1 1D1      0.044700
     39 H15         3.1360   -2.6040   -5.2500 hc        1 1D1      0.044700
     40 H16         4.4570   -3.8200   -3.7490 hc        1 1D1      0.044700
     41 H17         5.8020   -2.7560   -4.3040 hc        1 1D1      0.044700
     42 H18         5.9100   -1.8370   -2.1890 hc        1 1D1      0.056450
     43 H19         4.5160   -2.8590   -1.6600 hc        1 1D1      0.056450
     44 H20         7.9870   -0.8760   -1.0890 ha        1 1D1      0.163000
     45 H21        10.5830   -0.8860   -0.2480 ha        1 1D1      0.154000
     46 H22        10.5280   -0.3250    2.4390 h4        1 1D1      0.167000
     47 H23         8.0830   -0.0240    3.0660 hn        1 1D1      0.310700
@<TRIPOS>BOND
     1    1    2 2   
     2    2    3 1   
     3    2    8 1   
     4    3    4 1   
     5    3    5 1   
     6    4   25 1   
     7    4   26 1   
     8    4   27 1   
     9    5    6 ar  
    10    5   17 ar  
    11    6    7 ar  
    12    6   28 1   
    13    7   19 ar  
    14    8    9 1   
    15    8   11 1   
    16    8   29 1   
    17    9   10 1   
    18    9   30 1   
    19    9   31 1   
    20   10   32 1   
    21   10   33 1   
    22   10   34 1   
    23   11   12 1   
    24   11   17 1   
    25   12   13 1   
    26   12   16 1   
    27   12   35 1   
    28   13   14 1   
    29   13   36 1   
    30   13   37 1   
    31   14   15 1   
    32   14   38 1   
    33   14   39 1   
    34   15   16 1   
    35   15   40 1   
    36   15   41 1   
    37   16   42 1   
    38   16   43 1   
    39   17   18 ar  
    40   18   19 ar  
    41   19   20 1   
    42   20   21 2   
    43   20   24 1   
    44   21   22 1   
    45   21   44 1   
    46   22   23 2   
    47   22   45 1   
    48   23   24 1   
    49   23   46 1   
    50   24   47 1   
@<TRIPOS>SUBSTRUCTURE
     1 1D1         1 TEMP              0 ****  ****    0 ROOT
