@<TRIPOS>MOLECULE
1D1
   47    50     1     0     0
SMALL
bcc


@<TRIPOS>ATOM
      1 O23         0.0120    0.2210    0.0280 o         1 1D1     -0.620500
      2 C13         1.2520    0.1530    0.0420 c         1 1D1      0.704500
      3 N12         1.9600    0.0570    1.2380 n         1 1D1     -0.354000
      4 C24         1.2800    0.0440    2.5050 c3        1 1D1      0.074300
      5 C9          3.3560   -0.0700    1.2020 ca        1 1D1     -0.210000
      6 C8          4.1670    0.0740    2.3520 ca        1 1D1      0.416200
      7 N7          5.5040   -0.0330    2.3280 nb        1 1D1     -0.724000
      8 C14         2.0570    0.2000   -1.2730 c3        1 1D1      0.139500
      9 C21         2.2740    1.6770   -1.6500 c3        1 1D1     -0.106400
     10 C22         0.9960    2.3100   -2.1340 c3        1 1D1     -0.102100
     11 N15         3.2670   -0.6130   -1.1940 nh        1 1D1     -0.732300
     12 C16         3.9510   -0.8780   -2.4610 c3        1 1D1      0.215500
     13 C20         3.0010   -1.1190   -3.6560 c3        1 1D1     -0.082400
     14 C19         3.8060   -1.9460   -4.6450 c3        1 1D1     -0.080900
     15 C18         4.7940   -2.7570   -3.8200 c3        1 1D1     -0.080900
     16 C17         4.8590   -2.1310   -2.4330 c3        1 1D1     -0.082400
     17 C10         4.0510   -0.3550   -0.0430 ca        1 1D1      0.644200
     18 N11         5.4080   -0.4340   -0.0730 nb        1 1D1     -0.722000
     19 C6          6.0830   -0.2840    1.1110 ca        1 1D1      0.741500
     20 C2          7.5450   -0.3990    1.0450 cc        1 1D1     -0.197800
     21 C3          8.3480   -0.6890   -0.0790 cd        1 1D1     -0.127000
     22 C4          9.7050   -0.6940    0.3630 cd        1 1D1     -0.215000
     23 C5          9.6950   -0.4080    1.7410 cc        1 1D1     -0.141300
     24 N1          8.3860   -0.2290    2.1510 na        1 1D1     -0.148100
     25 H1          1.5100    0.9840    3.0750 h1        1 1D1      0.054700
     26 H2          1.6130   -0.8410    3.1110 h1        1 1D1      0.054700
     27 H3          0.1720   -0.0200    2.3350 h1        1 1D1      0.054700
     28 H4          3.7250    0.2820    3.3450 h4        1 1D1      0.031100
     29 H5          1.3830   -0.2730   -2.0510 h1        1 1D1      0.105700
     30 H6          2.6720    2.2370   -0.7640 hc        1 1D1      0.055200
     31 H7          3.0480    1.7390   -2.4610 hc        1 1D1      0.055200
     32 H8          1.1520    3.4030   -2.3040 hc        1 1D1      0.046033
     33 H9          0.1770    2.1770   -1.3840 hc        1 1D1      0.046033
     34 H10         0.6660    1.8470   -3.0960 hc        1 1D1      0.046033
     35 H11         4.6010    0.0130   -2.7200 h1        1 1D1      0.045700
     36 H12         2.0940   -1.6990   -3.3460 hc        1 1D1      0.056450
     37 H13         2.6660   -0.1500   -4.0990 hc        1 1D1      0.056450
     38 H14         3.1380   -2.6080   -5.2480 hc        1 1D1      0.044700
     39 H15         4.3500   -1.2760   -5.3580 hc        1 1D1      0.044700
     40 H16         5.8030   -2.7580   -4.3020 hc        1 1D1      0.044700
     41 H17         4.4600   -3.8230   -3.7470 hc        1 1D1      0.044700
     42 H18         4.5180   -2.8610   -1.6580 hc        1 1D1      0.056450
     43 H19         5.9100   -1.8380   -2.1870 hc        1 1D1      0.056450
     44 H20         7.9870   -0.8740   -1.0880 ha        1 1D1      0.163000
     45 H21        10.5830   -0.8830   -0.2460 ha        1 1D1      0.154000
     46 H22        10.5270   -0.3220    2.4410 h4        1 1D1      0.167000
     47 H23         8.0820   -0.0230    3.0680 hn        1 1D1      0.310700
@<TRIPOS>BOND
     1    1    2 2   
     2    2    3 1   
     3    2    8 1   
     4    3    4 1   
     5    3    5 1   
     6    4   25 1   
     7    4   26 1   
     8    4   27 1   
     9    5    6 ar  
    10    5   17 ar  
    11    6    7 ar  
    12    6   28 1   
    13    7   19 ar  
    14    8    9 1   
    15    8   11 1   
    16    8   29 1   
    17    9   10 1   
    18    9   30 1   
    19    9   31 1   
    20   10   32 1   
    21   10   33 1   
    22   10   34 1   
    23   11   12 1   
    24   11   17 1   
    25   12   13 1   
    26   12   16 1   
    27   12   35 1   
    28   13   14 1   
    29   13   36 1   
    30   13   37 1   
    31   14   15 1   
    32   14   38 1   
    33   14   39 1   
    34   15   16 1   
    35   15   40 1   
    36   15   41 1   
    37   16   42 1   
    38   16   43 1   
    39   17   18 ar  
    40   18   19 ar  
    41   19   20 1   
    42   20   21 2   
    43   20   24 1   
    44   21   22 1   
    45   21   44 1   
    46   22   23 2   
    47   22   45 1   
    48   23   24 1   
    49   23   46 1   
    50   24   47 1   
@<TRIPOS>SUBSTRUCTURE
     1 1D1         1 TEMP              0 ****  ****    0 ROOT
