@<TRIPOS>MOLECULE
1D2
   64    65     1     0     0
SMALL
bcc


@<TRIPOS>ATOM
      1 O2          0.1550   -0.0060    0.0020 oh        1 1D2     -0.629800
      2 C10         1.5530    0.0930    0.1920 c3        1 1D2      0.098100
      3 C9          1.9280   -0.0360    1.6890 c3        1 1D2      0.310900
      4 O3          3.3380   -0.0410    1.8560 os        1 1D2     -0.413600
      5 C15         3.9700   -1.1340    1.1870 c3        1 1D2      0.153100
      6 C16         5.4530   -1.0180    1.4810 c3        1 1D2     -0.098100
      7 C14         3.7050   -1.0600   -0.3220 c3        1 1D2     -0.136400
      8 C11         2.1980   -1.0910   -0.5660 c3        1 1D2      0.122500
      9 N           1.7960   -1.0810   -2.0250 n4        1 1D2     -0.676400
     10 C12         2.5500   -0.0840   -2.8250 c3        1 1D2      0.083100
     11 C13         1.9190   -2.4340   -2.6230 c3        1 1D2      0.083100
     12 O1          1.5340    1.1700    2.2850 os        1 1D2     -0.422600
     13 C8          1.5260    1.1440    3.7350 c3        1 1D2      0.143100
     14 C7          1.7100    2.5970    4.1630 c3        1 1D2     -0.092900
     15 C6          3.1010    3.1220    3.8610 c3        1 1D2     -0.078400
     16 C5          3.9270    3.3960    5.1020 c3        1 1D2     -0.082400
     17 C4          4.3760    2.1380    5.8220 c3        1 1D2     -0.077400
     18 C3          3.7570    2.0100    7.2000 c3        1 1D2     -0.079400
     19 C2          4.0960    0.6880    7.8640 c3        1 1D2     -0.078400
     20 C1          2.8900   -0.2040    8.0820 c3        1 1D2     -0.079400
     21 C20         2.2980   -0.7420    6.7920 c3        1 1D2     -0.077400
     22 C19         0.9120   -0.1890    6.5240 c3        1 1D2     -0.082400
     23 C18         0.3740   -0.6060    5.1670 c3        1 1D2     -0.078400
     24 C17         0.1990    0.5570    4.2110 c3        1 1D2     -0.092900
     25 H22O       -0.2640    0.5870    0.6450 ho        1 1D2      0.464000
     26 H10         1.9250    1.0830   -0.1950 h1        1 1D2      0.087700
     27 H9          1.4550   -0.9400    2.1630 h2        1 1D2      0.064700
     28 H11         1.7680   -2.0500   -0.1400 hx        1 1D2      0.109700
     29 H15         3.5600   -2.1020    1.5930 h1        1 1D2      0.050700
     30 H161        5.9970   -1.8610    0.9950 hc        1 1D2      0.064033
     31 H162        5.8540   -0.0470    1.1030 hc        1 1D2      0.064033
     32 H163        5.6200   -1.0590    2.5850 hc        1 1D2      0.064033
     33 H141        4.1500   -0.1090   -0.7170 hc        1 1D2      0.077700
     34 H142        4.2090   -1.9260   -0.8230 hc        1 1D2      0.077700
     35 H121        2.4960    0.9180   -2.3190 hx        1 1D2      0.103533
     36 H122        2.0930   -0.0120   -3.8490 hx        1 1D2      0.103533
     37 H131        1.2410   -3.1470   -2.0800 hx        1 1D2      0.103533
     38 H132        2.9800   -2.7890   -2.5410 hx        1 1D2      0.103533
     39 H133        1.6210   -2.3880   -3.7050 hx        1 1D2      0.103533
     40 H8          2.3930    0.5230    4.0930 h1        1 1D2      0.072700
     41 H71C        0.9450    3.2250    3.6370 hc        1 1D2      0.055700
     42 H72C        1.5000    2.6540    5.2650 hc        1 1D2      0.055700
     43 H171       -0.4140    1.3570    4.7030 hc        1 1D2      0.055700
     44 H172       -0.3850    0.2070    3.3160 hc        1 1D2      0.055700
     45 H61C        3.0060    4.0810    3.2850 hc        1 1D2      0.043200
     46 H62C        3.6430    2.3970    3.1970 hc        1 1D2      0.043200
     47 H51C        4.8340    3.9820    4.7930 hc        1 1D2      0.047200
     48 H52C        3.3420    4.0530    5.7990 hc        1 1D2      0.047200
     49 H41C        5.4940    2.1470    5.9280 hc        1 1D2      0.036700
     50 H42C        4.1180    1.2330    5.2110 hc        1 1D2      0.036700
     51 H31C        2.6430    2.1230    7.1190 hc        1 1D2      0.043700
     52 H32C        4.1210    2.8560    7.8410 hc        1 1D2      0.043700
     53 H21C        4.8610    0.1350    7.2580 hc        1 1D2      0.042200
     54 H22C        4.5640    0.8920    8.8650 hc        1 1D2      0.042200
     55 H11C        3.2060   -1.0690    8.7260 hc        1 1D2      0.043700
     56 H12C        2.1110    0.3610    8.6600 hc        1 1D2      0.043700
     57 H201        2.9730   -0.4930    5.9310 hc        1 1D2      0.036700
     58 H202        2.2370   -1.8610    6.8450 hc        1 1D2      0.036700
     59 H191        0.2160   -0.5490    7.3270 hc        1 1D2      0.047200
     60 H192        0.9370    0.9310    6.5980 hc        1 1D2      0.047200
     61 H181       -0.6270   -1.0950    5.3050 hc        1 1D2      0.043200
     62 H182        1.0490   -1.3720    4.7010 hc        1 1D2      0.043200
     63 H123        3.6220   -0.4020   -2.9170 hx        1 1D2      0.103533
     64 HN1         0.7960   -0.8100   -2.0380 hn        1 1D2      0.473800
@<TRIPOS>BOND
     1    1    2 1   
     2    1   25 1   
     3    2    3 1   
     4    2    8 1   
     5    2   26 1   
     6    3    4 1   
     7    3   12 1   
     8    3   27 1   
     9    4    5 1   
    10    5    6 1   
    11    5    7 1   
    12    5   29 1   
    13    6   30 1   
    14    6   31 1   
    15    6   32 1   
    16    7    8 1   
    17    7   33 1   
    18    7   34 1   
    19    8    9 1   
    20    8   28 1   
    21    9   10 1   
    22    9   11 1   
    23    9   64 1   
    24   10   35 1   
    25   10   36 1   
    26   10   63 1   
    27   11   37 1   
    28   11   38 1   
    29   11   39 1   
    30   12   13 1   
    31   13   14 1   
    32   13   24 1   
    33   13   40 1   
    34   14   15 1   
    35   14   41 1   
    36   14   42 1   
    37   15   16 1   
    38   15   45 1   
    39   15   46 1   
    40   16   17 1   
    41   16   47 1   
    42   16   48 1   
    43   17   18 1   
    44   17   49 1   
    45   17   50 1   
    46   18   19 1   
    47   18   51 1   
    48   18   52 1   
    49   19   20 1   
    50   19   53 1   
    51   19   54 1   
    52   20   21 1   
    53   20   55 1   
    54   20   56 1   
    55   21   22 1   
    56   21   57 1   
    57   21   58 1   
    58   22   23 1   
    59   22   59 1   
    60   22   60 1   
    61   23   24 1   
    62   23   61 1   
    63   23   62 1   
    64   24   43 1   
    65   24   44 1   
@<TRIPOS>SUBSTRUCTURE
     1 1D2         1 TEMP              0 ****  ****    0 ROOT
