@<TRIPOS>MOLECULE
1D2
   64    65     1     0     0
SMALL
bcc


@<TRIPOS>ATOM
      1 O2          0.1720    0.0170   -0.0150 oh        1 1D2     -0.629800
      2 C10         1.5690    0.1050    0.1850 c3        1 1D2      0.098100
      3 C9          1.9320   -0.0300    1.6840 c3        1 1D2      0.310900
      4 O3          3.3420   -0.0450    1.8610 os        1 1D2     -0.413600
      5 C15         3.9700   -1.1410    1.1940 c3        1 1D2      0.153100
      6 C16         5.4510   -1.0370    1.4980 c3        1 1D2     -0.098100
      7 C14         3.7160   -1.0620   -0.3170 c3        1 1D2     -0.136400
      8 C11         2.2110   -1.0810   -0.5710 c3        1 1D2      0.122500
      9 N           1.8180   -1.0650   -2.0330 n4        1 1D2     -0.676400
     10 C12         2.5850   -0.0720   -2.8250 c3        1 1D2      0.083100
     11 C13         1.9350   -2.4180   -2.6330 c3        1 1D2      0.083100
     12 O1          1.5430    1.1780    2.2810 os        1 1D2     -0.422600
     13 C8          1.5270    1.1500    3.7300 c3        1 1D2      0.143100
     14 C7          1.7170    2.6000    4.1620 c3        1 1D2     -0.092900
     15 C6          3.1130    3.1170    3.8690 c3        1 1D2     -0.078400
     16 C5          3.9340    3.3840    5.1150 c3        1 1D2     -0.082400
     17 C4          4.3710    2.1220    5.8350 c3        1 1D2     -0.077400
     18 C3          3.7430    1.9950    7.2090 c3        1 1D2     -0.079400
     19 C2          4.0710    0.6700    7.8730 c3        1 1D2     -0.078400
     20 C1          2.8580   -0.2150    8.0830 c3        1 1D2     -0.079400
     21 C20         2.2690   -0.7470    6.7880 c3        1 1D2     -0.077400
     22 C19         0.8890   -0.1840    6.5130 c3        1 1D2     -0.082400
     23 C18         0.3560   -0.5950    5.1520 c3        1 1D2     -0.078400
     24 C17         0.1930    0.5700    4.1970 c3        1 1D2     -0.092900
     25 H22O       -0.2470    0.6120    0.6270 ho        1 1D2      0.464000
     26 H10         1.9510    1.0930   -0.1970 h1        1 1D2      0.087700
     27 H9          1.4500   -0.9310    2.1530 h2        1 1D2      0.064700
     28 H11         1.7700   -2.0380   -0.1500 hx        1 1D2      0.109700
     29 H15         3.5500   -2.1070    1.5950 h1        1 1D2      0.050700
     30 H161        5.8620   -0.0690    1.1250 hc        1 1D2      0.064033
     31 H162        5.6100   -1.0820    2.6030 hc        1 1D2      0.064033
     32 H163        5.9930   -1.8830    1.0140 hc        1 1D2      0.064033
     33 H141        4.2170   -1.9310   -0.8160 hc        1 1D2      0.077700
     34 H142        4.1710   -0.1140   -0.7060 hc        1 1D2      0.077700
     35 H121        2.5350    0.9290   -2.3180 hx        1 1D2      0.103533
     36 H122        2.1360    0.0050   -3.8520 hx        1 1D2      0.103533
     37 H131        1.2480   -3.1260   -2.0960 hx        1 1D2      0.103533
     38 H132        1.6450   -2.3680   -3.7170 hx        1 1D2      0.103533
     39 H133        2.9930   -2.7810   -2.5450 hx        1 1D2      0.103533
     40 H8          2.3880    0.5220    4.0920 h1        1 1D2      0.072700
     41 H71C        1.5020    2.6560    5.2630 hc        1 1D2      0.055700
     42 H72C        0.9590    3.2350    3.6330 hc        1 1D2      0.055700
     43 H171       -0.4170    1.3730    4.6880 hc        1 1D2      0.055700
     44 H172       -0.3870    0.2260    3.2990 hc        1 1D2      0.055700
     45 H61C        3.6550    2.3900    3.2070 hc        1 1D2      0.043200
     46 H62C        3.0270    4.0790    3.2950 hc        1 1D2      0.043200
     47 H51C        3.3490    4.0430    5.8100 hc        1 1D2      0.047200
     48 H52C        4.8460    3.9650    4.8120 hc        1 1D2      0.047200
     49 H41C        5.4880    2.1230    5.9470 hc        1 1D2      0.036700
     50 H42C        4.1110    1.2190    5.2210 hc        1 1D2      0.036700
     51 H31C        2.6310    2.1150    7.1220 hc        1 1D2      0.043700
     52 H32C        4.1090    2.8370    7.8540 hc        1 1D2      0.043700
     53 H21C        4.8360    0.1130    7.2700 hc        1 1D2      0.042200
     54 H22C        4.5340    0.8690    8.8770 hc        1 1D2      0.042200
     55 H11C        2.0800    0.3530    8.6570 hc        1 1D2      0.043700
     56 H12C        3.1650   -1.0830    8.7270 hc        1 1D2      0.043700
     57 H201        2.9510   -0.5010    5.9310 hc        1 1D2      0.036700
     58 H202        2.2020   -1.8660    6.8390 hc        1 1D2      0.036700
     59 H191        0.1860   -0.5420    7.3110 hc        1 1D2      0.047200
     60 H192        0.9200    0.9350    6.5890 hc        1 1D2      0.047200
     61 H181        1.0280   -1.3660    4.6890 hc        1 1D2      0.043200
     62 H182       -0.6490   -1.0790    5.2840 hc        1 1D2      0.043200
     63 H123        3.6560   -0.3980   -2.9100 hx        1 1D2      0.103533
     64 HN1         0.8200   -0.7860   -2.0510 hn        1 1D2      0.473800
@<TRIPOS>BOND
     1    1    2 1   
     2    1   25 1   
     3    2    3 1   
     4    2    8 1   
     5    2   26 1   
     6    3    4 1   
     7    3   12 1   
     8    3   27 1   
     9    4    5 1   
    10    5    6 1   
    11    5    7 1   
    12    5   29 1   
    13    6   30 1   
    14    6   31 1   
    15    6   32 1   
    16    7    8 1   
    17    7   33 1   
    18    7   34 1   
    19    8    9 1   
    20    8   28 1   
    21    9   10 1   
    22    9   11 1   
    23    9   64 1   
    24   10   35 1   
    25   10   36 1   
    26   10   63 1   
    27   11   37 1   
    28   11   38 1   
    29   11   39 1   
    30   12   13 1   
    31   13   14 1   
    32   13   24 1   
    33   13   40 1   
    34   14   15 1   
    35   14   41 1   
    36   14   42 1   
    37   15   16 1   
    38   15   45 1   
    39   15   46 1   
    40   16   17 1   
    41   16   47 1   
    42   16   48 1   
    43   17   18 1   
    44   17   49 1   
    45   17   50 1   
    46   18   19 1   
    47   18   51 1   
    48   18   52 1   
    49   19   20 1   
    50   19   53 1   
    51   19   54 1   
    52   20   21 1   
    53   20   55 1   
    54   20   56 1   
    55   21   22 1   
    56   21   57 1   
    57   21   58 1   
    58   22   23 1   
    59   22   59 1   
    60   22   60 1   
    61   23   24 1   
    62   23   61 1   
    63   23   62 1   
    64   24   43 1   
    65   24   44 1   
@<TRIPOS>SUBSTRUCTURE
     1 1D2         1 TEMP              0 ****  ****    0 ROOT
