@<TRIPOS>MOLECULE
1D2
   63    64     1     0     0
SMALL
bcc


@<TRIPOS>ATOM
      1 O2         -2.9210    1.4670   -1.4990 oh        1 1D2     -0.579800
      2 C10        -2.6500    0.2700   -0.7930 c3        1 1D2      0.131100
      3 C9         -1.2080    0.3580   -0.2390 c3        1 1D2      0.295900
      4 O3         -0.8710   -0.7140    0.6310 os        1 1D2     -0.440600
      5 C15        -1.7600   -0.8040    1.7500 c3        1 1D2      0.152100
      6 C16        -1.2780   -1.9790    2.5790 c3        1 1D2     -0.093100
      7 C14        -3.1930   -1.0030    1.2790 c3        1 1D2     -0.146400
      8 C11        -3.6480    0.1650    0.3870 c3        1 1D2      0.194500
      9 N          -5.0350    0.0910   -0.0620 n3        1 1D2     -0.727600
     10 C12        -5.4240   -1.1750   -0.6350 c3        1 1D2      0.162100
     11 C13        -5.9770    0.5790    0.9190 c3        1 1D2      0.162100
     12 O1         -0.3480    0.1460   -1.3360 os        1 1D2     -0.423600
     13 C8          1.0270    0.4910   -1.0820 c3        1 1D2      0.142100
     14 C7          1.8570   -0.4080   -1.9960 c3        1 1D2     -0.090900
     15 C6          1.8040   -1.8640   -1.5730 c3        1 1D2     -0.079900
     16 C5          3.1280   -2.3940   -1.0590 c3        1 1D2     -0.078900
     17 C4          3.5210   -1.8310    0.2950 c3        1 1D2     -0.079400
     18 C3          4.7690   -0.9750    0.2220 c3        1 1D2     -0.077900
     19 C2          5.0850   -0.3000    1.5450 c3        1 1D2     -0.077400
     20 C1          4.9690    1.2110    1.4920 c3        1 1D2     -0.077900
     21 C20         3.5410    1.6990    1.3230 c3        1 1D2     -0.079400
     22 C19         3.3200    2.3780   -0.0140 c3        1 1D2     -0.078900
     23 C18         1.8630    2.7380   -0.2450 c3        1 1D2     -0.079900
     24 C17         1.2310    1.9750   -1.3910 c3        1 1D2     -0.090900
     25 H22O       -2.3290    1.4630   -2.2640 ho        1 1D2      0.409000
     26 H10        -2.7300   -0.6210   -1.4740 h1        1 1D2      0.062700
     27 H9         -1.0220    1.3470    0.2650 h2        1 1D2      0.047700
     28 H11        -3.5430    1.1260    0.9770 h1        1 1D2      0.066700
     29 H15        -1.6830    0.1510    2.3450 h1        1 1D2      0.035700
     30 H161       -0.2200   -1.8150    2.8940 hc        1 1D2      0.047033
     31 H162       -1.9220   -2.0810    3.4850 hc        1 1D2      0.047033
     32 H163       -1.3270   -2.9210    1.9840 hc        1 1D2      0.047033
     33 H141       -3.2600   -1.9650    0.7080 hc        1 1D2      0.058700
     34 H142       -3.8650   -1.0810    2.1720 hc        1 1D2      0.058700
     35 H121       -5.5340   -1.9950    0.1280 h1        1 1D2      0.031367
     36 H122       -6.4100   -1.0400   -1.1530 h1        1 1D2      0.031367
     37 H131       -5.7120    1.6340    1.1900 h1        1 1D2      0.031367
     38 H132       -7.0030    0.5740    0.4650 h1        1 1D2      0.031367
     39 H133       -6.0020   -0.0380    1.8590 h1        1 1D2      0.031367
     40 H8          1.2750    0.2740   -0.0060 h1        1 1D2      0.063700
     41 H71C        1.4690   -0.3060   -3.0430 hc        1 1D2      0.050200
     42 H72C        2.9130   -0.0330   -1.9840 hc        1 1D2      0.050200
     43 H171        1.8610    2.0890   -2.3110 hc        1 1D2      0.050200
     44 H172        0.2300    2.4320   -1.6200 hc        1 1D2      0.050200
     45 H61C        1.0100   -2.0000   -0.7890 hc        1 1D2      0.046200
     46 H62C        1.4970   -2.4860   -2.4560 hc        1 1D2      0.046200
     47 H51C        3.0490   -3.5110   -0.9800 hc        1 1D2      0.038450
     48 H52C        3.9320   -2.1810   -1.8140 hc        1 1D2      0.038450
     49 H41C        2.6760   -1.2240    0.7160 hc        1 1D2      0.040700
     50 H42C        3.7010   -2.6750    1.0130 hc        1 1D2      0.040700
     51 H31C        5.6350   -1.6200   -0.0840 hc        1 1D2      0.038450
     52 H32C        4.6420   -0.2020   -0.5810 hc        1 1D2      0.038450
     53 H21C        4.4100   -0.6940    2.3500 hc        1 1D2      0.038200
     54 H22C        6.1340   -0.5600    1.8470 hc        1 1D2      0.038200
     55 H11C        5.3860    1.6270    2.4480 hc        1 1D2      0.038450
     56 H12C        5.6120    1.6020    0.6610 hc        1 1D2      0.038450
     57 H201        2.8290    0.8370    1.4250 hc        1 1D2      0.040700
     58 H202        3.2930    2.4230    2.1440 hc        1 1D2      0.040700
     59 H191        3.9460    3.3080   -0.0560 hc        1 1D2      0.038450
     60 H192        3.6820    1.7070   -0.8370 hc        1 1D2      0.038450
     61 H181        1.2670    2.5630    0.6900 hc        1 1D2      0.046200
     62 H182        1.7900    3.8350   -0.4740 hc        1 1D2      0.046200
     63 H123       -4.6620   -1.4950   -1.3920 h1        1 1D2      0.031367
@<TRIPOS>BOND
     1    1    2 1   
     2    1   25 1   
     3    2    3 1   
     4    2    8 1   
     5    2   26 1   
     6    3    4 1   
     7    3   12 1   
     8    3   27 1   
     9    4    5 1   
    10    5    6 1   
    11    5    7 1   
    12    5   29 1   
    13    6   30 1   
    14    6   31 1   
    15    6   32 1   
    16    7    8 1   
    17    7   33 1   
    18    7   34 1   
    19    8    9 1   
    20    8   28 1   
    21    9   10 1   
    22    9   11 1   
    23   10   35 1   
    24   10   36 1   
    25   10   63 1   
    26   11   37 1   
    27   11   38 1   
    28   11   39 1   
    29   12   13 1   
    30   13   14 1   
    31   13   24 1   
    32   13   40 1   
    33   14   15 1   
    34   14   41 1   
    35   14   42 1   
    36   15   16 1   
    37   15   45 1   
    38   15   46 1   
    39   16   17 1   
    40   16   47 1   
    41   16   48 1   
    42   17   18 1   
    43   17   49 1   
    44   17   50 1   
    45   18   19 1   
    46   18   51 1   
    47   18   52 1   
    48   19   20 1   
    49   19   53 1   
    50   19   54 1   
    51   20   21 1   
    52   20   55 1   
    53   20   56 1   
    54   21   22 1   
    55   21   57 1   
    56   21   58 1   
    57   22   23 1   
    58   22   59 1   
    59   22   60 1   
    60   23   24 1   
    61   23   61 1   
    62   23   62 1   
    63   24   43 1   
    64   24   44 1   
@<TRIPOS>SUBSTRUCTURE
     1 1D2         1 TEMP              0 ****  ****    0 ROOT
