@<TRIPOS>MOLECULE
1D2
   64    65     1     0     0
SMALL
bcc


@<TRIPOS>ATOM
      1 O2          0.1550    0.0350   -0.0030 oh        1 1D2     -0.629800
      2 C10         1.5540    0.1130    0.1900 c3        1 1D2      0.098100
      3 C9          1.9240   -0.0250    1.6880 c3        1 1D2      0.310900
      4 O3          3.3340   -0.0520    1.8570 os        1 1D2     -0.413600
      5 C15         3.9500   -1.1540    1.1870 c3        1 1D2      0.153100
      6 C16         5.4330   -1.0610    1.4850 c3        1 1D2     -0.098100
      7 C14         3.6890   -1.0730   -0.3220 c3        1 1D2     -0.136400
      8 C11         2.1820   -1.0790   -0.5690 c3        1 1D2      0.122500
      9 N           1.7830   -1.0610   -2.0290 nx        1 1D2     -0.676400
     10 C12         2.5540   -0.0740   -2.8250 c3        1 1D2      0.083100
     11 C13         1.8850   -2.4150   -2.6290 c3        1 1D2      0.083100
     12 O1          1.5480    1.1860    2.2850 os        1 1D2     -0.422600
     13 C8          1.5380    1.1590    3.7350 c3        1 1D2      0.143100
     14 C7          1.7430    2.6080    4.1660 c3        1 1D2     -0.092900
     15 C6          3.1420    3.1120    3.8650 c3        1 1D2     -0.078400
     16 C5          3.9710    3.3730    5.1070 c3        1 1D2     -0.082400
     17 C4          4.4010    2.1070    5.8260 c3        1 1D2     -0.077400
     18 C3          3.7780    1.9870    7.2030 c3        1 1D2     -0.079400
     19 C2          4.0970    0.6600    7.8670 c3        1 1D2     -0.078400
     20 C1          2.8780   -0.2150    8.0820 c3        1 1D2     -0.079400
     21 C20         2.2790   -0.7420    6.7910 c3        1 1D2     -0.077400
     22 C19         0.9020   -0.1680    6.5210 c3        1 1D2     -0.082400
     23 C18         0.3590   -0.5760    5.1640 c3        1 1D2     -0.078400
     24 C17         0.2020    0.5910    4.2090 c3        1 1D2     -0.092900
     25 H22O       -0.2560    0.6340    0.6410 ho        1 1D2      0.464000
     26 H10         1.9430    1.0970   -0.1940 h1        1 1D2      0.087700
     27 H9          1.4360   -0.9220    2.1590 h2        1 1D2      0.064700
     28 H11         1.7360   -2.0320   -0.1450 hx        1 1D2      0.109700
     29 H15         3.5230   -2.1160    1.5910 h1        1 1D2      0.050700
     30 H161        5.9660   -1.9120    0.9980 hc        1 1D2      0.064033
     31 H162        5.5980   -1.1080    2.5890 hc        1 1D2      0.064033
     32 H163        5.8510   -0.0970    1.1090 hc        1 1D2      0.064033
     33 H141        4.1500   -0.1290   -0.7140 hc        1 1D2      0.077700
     34 H142        4.1800   -1.9460   -0.8230 hc        1 1D2      0.077700
     35 H121        2.1000    0.0060   -3.8500 hx        1 1D2      0.103533
     36 H122        3.6210   -0.4090   -2.9150 hx        1 1D2      0.103533
     37 H131        1.1950   -3.1170   -2.0880 hx        1 1D2      0.103533
     38 H132        1.5910   -2.3620   -3.7120 hx        1 1D2      0.103533
     39 H133        2.9410   -2.7860   -2.5460 hx        1 1D2      0.103533
     40 H8          2.3960    0.5240    4.0930 h1        1 1D2      0.072700
     41 H71C        1.5330    2.6660    5.2670 hc        1 1D2      0.055700
     42 H72C        0.9880    3.2480    3.6400 hc        1 1D2      0.055700
     43 H171       -0.3860    0.2510    3.3130 hc        1 1D2      0.055700
     44 H172       -0.3990    1.3990    4.7020 hc        1 1D2      0.055700
     45 H61C        3.0620    4.0740    3.2900 hc        1 1D2      0.043200
     46 H62C        3.6750    2.3800    3.2010 hc        1 1D2      0.043200
     47 H51C        4.8870    3.9460    4.7990 hc        1 1D2      0.047200
     48 H52C        3.3960    4.0380    5.8040 hc        1 1D2      0.047200
     49 H41C        4.1300    1.2070    5.2140 hc        1 1D2      0.036700
     50 H42C        5.5180    2.0990    5.9330 hc        1 1D2      0.036700
     51 H31C        2.6660    2.1170    7.1210 hc        1 1D2      0.043700
     52 H32C        4.1540    2.8270    7.8450 hc        1 1D2      0.043700
     53 H21C        4.8540    0.0960    7.2600 hc        1 1D2      0.042200
     54 H22C        4.5660    0.8560    8.8680 hc        1 1D2      0.042200
     55 H11C        3.1800   -1.0850    8.7250 hc        1 1D2      0.043700
     56 H12C        2.1070    0.3600    8.6600 hc        1 1D2      0.043700
     57 H201        2.2020   -1.8600    6.8420 hc        1 1D2      0.036700
     58 H202        2.9590   -0.5020    5.9310 hc        1 1D2      0.036700
     59 H191        0.1990   -0.5190    7.3240 hc        1 1D2      0.047200
     60 H192        0.9430    0.9510    6.5970 hc        1 1D2      0.047200
     61 H181       -0.6490   -1.0510    5.3000 hc        1 1D2      0.043200
     62 H182        1.0220   -1.3520    4.6980 hc        1 1D2      0.043200
     63 H123        2.5150    0.9270   -2.3180 hx        1 1D2      0.103533
     64 HN1         0.7870   -0.7740   -2.0420 hn        1 1D2      0.473800
@<TRIPOS>BOND
     1    1    2 1   
     2    1   25 1   
     3    2    3 1   
     4    2    8 1   
     5    2   26 1   
     6    3    4 1   
     7    3   12 1   
     8    3   27 1   
     9    4    5 1   
    10    5    6 1   
    11    5    7 1   
    12    5   29 1   
    13    6   30 1   
    14    6   31 1   
    15    6   32 1   
    16    7    8 1   
    17    7   33 1   
    18    7   34 1   
    19    8    9 1   
    20    8   28 1   
    21    9   10 1   
    22    9   11 1   
    23    9   64 1   
    24   10   35 1   
    25   10   36 1   
    26   10   63 1   
    27   11   37 1   
    28   11   38 1   
    29   11   39 1   
    30   12   13 1   
    31   13   14 1   
    32   13   24 1   
    33   13   40 1   
    34   14   15 1   
    35   14   41 1   
    36   14   42 1   
    37   15   16 1   
    38   15   45 1   
    39   15   46 1   
    40   16   17 1   
    41   16   47 1   
    42   16   48 1   
    43   17   18 1   
    44   17   49 1   
    45   17   50 1   
    46   18   19 1   
    47   18   51 1   
    48   18   52 1   
    49   19   20 1   
    50   19   53 1   
    51   19   54 1   
    52   20   21 1   
    53   20   55 1   
    54   20   56 1   
    55   21   22 1   
    56   21   57 1   
    57   21   58 1   
    58   22   23 1   
    59   22   59 1   
    60   22   60 1   
    61   23   24 1   
    62   23   61 1   
    63   23   62 1   
    64   24   43 1   
    65   24   44 1   
@<TRIPOS>SUBSTRUCTURE
     1 1D2         1 TEMP              0 ****  ****    0 ROOT
