@<TRIPOS>MOLECULE
1D2
   63    64     1     0     0
SMALL
bcc


@<TRIPOS>ATOM
      1 O2         -3.4720   -2.8870   -1.7030 oh        1 1D2     -0.599800
      2 C10        -2.7570   -1.9050   -1.8670 c3        1 1D2      0.089100
      3 C9         -1.5190   -1.8720   -0.8140 c3        1 1D2      0.339900
      4 O3         -0.7210   -3.0830   -0.8300 os        1 1D2     -0.438600
      5 C15        -0.9080   -3.7960   -1.9700 c3        1 1D2      0.150100
      6 C16         0.4440   -4.8790   -2.0770 c3        1 1D2     -0.115100
      7 C14        -1.0570   -3.2390   -3.2570 c3        1 1D2     -0.104400
      8 C11        -1.8570   -2.0300   -3.2190 c3        1 1D2      0.165500
      9 N          -1.0000   -0.9140   -3.2970 n3        1 1D2     -0.752600
     10 C12        -0.0010   -1.1460   -4.3030 c3        1 1D2      0.161600
     11 C13        -1.7690    0.2580   -3.6450 c3        1 1D2      0.161600
     12 O1         -0.7200   -0.8180   -1.1080 os        1 1D2     -0.458600
     13 C8         -0.2170   -0.1330    0.0460 c3        1 1D2      0.145100
     14 C7         -1.0020    1.1230    0.2620 c3        1 1D2     -0.093900
     15 C6         -1.2870    1.3150    1.8620 c3        1 1D2     -0.079900
     16 C5         -1.1340    2.8110    2.2440 c3        1 1D2     -0.084400
     17 C4         -0.6500    2.9270    3.7340 c3        1 1D2     -0.076400
     18 C3          0.7350    3.8170    3.7870 c3        1 1D2     -0.078400
     19 C2          1.8900    2.9500    4.3760 c3        1 1D2     -0.078400
     20 C1          3.0620    2.8970    3.3710 c3        1 1D2     -0.078400
     21 C20         3.3220    1.4100    2.9440 c3        1 1D2     -0.076400
     22 C19         3.0440    1.2450    1.4130 c3        1 1D2     -0.084400
     23 C18         2.0280    0.0080    1.1820 c3        1 1D2     -0.079900
     24 C17         1.2490    0.2130   -0.1640 c3        1 1D2     -0.093900
     25 H22O       -4.3290   -2.6390   -1.7260 ho        1 1D2      0.405000
     26 H10        -3.2720   -1.0650   -1.8500 h1        1 1D2      0.061700
     27 H9         -1.8780   -1.7500    0.0810 h2        1 1D2      0.097700
     28 H11        -2.4580   -2.0230   -4.0020 h1        1 1D2      0.077700
     29 H15        -1.7110   -4.3520   -1.8180 h1        1 1D2      0.058700
     30 H161        1.2570   -4.3690   -2.2760 hc        1 1D2      0.044033
     31 H162        0.5530   -5.3490   -1.2230 hc        1 1D2      0.044033
     32 H163        0.2810   -5.5400   -2.8010 hc        1 1D2      0.044033
     33 H141       -1.5010   -3.9050   -3.8510 hc        1 1D2      0.065200
     34 H142       -0.1750   -3.0270   -3.6180 hc        1 1D2      0.065200
     35 H121        0.8110   -1.5050   -3.8820 h1        1 1D2      0.032533
     36 H122       -0.3420   -1.7940   -4.9620 h1        1 1D2      0.032533
     37 H131       -2.1090    0.6780   -2.8300 h1        1 1D2      0.032533
     38 H132       -2.5240   -0.0030   -4.2180 h1        1 1D2      0.032533
     39 H133       -1.1930    0.8970   -4.1290 h1        1 1D2      0.032533
     40 H8         -0.3040   -0.7080    0.8270 h1        1 1D2      0.058700
     41 H71C       -1.8520    1.0610   -0.2170 hc        1 1D2      0.051950
     42 H72C       -0.4880    1.8940   -0.0770 hc        1 1D2      0.051950
     43 H171        1.6300   -0.3750   -0.8580 hc        1 1D2      0.051950
     44 H172        1.3260    1.1410   -0.4460 hc        1 1D2      0.051950
     45 H61C       -0.6360    0.7730    2.3810 hc        1 1D2      0.042950
     46 H62C       -2.2020    1.0170    2.0710 hc        1 1D2      0.042950
     47 H51C       -0.4900    3.2250    1.6650 hc        1 1D2      0.042950
     48 H52C       -1.9920    3.2590    2.1470 hc        1 1D2      0.042950
     49 H41C       -1.3490    3.3700    4.2750 hc        1 1D2      0.038700
     50 H42C       -0.4780    2.0350    4.0910 hc        1 1D2      0.038700
     51 H31C        0.5940    4.6140    4.3610 hc        1 1D2      0.039450
     52 H32C        0.9730    4.1050    2.8800 hc        1 1D2      0.039450
     53 H21C        2.2030    3.3510    5.2270 hc        1 1D2      0.039700
     54 H22C        1.5680    2.0580    4.5420 hc        1 1D2      0.039700
     55 H11C        3.8780    3.2650    3.7970 hc        1 1D2      0.039450
     56 H12C        2.8370    3.4320    2.5770 hc        1 1D2      0.039450
     57 H201        2.7320    0.8210    3.4450 hc        1 1D2      0.038700
     58 H202        4.2590    1.1740    3.1350 hc        1 1D2      0.038700
     59 H191        3.8940    1.0660    0.9420 hc        1 1D2      0.042950
     60 H192        2.6470    2.0600    1.0660 hc        1 1D2      0.042950
     61 H181        2.5350   -0.8300    1.1410 hc        1 1D2      0.042950
     62 H182        1.3930   -0.0330    1.9210 hc        1 1D2      0.042950
     63 H123        0.2120   -0.3020   -4.7550 h1        1 1D2      0.032533
@<TRIPOS>BOND
     1    1    2 1   
     2    1   25 1   
     3    2    3 1   
     4    2    8 1   
     5    2   26 1   
     6    3    4 1   
     7    3   12 1   
     8    3   27 1   
     9    4    5 1   
    10    5    6 1   
    11    5    7 1   
    12    5   29 1   
    13    6   30 1   
    14    6   31 1   
    15    6   32 1   
    16    7    8 1   
    17    7   33 1   
    18    7   34 1   
    19    8    9 1   
    20    8   28 1   
    21    9   10 1   
    22    9   11 1   
    23   10   35 1   
    24   10   36 1   
    25   10   63 1   
    26   11   37 1   
    27   11   38 1   
    28   11   39 1   
    29   12   13 1   
    30   13   14 1   
    31   13   24 1   
    32   13   40 1   
    33   14   15 1   
    34   14   41 1   
    35   14   42 1   
    36   15   16 1   
    37   15   45 1   
    38   15   46 1   
    39   16   17 1   
    40   16   47 1   
    41   16   48 1   
    42   17   18 1   
    43   17   49 1   
    44   17   50 1   
    45   18   19 1   
    46   18   51 1   
    47   18   52 1   
    48   19   20 1   
    49   19   53 1   
    50   19   54 1   
    51   20   21 1   
    52   20   55 1   
    53   20   56 1   
    54   21   22 1   
    55   21   57 1   
    56   21   58 1   
    57   22   23 1   
    58   22   59 1   
    59   22   60 1   
    60   23   24 1   
    61   23   61 1   
    62   23   62 1   
    63   24   43 1   
    64   24   44 1   
@<TRIPOS>SUBSTRUCTURE
     1 1D2         1 TEMP              0 ****  ****    0 ROOT
