@<TRIPOS>MOLECULE
1D4
   66    67     1     0     0
SMALL
bcc


@<TRIPOS>ATOM
      1 O3         -2.1410    1.8970   -0.5920 oh        1 1D4     -0.580800
      2 C12        -2.5960    0.5560   -0.5500 c3        1 1D4      0.131100
      3 C5         -1.6690   -0.2310    0.4070 c3        1 1D4      0.295900
      4 O2         -2.1150   -1.5560    0.6610 os        1 1D4     -0.439600
      5 C6         -3.4340   -1.5850    1.2170 c3        1 1D4      0.152100
      6 C7         -3.7690   -3.0490    1.4320 c3        1 1D4     -0.092100
      7 C8         -4.4260   -0.9180    0.2750 c3        1 1D4     -0.146400
      8 C9         -4.0390    0.5470    0.0130 c3        1 1D4      0.194500
      9 N          -4.9710    1.2870   -0.8340 n3        1 1D4     -0.727600
     10 C10        -5.3370    0.6240   -2.0620 c3        1 1D4      0.162100
     11 C11        -6.1100    1.8020   -0.1100 c3        1 1D4      0.162100
     12 O1         -0.4630   -0.4360   -0.2950 os        1 1D4     -0.421600
     13 C4          0.6270   -0.9040    0.5170 c3        1 1D4      0.145100
     14 C13         1.6610   -1.4460   -0.4700 c3        1 1D4     -0.095900
     15 C14         2.4940   -2.5430    0.1590 c3        1 1D4     -0.077400
     16 C15         3.7990   -2.7710   -0.5800 c3        1 1D4     -0.077900
     17 C16         4.8890   -1.7910   -0.1810 c3        1 1D4     -0.078900
     18 C17         5.2470   -0.8240   -1.2930 c3        1 1D4     -0.082900
     19 C18         6.1200    0.3170   -0.8020 c3        1 1D4     -0.077400
     20 C19         5.3630    1.6180   -0.6250 c3        1 1D4     -0.077400
     21 C20         4.3020    1.5240    0.4500 c3        1 1D4     -0.082900
     22 C21         3.4360    2.7640    0.5100 c3        1 1D4     -0.078900
     23 C1          2.1790    2.5410    1.3290 c3        1 1D4     -0.077900
     24 C2          1.2180    1.5590    0.6840 c3        1 1D4     -0.077400
     25 C3          1.1920    0.2170    1.3870 c3        1 1D4     -0.095900
     26 H3         -1.2730    1.8700   -1.0170 ho        1 1D4      0.410000
     27 H12        -2.5540    0.0900   -1.5710 h1        1 1D4      0.061700
     28 H5         -1.5130    0.3250    1.3730 h2        1 1D4      0.049700
     29 H9         -3.9960    1.0880    1.0060 h1        1 1D4      0.066700
     30 H6         -3.4190   -1.0400    2.2040 h1        1 1D4      0.035700
     31 H71C       -3.0160   -3.5160    2.1110 hc        1 1D4      0.047033
     32 H72C       -4.7820   -3.1340    1.8900 hc        1 1D4      0.047033
     33 H73C       -3.7560   -3.5980    0.4610 hc        1 1D4      0.047033
     34 H81C       -4.4480   -1.4840   -0.6930 hc        1 1D4      0.058700
     35 H82C       -5.4500   -0.9640    0.7280 hc        1 1D4      0.058700
     36 H101       -6.0310   -0.2490   -1.9090 h1        1 1D4      0.031200
     37 H102       -5.8480    1.3690   -2.7270 h1        1 1D4      0.031200
     38 H103       -4.4130    0.2570   -2.5810 h1        1 1D4      0.031200
     39 H111       -5.7490    2.4500    0.7310 h1        1 1D4      0.031200
     40 H112       -6.7240    2.4300   -0.8070 h1        1 1D4      0.031200
     41 H113       -6.7700    0.9950    0.3160 h1        1 1D4      0.031200
     42 H4          0.2540   -1.7380    1.1760 h1        1 1D4      0.058700
     43 H131        1.1280   -1.8440   -1.3730 hc        1 1D4      0.051200
     44 H132        2.3200   -0.6090   -0.8180 hc        1 1D4      0.051200
     45 H31C        0.5790    0.3050    2.3230 hc        1 1D4      0.051200
     46 H32C        2.2290   -0.0790    1.6990 hc        1 1D4      0.051200
     47 H141        2.7090   -2.2950    1.2320 hc        1 1D4      0.043700
     48 H142        1.9000   -3.4960    0.1580 hc        1 1D4      0.043700
     49 H151        4.1520   -3.8130   -0.3570 hc        1 1D4      0.039950
     50 H152        3.6160   -2.7190   -1.6860 hc        1 1D4      0.039950
     51 H161        4.5710   -1.2110    0.7270 hc        1 1D4      0.038950
     52 H162        5.8110   -2.3600    0.1100 hc        1 1D4      0.038950
     53 H171        5.7870   -1.3860   -2.1010 hc        1 1D4      0.042200
     54 H172        4.3100   -0.4150   -1.7560 hc        1 1D4      0.042200
     55 H181        6.6060    0.0350    0.1690 hc        1 1D4      0.038200
     56 H182        6.9450    0.4900   -1.5430 hc        1 1D4      0.038200
     57 H191        6.0900    2.4320   -0.3610 hc        1 1D4      0.038200
     58 H192        4.8850    1.9040   -1.5990 hc        1 1D4      0.038200
     59 H201        3.6490    0.6340    0.2390 hc        1 1D4      0.042200
     60 H202        4.7860    1.3510    1.4470 hc        1 1D4      0.042200
     61 H211        4.0230    3.6080    0.9590 hc        1 1D4      0.038950
     62 H212        3.1500    3.0770   -0.5290 hc        1 1D4      0.038950
     63 H11C        2.4620    2.1880    2.3550 hc        1 1D4      0.039950
     64 H12C        1.6620    3.5300    1.4540 hc        1 1D4      0.039950
     65 H21C        0.1780    1.9860    0.6940 hc        1 1D4      0.043700
     66 H22C        1.4870    1.4080   -0.3960 hc        1 1D4      0.043700
@<TRIPOS>BOND
     1    1    2 1   
     2    1   26 1   
     3    2    3 1   
     4    2    8 1   
     5    2   27 1   
     6    3    4 1   
     7    3   12 1   
     8    3   28 1   
     9    4    5 1   
    10    5    6 1   
    11    5    7 1   
    12    5   30 1   
    13    6   31 1   
    14    6   32 1   
    15    6   33 1   
    16    7    8 1   
    17    7   34 1   
    18    7   35 1   
    19    8    9 1   
    20    8   29 1   
    21    9   10 1   
    22    9   11 1   
    23   10   36 1   
    24   10   37 1   
    25   10   38 1   
    26   11   39 1   
    27   11   40 1   
    28   11   41 1   
    29   12   13 1   
    30   13   14 1   
    31   13   25 1   
    32   13   42 1   
    33   14   15 1   
    34   14   43 1   
    35   14   44 1   
    36   15   16 1   
    37   15   47 1   
    38   15   48 1   
    39   16   17 1   
    40   16   49 1   
    41   16   50 1   
    42   17   18 1   
    43   17   51 1   
    44   17   52 1   
    45   18   19 1   
    46   18   53 1   
    47   18   54 1   
    48   19   20 1   
    49   19   55 1   
    50   19   56 1   
    51   20   21 1   
    52   20   57 1   
    53   20   58 1   
    54   21   22 1   
    55   21   59 1   
    56   21   60 1   
    57   22   23 1   
    58   22   61 1   
    59   22   62 1   
    60   23   24 1   
    61   23   63 1   
    62   23   64 1   
    63   24   25 1   
    64   24   65 1   
    65   24   66 1   
    66   25   45 1   
    67   25   46 1   
@<TRIPOS>SUBSTRUCTURE
     1 1D4         1 TEMP              0 ****  ****    0 ROOT
