@<TRIPOS>MOLECULE
1D4
   67    68     1     0     0
SMALL
bcc


@<TRIPOS>ATOM
      1 O3          0.0910    0.2140    0.1680 oh        1 1D4     -0.631800
      2 C12         1.5040    0.1630    0.1720 c3        1 1D4      0.099100
      3 C5          2.0550   -0.0680    1.6010 c3        1 1D4      0.310900
      4 O2          3.4660   -0.2210    1.5780 os        1 1D4     -0.413600
      5 C6          3.8880   -1.3410    0.7970 c3        1 1D4      0.153100
      6 C7          5.4000   -1.3860    0.8930 c3        1 1D4     -0.098100
      7 C8          3.4370   -1.1770   -0.6600 c3        1 1D4     -0.136400
      8 C9          1.9170   -1.0470   -0.7000 c3        1 1D4      0.122500
      9 N           1.3300   -0.9350   -2.0910 n4        1 1D4     -0.676400
     10 C10         2.0730    0.0140   -2.9550 c3        1 1D4      0.083100
     11 C11         1.2300   -2.2680   -2.7370 c3        1 1D4      0.083100
     12 O1          1.8650    1.1450    2.2770 os        1 1D4     -0.420600
     13 C4          2.0690    1.0790    3.7070 c3        1 1D4      0.146100
     14 C13         2.1700    2.5370    4.1530 c3        1 1D4     -0.100900
     15 C14         3.0410    2.6670    5.3870 c3        1 1D4     -0.073400
     16 C15         2.7970    3.9690    6.1250 c3        1 1D4     -0.078900
     17 C16         1.5870    3.9200    7.0400 c3        1 1D4     -0.080400
     18 C17         0.4460    4.7940    6.5560 c3        1 1D4     -0.082400
     19 C18        -0.8440    4.5210    7.3090 c3        1 1D4     -0.078400
     20 C19        -1.8380    3.6950    6.5170 c3        1 1D4     -0.078400
     21 C20        -1.3260    2.3010    6.2280 c3        1 1D4     -0.082400
     22 C21        -2.2400    1.5380    5.2950 c3        1 1D4     -0.080400
     23 C1         -1.5740    0.2970    4.7310 c3        1 1D4     -0.078900
     24 C2         -0.4290    0.6170    3.7870 c3        1 1D4     -0.073400
     25 C3          0.9300    0.3340    4.3950 c3        1 1D4     -0.100900
     26 H3         -0.1770    0.8130    0.8850 ho        1 1D4      0.466000
     27 H12         1.9260    1.1250   -0.2330 h1        1 1D4      0.086700
     28 H5          1.5550   -0.9410    2.1040 h2        1 1D4      0.066700
     29 H9          1.4480   -1.9750   -0.2470 hx        1 1D4      0.109700
     30 H6          3.4360   -2.2800    1.2270 h1        1 1D4      0.050700
     31 H71C        5.8470   -0.4440    0.4950 hc        1 1D4      0.064367
     32 H72C        5.7050   -1.4930    1.9630 hc        1 1D4      0.064367
     33 H73C        5.7860   -2.2560    0.3120 hc        1 1D4      0.064367
     34 H81C        3.7780   -2.0670   -1.2480 hc        1 1D4      0.077700
     35 H82C        3.9240   -0.2590   -1.0830 hc        1 1D4      0.077700
     36 H101        3.0850   -0.4060   -3.2000 hx        1 1D4      0.103533
     37 H102        2.1920    0.9940   -2.4190 hx        1 1D4      0.103533
     38 H103        1.4960    0.1740   -3.9060 hx        1 1D4      0.103533
     39 H111        0.8000   -2.1460   -3.7680 hx        1 1D4      0.103533
     40 H112        0.5570   -2.9300   -2.1280 hx        1 1D4      0.103533
     41 H113        2.2490   -2.7300   -2.8090 hx        1 1D4      0.103533
     42 H4          3.0430    0.5480    3.8990 h1        1 1D4      0.065700
     43 H131        2.6040    3.1480    3.3180 hc        1 1D4      0.059700
     44 H132        1.1440    2.9380    4.3590 hc        1 1D4      0.059700
     45 H31C        0.9360    0.6330    5.4780 hc        1 1D4      0.059700
     46 H32C        1.1280   -0.7700    4.3590 hc        1 1D4      0.059700
     47 H141        2.8560    1.8030    6.0800 hc        1 1D4      0.037200
     48 H142        4.1190    2.6130    5.0780 hc        1 1D4      0.037200
     49 H151        2.6910    4.8050    5.3840 hc        1 1D4      0.045450
     50 H152        3.7080    4.1950    6.7410 hc        1 1D4      0.045450
     51 H161        1.8860    4.2580    8.0680 hc        1 1D4      0.043450
     52 H162        1.2260    2.8610    7.1460 hc        1 1D4      0.043450
     53 H171        0.7360    5.8700    6.6900 hc        1 1D4      0.040700
     54 H172        0.2860    4.6380    5.4560 hc        1 1D4      0.040700
     55 H181       -0.6200    4.0040    8.2780 hc        1 1D4      0.043450
     56 H182       -1.3310    5.5000    7.5650 hc        1 1D4      0.043450
     57 H191       -2.0680    4.2180    5.5510 hc        1 1D4      0.043450
     58 H192       -2.7990    3.6270    7.0930 hc        1 1D4      0.043450
     59 H201       -1.2070    1.7350    7.1890 hc        1 1D4      0.040700
     60 H202       -0.3070    2.3780    5.7620 hc        1 1D4      0.040700
     61 H211       -2.5610    2.2030    4.4500 hc        1 1D4      0.043450
     62 H212       -3.1690    1.2350    5.8460 hc        1 1D4      0.043450
     63 H11C       -2.3480   -0.2990    4.1780 hc        1 1D4      0.045450
     64 H12C       -1.2090   -0.3450    5.5760 hc        1 1D4      0.045450
     65 H21C       -0.4790    1.6940    3.4720 hc        1 1D4      0.037200
     66 H22C       -0.5350    0.0050    2.8500 hc        1 1D4      0.037200
     67 HN1         0.3710   -0.5640   -1.9600 hn        1 1D4      0.473800
@<TRIPOS>BOND
     1    1    2 1   
     2    1   26 1   
     3    2    3 1   
     4    2    8 1   
     5    2   27 1   
     6    3    4 1   
     7    3   12 1   
     8    3   28 1   
     9    4    5 1   
    10    5    6 1   
    11    5    7 1   
    12    5   30 1   
    13    6   31 1   
    14    6   32 1   
    15    6   33 1   
    16    7    8 1   
    17    7   34 1   
    18    7   35 1   
    19    8    9 1   
    20    8   29 1   
    21    9   10 1   
    22    9   11 1   
    23    9   67 1   
    24   10   36 1   
    25   10   37 1   
    26   10   38 1   
    27   11   39 1   
    28   11   40 1   
    29   11   41 1   
    30   12   13 1   
    31   13   14 1   
    32   13   25 1   
    33   13   42 1   
    34   14   15 1   
    35   14   43 1   
    36   14   44 1   
    37   15   16 1   
    38   15   47 1   
    39   15   48 1   
    40   16   17 1   
    41   16   49 1   
    42   16   50 1   
    43   17   18 1   
    44   17   51 1   
    45   17   52 1   
    46   18   19 1   
    47   18   53 1   
    48   18   54 1   
    49   19   20 1   
    50   19   55 1   
    51   19   56 1   
    52   20   21 1   
    53   20   57 1   
    54   20   58 1   
    55   21   22 1   
    56   21   59 1   
    57   21   60 1   
    58   22   23 1   
    59   22   61 1   
    60   22   62 1   
    61   23   24 1   
    62   23   63 1   
    63   23   64 1   
    64   24   25 1   
    65   24   65 1   
    66   24   66 1   
    67   25   45 1   
    68   25   46 1   
@<TRIPOS>SUBSTRUCTURE
     1 1D4         1 TEMP              0 ****  ****    0 ROOT
