@<TRIPOS>MOLECULE
1D4
   67    68     1     0     0
SMALL
bcc


@<TRIPOS>ATOM
      1 O3          0.0940    0.2100    0.1680 oh        1 1D4     -0.631800
      2 C12         1.5080    0.1650    0.1710 c3        1 1D4      0.099100
      3 C5          2.0600   -0.0640    1.6000 c3        1 1D4      0.310900
      4 O2          3.4730   -0.2090    1.5760 os        1 1D4     -0.413600
      5 C6          3.8990   -1.3270    0.7950 c3        1 1D4      0.153100
      6 C7          5.4120   -1.3630    0.8900 c3        1 1D4     -0.098100
      7 C8          3.4470   -1.1640   -0.6620 c3        1 1D4     -0.136400
      8 C9          1.9260   -1.0420   -0.7010 c3        1 1D4      0.122500
      9 N           1.3380   -0.9320   -2.0910 n4        1 1D4     -0.676400
     10 C10         2.0750    0.0210   -2.9560 c3        1 1D4      0.083100
     11 C11         1.2440   -2.2650   -2.7390 c3        1 1D4      0.083100
     12 O1          1.8650    1.1490    2.2770 os        1 1D4     -0.420600
     13 C4          2.0690    1.0820    3.7070 c3        1 1D4      0.146100
     14 C13         2.1630    2.5400    4.1540 c3        1 1D4     -0.100900
     15 C14         3.0340    2.6730    5.3870 c3        1 1D4     -0.073400
     16 C15         2.7840    3.9740    6.1260 c3        1 1D4     -0.078900
     17 C16         1.5740    3.9180    7.0420 c3        1 1D4     -0.080400
     18 C17         0.4300    4.7880    6.5590 c3        1 1D4     -0.082400
     19 C18        -0.8590    4.5090    7.3110 c3        1 1D4     -0.078400
     20 C19        -1.8500    3.6790    6.5190 c3        1 1D4     -0.078400
     21 C20        -1.3310    2.2870    6.2290 c3        1 1D4     -0.082400
     22 C21        -2.2410    1.5200    5.2950 c3        1 1D4     -0.080400
     23 C1         -1.5700    0.2830    4.7310 c3        1 1D4     -0.078900
     24 C2         -0.4270    0.6090    3.7870 c3        1 1D4     -0.073400
     25 C3          0.9330    0.3310    4.3940 c3        1 1D4     -0.100900
     26 H3         -0.1760    0.8060    0.8850 ho        1 1D4      0.466000
     27 H12         1.9240    1.1300   -0.2330 h1        1 1D4      0.086700
     28 H5          1.5650   -0.9390    2.1030 h2        1 1D4      0.066700
     29 H9          1.4620   -1.9720   -0.2480 hx        1 1D4      0.109700
     30 H6          3.4520   -2.2680    1.2240 h1        1 1D4      0.050700
     31 H71C        5.7180   -1.4690    1.9600 hc        1 1D4      0.064367
     32 H72C        5.8020   -2.2310    0.3080 hc        1 1D4      0.064367
     33 H73C        5.8540   -0.4190    0.4920 hc        1 1D4      0.064367
     34 H81C        3.9290   -0.2440   -1.0850 hc        1 1D4      0.077700
     35 H82C        3.7920   -2.0520   -1.2510 hc        1 1D4      0.077700
     36 H101        2.1890    1.0010   -2.4200 hx        1 1D4      0.103533
     37 H102        3.0900   -0.3940   -3.2010 hx        1 1D4      0.103533
     38 H103        1.4970    0.1780   -3.9070 hx        1 1D4      0.103533
     39 H111        2.2670   -2.7220   -2.8120 hx        1 1D4      0.103533
     40 H112        0.8130   -2.1460   -3.7690 hx        1 1D4      0.103533
     41 H113        0.5760   -2.9320   -2.1300 hx        1 1D4      0.103533
     42 H4          3.0460    0.5550    3.8980 h1        1 1D4      0.065700
     43 H131        2.5940    3.1540    3.3190 hc        1 1D4      0.059700
     44 H132        1.1350    2.9370    4.3600 hc        1 1D4      0.059700
     45 H31C        0.9390    0.6300    5.4780 hc        1 1D4      0.059700
     46 H32C        1.1370   -0.7710    4.3580 hc        1 1D4      0.059700
     47 H141        4.1120    2.6250    5.0790 hc        1 1D4      0.037200
     48 H142        2.8530    1.8080    6.0800 hc        1 1D4      0.037200
     49 H151        3.6940    4.2040    6.7430 hc        1 1D4      0.045450
     50 H152        2.6740    4.8100    5.3860 hc        1 1D4      0.045450
     51 H161        1.2180    2.8580    7.1460 hc        1 1D4      0.043450
     52 H162        1.8720    4.2570    8.0700 hc        1 1D4      0.043450
     53 H171        0.2700    4.6330    5.4590 hc        1 1D4      0.040700
     54 H172        0.7140    5.8650    6.6940 hc        1 1D4      0.040700
     55 H181       -0.6330    3.9910    8.2810 hc        1 1D4      0.043450
     56 H182       -1.3510    5.4850    7.5690 hc        1 1D4      0.043450
     57 H191       -2.0830    4.2010    5.5530 hc        1 1D4      0.043450
     58 H192       -2.8100    3.6050    7.0950 hc        1 1D4      0.043450
     59 H201       -0.3120    2.3690    5.7620 hc        1 1D4      0.040700
     60 H202       -1.2090    1.7200    7.1900 hc        1 1D4      0.040700
     61 H211       -3.1690    1.2130    5.8470 hc        1 1D4      0.043450
     62 H212       -2.5650    2.1850    4.4510 hc        1 1D4      0.043450
     63 H11C       -1.2020   -0.3580    5.5760 hc        1 1D4      0.045450
     64 H12C       -2.3410   -0.3160    4.1780 hc        1 1D4      0.045450
     65 H21C       -0.5300   -0.0040    2.8500 hc        1 1D4      0.037200
     66 H22C       -0.4810    1.6850    3.4720 hc        1 1D4      0.037200
     67 HN1         0.3770   -0.5670   -1.9600 hn        1 1D4      0.473800
@<TRIPOS>BOND
     1    1    2 1   
     2    1   26 1   
     3    2    3 1   
     4    2    8 1   
     5    2   27 1   
     6    3    4 1   
     7    3   12 1   
     8    3   28 1   
     9    4    5 1   
    10    5    6 1   
    11    5    7 1   
    12    5   30 1   
    13    6   31 1   
    14    6   32 1   
    15    6   33 1   
    16    7    8 1   
    17    7   34 1   
    18    7   35 1   
    19    8    9 1   
    20    8   29 1   
    21    9   10 1   
    22    9   11 1   
    23    9   67 1   
    24   10   36 1   
    25   10   37 1   
    26   10   38 1   
    27   11   39 1   
    28   11   40 1   
    29   11   41 1   
    30   12   13 1   
    31   13   14 1   
    32   13   25 1   
    33   13   42 1   
    34   14   15 1   
    35   14   43 1   
    36   14   44 1   
    37   15   16 1   
    38   15   47 1   
    39   15   48 1   
    40   16   17 1   
    41   16   49 1   
    42   16   50 1   
    43   17   18 1   
    44   17   51 1   
    45   17   52 1   
    46   18   19 1   
    47   18   53 1   
    48   18   54 1   
    49   19   20 1   
    50   19   55 1   
    51   19   56 1   
    52   20   21 1   
    53   20   57 1   
    54   20   58 1   
    55   21   22 1   
    56   21   59 1   
    57   21   60 1   
    58   22   23 1   
    59   22   61 1   
    60   22   62 1   
    61   23   24 1   
    62   23   63 1   
    63   23   64 1   
    64   24   25 1   
    65   24   65 1   
    66   24   66 1   
    67   25   45 1   
    68   25   46 1   
@<TRIPOS>SUBSTRUCTURE
     1 1D4         1 TEMP              0 ****  ****    0 ROOT
