@<TRIPOS>MOLECULE
1D4
   67    68     1     0     0
SMALL
bcc


@<TRIPOS>ATOM
      1 O3          0.0960    0.2050    0.1690 oh        1 1D4     -0.631800
      2 C12         1.5090    0.1600    0.1730 c3        1 1D4      0.099100
      3 C5          2.0610   -0.0670    1.6030 c3        1 1D4      0.310900
      4 O2          3.4730   -0.2120    1.5810 os        1 1D4     -0.413600
      5 C6          3.9000   -1.3320    0.8020 c3        1 1D4      0.153100
      6 C7          5.4130   -1.3690    0.8980 c3        1 1D4     -0.098100
      7 C8          3.4490   -1.1720   -0.6560 c3        1 1D4     -0.136400
      8 C9          1.9280   -1.0480   -0.6970 c3        1 1D4      0.122500
      9 N           1.3410   -0.9410   -2.0880 nx        1 1D4     -0.676400
     10 C10         2.0800    0.0110   -2.9540 c3        1 1D4      0.083100
     11 C11         1.2480   -2.2750   -2.7330 c3        1 1D4      0.083100
     12 O1          1.8650    1.1470    2.2770 os        1 1D4     -0.420600
     13 C4          2.0680    1.0830    3.7080 c3        1 1D4      0.146100
     14 C13         2.1630    2.5410    4.1520 c3        1 1D4     -0.100900
     15 C14         3.0320    2.6760    5.3860 c3        1 1D4     -0.073400
     16 C15         2.7830    3.9780    6.1230 c3        1 1D4     -0.078900
     17 C16         1.5720    3.9250    7.0370 c3        1 1D4     -0.080400
     18 C17         0.4290    4.7950    6.5510 c3        1 1D4     -0.082400
     19 C18        -0.8610    4.5180    7.3030 c3        1 1D4     -0.078400
     20 C19        -1.8510    3.6870    6.5110 c3        1 1D4     -0.078400
     21 C20        -1.3330    2.2950    6.2250 c3        1 1D4     -0.082400
     22 C21        -2.2440    1.5270    5.2910 c3        1 1D4     -0.080400
     23 C1         -1.5720    0.2880    4.7300 c3        1 1D4     -0.078900
     24 C2         -0.4280    0.6110    3.7860 c3        1 1D4     -0.073400
     25 C3          0.9310    0.3340    4.3950 c3        1 1D4     -0.100900
     26 H3         -0.1750    0.8030    0.8850 ho        1 1D4      0.466000
     27 H12         1.9270    1.1240   -0.2320 h1        1 1D4      0.086700
     28 H5          1.5640   -0.9410    2.1070 h2        1 1D4      0.066700
     29 H9          1.4640   -1.9780   -0.2430 hx        1 1D4      0.109700
     30 H6          3.4520   -2.2730    1.2320 h1        1 1D4      0.050700
     31 H71C        5.8030   -2.2380    0.3180 hc        1 1D4      0.064367
     32 H72C        5.7170   -1.4730    1.9680 hc        1 1D4      0.064367
     33 H73C        5.8550   -0.4250    0.4990 hc        1 1D4      0.064367
     34 H81C        3.9320   -0.2520   -1.0800 hc        1 1D4      0.077700
     35 H82C        3.7950   -2.0600   -1.2430 hc        1 1D4      0.077700
     36 H101        2.1930    0.9920   -2.4180 hx        1 1D4      0.103533
     37 H102        3.0940   -0.4050   -3.1970 hx        1 1D4      0.103533
     38 H103        1.5030    0.1670   -3.9050 hx        1 1D4      0.103533
     39 H111        2.2710   -2.7320   -2.8040 hx        1 1D4      0.103533
     40 H112        0.8180   -2.1570   -3.7640 hx        1 1D4      0.103533
     41 H113        0.5800   -2.9410   -2.1240 hx        1 1D4      0.103533
     42 H4          3.0440    0.5550    3.9010 h1        1 1D4      0.065700
     43 H131        2.5950    3.1530    3.3170 hc        1 1D4      0.059700
     44 H132        1.1350    2.9390    4.3560 hc        1 1D4      0.059700
     45 H31C        1.1340   -0.7690    4.3610 hc        1 1D4      0.059700
     46 H32C        0.9360    0.6340    5.4780 hc        1 1D4      0.059700
     47 H141        2.8500    1.8120    6.0800 hc        1 1D4      0.037200
     48 H142        4.1110    2.6260    5.0790 hc        1 1D4      0.037200
     49 H151        2.6750    4.8130    5.3810 hc        1 1D4      0.045450
     50 H152        3.6930    4.2090    6.7400 hc        1 1D4      0.045450
     51 H161        1.8690    4.2660    8.0650 hc        1 1D4      0.043450
     52 H162        1.2150    2.8660    7.1440 hc        1 1D4      0.043450
     53 H171        0.2710    4.6380    5.4520 hc        1 1D4      0.040700
     54 H172        0.7140    5.8720    6.6850 hc        1 1D4      0.040700
     55 H181       -1.3520    5.4950    7.5580 hc        1 1D4      0.043450
     56 H182       -0.6360    4.0030    8.2740 hc        1 1D4      0.043450
     57 H191       -2.0830    4.2080    5.5440 hc        1 1D4      0.043450
     58 H192       -2.8120    3.6160    7.0860 hc        1 1D4      0.043450
     59 H201       -0.3140    2.3750    5.7590 hc        1 1D4      0.040700
     60 H202       -1.2130    1.7300    7.1860 hc        1 1D4      0.040700
     61 H211       -2.5660    2.1900    4.4450 hc        1 1D4      0.043450
     62 H212       -3.1720    1.2220    5.8430 hc        1 1D4      0.043450
     63 H11C       -1.2060   -0.3510    5.5760 hc        1 1D4      0.045450
     64 H12C       -2.3440   -0.3110    4.1770 hc        1 1D4      0.045450
     65 H21C       -0.4820    1.6870    3.4690 hc        1 1D4      0.037200
     66 H22C       -0.5310   -0.0030    2.8500 hc        1 1D4      0.037200
     67 HN1         0.3810   -0.5760   -1.9580 hn        1 1D4      0.473800
@<TRIPOS>BOND
     1    1    2 1   
     2    1   26 1   
     3    2    3 1   
     4    2    8 1   
     5    2   27 1   
     6    3    4 1   
     7    3   12 1   
     8    3   28 1   
     9    4    5 1   
    10    5    6 1   
    11    5    7 1   
    12    5   30 1   
    13    6   31 1   
    14    6   32 1   
    15    6   33 1   
    16    7    8 1   
    17    7   34 1   
    18    7   35 1   
    19    8    9 1   
    20    8   29 1   
    21    9   10 1   
    22    9   11 1   
    23    9   67 1   
    24   10   36 1   
    25   10   37 1   
    26   10   38 1   
    27   11   39 1   
    28   11   40 1   
    29   11   41 1   
    30   12   13 1   
    31   13   14 1   
    32   13   25 1   
    33   13   42 1   
    34   14   15 1   
    35   14   43 1   
    36   14   44 1   
    37   15   16 1   
    38   15   47 1   
    39   15   48 1   
    40   16   17 1   
    41   16   49 1   
    42   16   50 1   
    43   17   18 1   
    44   17   51 1   
    45   17   52 1   
    46   18   19 1   
    47   18   53 1   
    48   18   54 1   
    49   19   20 1   
    50   19   55 1   
    51   19   56 1   
    52   20   21 1   
    53   20   57 1   
    54   20   58 1   
    55   21   22 1   
    56   21   59 1   
    57   21   60 1   
    58   22   23 1   
    59   22   61 1   
    60   22   62 1   
    61   23   24 1   
    62   23   63 1   
    63   23   64 1   
    64   24   25 1   
    65   24   65 1   
    66   24   66 1   
    67   25   45 1   
    68   25   46 1   
@<TRIPOS>SUBSTRUCTURE
     1 1D4         1 TEMP              0 ****  ****    0 ROOT
