@<TRIPOS>MOLECULE
1D4
   66    67     1     0     0
SMALL
bcc


@<TRIPOS>ATOM
      1 O3         -4.0230   -2.5250   -1.6470 oh        1 1D4     -0.604800
      2 C12        -3.0120   -1.8510   -1.9130 c3        1 1D4      0.132100
      3 C5         -1.9790   -1.7980   -0.6720 c3        1 1D4      0.330900
      4 O2         -1.5900   -3.1360   -0.1780 os        1 1D4     -0.437600
      5 C6         -1.8340   -4.0980   -1.0900 c3        1 1D4      0.156100
      6 C7         -0.8780   -5.4670   -0.6060 c3        1 1D4     -0.118100
      7 C8         -1.6350   -3.9600   -2.4880 c3        1 1D4     -0.133400
      8 C9         -2.0250   -2.6250   -2.9540 c3        1 1D4      0.147500
      9 N          -0.8710   -1.8550   -3.1360 n3        1 1D4     -0.743600
     10 C10        -1.1780   -0.7160   -3.9490 c3        1 1D4      0.155100
     11 C11         0.1330   -2.6420   -3.7730 c3        1 1D4      0.155100
     12 O1         -0.8530   -1.1250   -1.0620 os        1 1D4     -0.453600
     13 C4         -0.2720   -0.3190   -0.0300 c3        1 1D4      0.146100
     14 C13        -0.6030    1.0860   -0.2610 c3        1 1D4     -0.092400
     15 C14        -1.3450    1.6960    1.0500 c3        1 1D4     -0.083900
     16 C15        -0.8250    3.2380    1.3050 c3        1 1D4     -0.076900
     17 C16        -0.4770    3.4300    2.8280 c3        1 1D4     -0.076400
     18 C17         0.3190    4.7500    3.0250 c3        1 1D4     -0.076900
     19 C18         1.7420    4.5980    2.4100 c3        1 1D4     -0.078400
     20 C19         2.5020    3.4160    3.1240 c3        1 1D4     -0.078400
     21 C20         3.3460    2.6350    2.0790 c3        1 1D4     -0.076900
     22 C21         3.7360    1.2070    2.6590 c3        1 1D4     -0.076400
     23 C1          2.7450    0.0890    2.0400 c3        1 1D4     -0.076900
     24 C2          1.9710    0.6950    0.7750 c3        1 1D4     -0.083900
     25 C3          1.2790   -0.4970   -0.0420 c3        1 1D4     -0.092400
     26 H3         -4.7470   -2.0600   -1.8400 ho        1 1D4      0.422000
     27 H12        -3.2400   -0.9540   -2.2310 h1        1 1D4      0.062700
     28 H5         -2.4130   -1.2900    0.0840 h2        1 1D4      0.099700
     29 H9         -2.4930   -2.7160   -3.8320 h1        1 1D4      0.077700
     30 H6         -2.7930   -4.3580   -0.9700 h1        1 1D4      0.058700
     31 H71C       -0.9960   -5.6250    0.3560 hc        1 1D4      0.045033
     32 H72C       -1.1730   -6.2740   -1.1140 hc        1 1D4      0.045033
     33 H73C        0.0860   -5.2860   -0.7990 hc        1 1D4      0.045033
     34 H81C       -0.6960   -4.1060   -2.6910 hc        1 1D4      0.056700
     35 H82C       -2.1870   -4.6510   -2.9700 hc        1 1D4      0.056700
     36 H101       -1.9220   -0.9300   -4.5440 h1        1 1D4      0.033867
     37 H102       -1.4280    0.0420   -3.3690 h1        1 1D4      0.033867
     38 H103       -0.3820   -0.4720   -4.4880 h1        1 1D4      0.033867
     39 H111       -0.2850   -3.2500   -4.4130 h1        1 1D4      0.033867
     40 H112        0.6230   -3.1690   -3.0890 h1        1 1D4      0.033867
     41 H113        0.7660   -2.0470   -4.2470 h1        1 1D4      0.033867
     42 H4         -0.6260   -0.5990    0.8400 h1        1 1D4      0.054700
     43 H131        0.2190    1.5890   -0.4340 hc        1 1D4      0.051450
     44 H132       -1.2060    1.1580   -1.0440 hc        1 1D4      0.051450
     45 H31C        1.5100   -1.3470    0.3700 hc        1 1D4      0.051450
     46 H32C        1.6000   -0.4860   -0.9690 hc        1 1D4      0.051450
     47 H141       -1.1320    1.1450    1.8320 hc        1 1D4      0.044700
     48 H142       -2.3080    1.6980    0.9070 hc        1 1D4      0.044700
     49 H151       -1.5370    3.8730    1.0470 hc        1 1D4      0.040450
     50 H152       -0.0350    3.4040    0.7710 hc        1 1D4      0.040450
     51 H161        0.0660    2.6710    3.1380 hc        1 1D4      0.037700
     52 H162       -1.3090    3.4710    3.3500 hc        1 1D4      0.037700
     53 H171        0.3980    4.9430    3.9840 hc        1 1D4      0.037450
     54 H172       -0.1580    5.4950    2.5770 hc        1 1D4      0.037450
     55 H181        2.2410    5.4290    2.5360 hc        1 1D4      0.040200
     56 H182        1.6660    4.4080    1.4620 hc        1 1D4      0.040200
     57 H191        3.0940    3.7800    3.8160 hc        1 1D4      0.040200
     58 H192        1.8590    2.8200    3.5320 hc        1 1D4      0.040200
     59 H201        2.8260    2.5220    1.2610 hc        1 1D4      0.037450
     60 H202        4.1630    3.1380    1.8790 hc        1 1D4      0.037450
     61 H211        4.6680    0.9950    2.4130 hc        1 1D4      0.037700
     62 H212        3.6510    1.2150    3.6380 hc        1 1D4      0.037700
     63 H11C        2.0870   -0.1840    2.7270 hc        1 1D4      0.040450
     64 H12C        3.2710   -0.6990    1.7580 hc        1 1D4      0.040450
     65 H21C        1.2890    1.3200    1.0800 hc        1 1D4      0.044700
     66 H22C        2.6090    1.1630    0.1950 hc        1 1D4      0.044700
@<TRIPOS>BOND
     1    1    2 1   
     2    1   26 1   
     3    2    3 1   
     4    2    8 1   
     5    2   27 1   
     6    3    4 1   
     7    3   12 1   
     8    3   28 1   
     9    4    5 1   
    10    5    6 1   
    11    5    7 1   
    12    5   30 1   
    13    6   31 1   
    14    6   32 1   
    15    6   33 1   
    16    7    8 1   
    17    7   34 1   
    18    7   35 1   
    19    8    9 1   
    20    8   29 1   
    21    9   10 1   
    22    9   11 1   
    23   10   36 1   
    24   10   37 1   
    25   10   38 1   
    26   11   39 1   
    27   11   40 1   
    28   11   41 1   
    29   12   13 1   
    30   13   14 1   
    31   13   25 1   
    32   13   42 1   
    33   14   15 1   
    34   14   43 1   
    35   14   44 1   
    36   15   16 1   
    37   15   47 1   
    38   15   48 1   
    39   16   17 1   
    40   16   49 1   
    41   16   50 1   
    42   17   18 1   
    43   17   51 1   
    44   17   52 1   
    45   18   19 1   
    46   18   53 1   
    47   18   54 1   
    48   19   20 1   
    49   19   55 1   
    50   19   56 1   
    51   20   21 1   
    52   20   57 1   
    53   20   58 1   
    54   21   22 1   
    55   21   59 1   
    56   21   60 1   
    57   22   23 1   
    58   22   61 1   
    59   22   62 1   
    60   23   24 1   
    61   23   63 1   
    62   23   64 1   
    63   24   25 1   
    64   24   65 1   
    65   24   66 1   
    66   25   45 1   
    67   25   46 1   
@<TRIPOS>SUBSTRUCTURE
     1 1D4         1 TEMP              0 ****  ****    0 ROOT
