@<TRIPOS>MOLECULE
1D5
   43    46     1     0     0
SMALL
bcc


@<TRIPOS>ATOM
      1 OAA         0.8800   -0.3950    1.3360 o         1 1D5     -0.836300
      2 CAS         1.5840   -0.9150    0.4300 c         1 1D5      0.918600
      3 OAD         1.8340   -2.1510    0.3340 o         1 1D5     -0.836300
      4 CAP         2.1460    0.0290   -0.6640 c3        1 1D5     -0.181100
      5 CAZ         3.6240    0.0810   -0.6840 ca        1 1D5     -0.013300
      6 CAJ         4.3100    1.2990   -0.7150 ca        1 1D5     -0.122000
      7 CAM         5.7010    1.3490   -0.7430 ca        1 1D5     -0.159000
      8 CAI         4.3750   -1.1060   -0.6800 ca        1 1D5     -0.122000
      9 CAL         5.7610   -1.0770   -0.7100 ca        1 1D5     -0.159000
     10 CBB         6.4520    0.1570   -0.7370 ca        1 1D5     -0.004400
     11 NBE         7.8710    0.1830   -0.7730 n         1 1D5     -0.336000
     12 CBD         8.6470   -1.0430   -0.4580 c3        1 1D5      0.230200
     13 CBC         8.7500   -1.9880   -1.6030 cc        1 1D5     -0.143400
     14 SAQ         9.0700   -1.5510   -3.1880 ss        1 1D5      0.146200
     15 CAN         9.0340   -3.1050   -3.7500 cc        1 1D5     -0.170100
     16 CAX         8.7640   -4.0150   -2.7410 cd        1 1D5     -0.065900
     17 BrA         8.6380   -5.8430   -2.9630 br        1 1D5     -0.062100
     18 CAO         8.5880   -3.3580   -1.4840 cd        1 1D5     -0.114000
     19 CAV         8.6610    1.3110   -0.5400 c         1 1D5      0.664700
     20 OAC         8.3990    2.5150   -0.6830 o         1 1D5     -0.611500
     21 CAU        10.0340    0.8190   -0.1120 ce        1 1D5      0.070900
     22 OAE        11.0440    1.6700    0.1800 oh        1 1D5     -0.454100
     23 CAW        10.0320   -0.5350   -0.0290 cf        1 1D5     -0.277400
     24 CAT        11.1210   -1.4340    0.3670 c         1 1D5      0.654900
     25 OAB        12.1970   -1.4760   -0.2420 o         1 1D5     -0.513100
     26 CBA        10.8700   -2.2640    1.5460 cc        1 1D5     -0.225700
     27 SAR         9.5020   -2.1910    2.5060 ss        1 1D5      0.135200
     28 CAY        10.0400   -3.3810    3.5520 cc        1 1D5     -0.031700
     29 ClA         9.1620   -3.9090    4.8710 cl        1 1D5     -0.022400
     30 CAH        11.2880   -3.8650    3.1840 cd        1 1D5     -0.172000
     31 CAK        11.7700   -3.2130    2.0170 cd        1 1D5     -0.085000
     32 H2          1.7170    1.0510   -0.5090 hc        1 1D5      0.041700
     33 H3          1.7820   -0.3620   -1.6510 hc        1 1D5      0.041700
     34 H4          3.7430    2.2420   -0.7080 ha        1 1D5      0.162500
     35 H5          6.1990    2.3310   -0.7670 ha        1 1D5      0.135000
     36 H6          3.8250   -2.0670   -0.6120 ha        1 1D5      0.162500
     37 H7          6.3090   -2.0320   -0.7180 ha        1 1D5      0.135000
     38 H8          8.1640   -1.5760    0.4210 h1        1 1D5      0.092700
     39 H9          9.1980   -3.3620   -4.7970 h4        1 1D5      0.179000
     40 H10         8.3470   -3.8860   -0.5570 ha        1 1D5      0.168000
     41 H11        10.7010    2.5720    0.0370 ho        1 1D5      0.447000
     42 H12        11.8380   -4.6470    3.7130 ha        1 1D5      0.163000
     43 H13        12.7320   -3.4300    1.5440 ha        1 1D5      0.171000
@<TRIPOS>BOND
     1    1    2 1   
     2    2    3 1   
     3    2    4 1   
     4    4    5 1   
     5    4   32 1   
     6    4   33 1   
     7    5    6 ar  
     8    5    8 ar  
     9    6    7 ar  
    10    6   34 1   
    11    7   10 ar  
    12    7   35 1   
    13    8    9 ar  
    14    8   36 1   
    15    9   10 ar  
    16    9   37 1   
    17   10   11 1   
    18   11   12 1   
    19   11   19 1   
    20   12   13 1   
    21   12   23 1   
    22   12   38 1   
    23   13   14 1   
    24   13   18 2   
    25   14   15 1   
    26   15   16 2   
    27   15   39 1   
    28   16   17 1   
    29   16   18 1   
    30   18   40 1   
    31   19   20 2   
    32   19   21 1   
    33   21   22 1   
    34   21   23 2   
    35   22   41 1   
    36   23   24 1   
    37   24   25 2   
    38   24   26 1   
    39   26   27 1   
    40   26   31 2   
    41   27   28 1   
    42   28   29 1   
    43   28   30 2   
    44   30   31 1   
    45   30   42 1   
    46   31   43 1   
@<TRIPOS>SUBSTRUCTURE
     1 1D5         1 TEMP              0 ****  ****    0 ROOT
