@<TRIPOS>MOLECULE
1D5
   43    46     1     0     0
SMALL
bcc


@<TRIPOS>ATOM
      1 OAA         0.8770   -0.4350    1.3420 o         1 1D5     -0.836300
      2 CAS         1.5840   -0.9470    0.4320 c         1 1D5      0.918600
      3 OAD         1.8390   -2.1810    0.3290 o         1 1D5     -0.836300
      4 CAP         2.1400    0.0060   -0.6570 c3        1 1D5     -0.181100
      5 CAZ         3.6180    0.0650   -0.6760 ca        1 1D5     -0.013300
      6 CAJ         4.2980    1.2860   -0.7010 ca        1 1D5     -0.122000
      7 CAM         5.6890    1.3430   -0.7290 ca        1 1D5     -0.159000
      8 CAI         4.3750   -1.1180   -0.6800 ca        1 1D5     -0.122000
      9 CAL         5.7610   -1.0830   -0.7100 ca        1 1D5     -0.159000
     10 CBB         6.4450    0.1550   -0.7300 ca        1 1D5     -0.004400
     11 NBE         7.8640    0.1880   -0.7650 n         1 1D5     -0.336000
     12 CBD         8.6460   -1.0360   -0.4570 c3        1 1D5      0.230200
     13 CBC         8.7540   -1.9740   -1.6070 cc        1 1D5     -0.143400
     14 SAQ         9.0730   -1.5270   -3.1900 ss        1 1D5      0.146200
     15 CAN         9.0440   -3.0770   -3.7610 cc        1 1D5     -0.170100
     16 CAX         8.7770   -3.9940   -2.7570 cd        1 1D5     -0.065900
     17 BRA         8.6590   -5.8220   -2.9900 br        1 1D5     -0.062100
     18 CAO         8.5980   -3.3460   -1.4960 cd        1 1D5     -0.114000
     19 CAV         8.6500    1.3180   -0.5260 c         1 1D5      0.664700
     20 OAC         8.3820    2.5210   -0.6620 o         1 1D5     -0.611500
     21 CAU        10.0240    0.8300   -0.1010 ce        1 1D5      0.070900
     22 OAE        11.0300    1.6840    0.1970 oh        1 1D5     -0.454100
     23 CAW        10.0290   -0.5240   -0.0250 cf        1 1D5     -0.277400
     24 CAT        11.1220   -1.4210    0.3660 c         1 1D5      0.654900
     25 OAB        12.1980   -1.4550   -0.2430 o         1 1D5     -0.513100
     26 CBA        10.8750   -2.2580    1.5400 cc        1 1D5     -0.225700
     27 SAR         9.5060   -2.1970    2.5010 ss        1 1D5      0.135200
     28 CAY        10.0500   -3.3900    3.5400 cc        1 1D5     -0.031700
     29 CLA         9.1740   -3.9290    4.8560 cl        1 1D5     -0.022400
     30 CAH        11.3000   -3.8670    3.1690 cd        1 1D5     -0.172000
     31 CAK        11.7790   -3.2060    2.0060 cd        1 1D5     -0.085000
     32 H2          1.7780   -0.3810   -1.6460 hc        1 1D5      0.041700
     33 H3          1.7070    1.0250   -0.4960 hc        1 1D5      0.041700
     34 H4          3.7270    2.2270   -0.6880 ha        1 1D5      0.162500
     35 H5          6.1820    2.3280   -0.7470 ha        1 1D5      0.135000
     36 H6          3.8290   -2.0820   -0.6180 ha        1 1D5      0.162500
     37 H7          6.3130   -2.0350   -0.7240 ha        1 1D5      0.135000
     38 H8          8.1650   -1.5770    0.4180 h1        1 1D5      0.092700
     39 H9          9.2090   -3.3270   -4.8090 h4        1 1D5      0.179000
     40 H10         8.3590   -3.8800   -0.5730 ha        1 1D5      0.168000
     41 H11        10.6830    2.5860    0.0590 ho        1 1D5      0.447000
     42 H12        11.8530   -4.6480    3.6940 ha        1 1D5      0.163000
     43 H13        12.7420   -3.4150    1.5320 ha        1 1D5      0.171000
@<TRIPOS>BOND
     1    1    2 1   
     2    2    3 1   
     3    2    4 1   
     4    4    5 1   
     5    4   32 1   
     6    4   33 1   
     7    5    6 ar  
     8    5    8 ar  
     9    6    7 ar  
    10    6   34 1   
    11    7   10 ar  
    12    7   35 1   
    13    8    9 ar  
    14    8   36 1   
    15    9   10 ar  
    16    9   37 1   
    17   10   11 1   
    18   11   12 1   
    19   11   19 1   
    20   12   13 1   
    21   12   23 1   
    22   12   38 1   
    23   13   14 1   
    24   13   18 2   
    25   14   15 1   
    26   15   16 2   
    27   15   39 1   
    28   16   17 1   
    29   16   18 1   
    30   18   40 1   
    31   19   20 2   
    32   19   21 1   
    33   21   22 1   
    34   21   23 2   
    35   22   41 1   
    36   23   24 1   
    37   24   25 2   
    38   24   26 1   
    39   26   27 1   
    40   26   31 2   
    41   27   28 1   
    42   28   29 1   
    43   28   30 2   
    44   30   31 1   
    45   30   42 1   
    46   31   43 1   
@<TRIPOS>SUBSTRUCTURE
     1 1D5         1 TEMP              0 ****  ****    0 ROOT
