@<TRIPOS>MOLECULE
1D5
   43    46     1     0     0
SMALL
bcc


@<TRIPOS>ATOM
      1 OAA         0.8810   -0.4050    1.3390 o         1 1D5     -0.836300
      2 CAS         1.5850   -0.9220    0.4300 c         1 1D5      0.918600
      3 OAD         1.8350   -2.1570    0.3300 o         1 1D5     -0.836300
      4 CAP         2.1450    0.0260   -0.6610 c3        1 1D5     -0.181100
      5 CAZ         3.6230    0.0780   -0.6820 ca        1 1D5     -0.013300
      6 CAJ         4.3090    1.2970   -0.7100 ca        1 1D5     -0.122000
      7 CAM         5.7000    1.3470   -0.7380 ca        1 1D5     -0.159000
      8 CAI         4.3750   -1.1080   -0.6830 ca        1 1D5     -0.122000
      9 CAL         5.7610   -1.0790   -0.7130 ca        1 1D5     -0.159000
     10 CBB         6.4510    0.1550   -0.7370 ca        1 1D5     -0.004400
     11 NBE         7.8700    0.1820   -0.7730 n         1 1D5     -0.336000
     12 CBD         8.6460   -1.0450   -0.4600 c3        1 1D5      0.230200
     13 CBC         8.7500   -1.9870   -1.6070 cc        1 1D5     -0.143400
     14 SAQ         9.0700   -1.5480   -3.1910 ss        1 1D5      0.146200
     15 CAN         9.0350   -3.1000   -3.7570 cc        1 1D5     -0.170100
     16 CAX         8.7650   -4.0120   -2.7490 cd        1 1D5     -0.065900
     17 BRA         8.6390   -5.8400   -2.9750 br        1 1D5     -0.062100
     18 CAO         8.5880   -3.3580   -1.4910 cd        1 1D5     -0.114000
     19 CAV         8.6610    1.3100   -0.5390 c         1 1D5      0.664700
     20 OAC         8.3980    2.5140   -0.6790 o         1 1D5     -0.611500
     21 CAU        10.0330    0.8170   -0.1110 ce        1 1D5      0.070900
     22 OAE        11.0430    1.6670    0.1830 oh        1 1D5     -0.454100
     23 CAW        10.0320   -0.5370   -0.0310 cf        1 1D5     -0.277400
     24 CAT        11.1210   -1.4370    0.3650 c         1 1D5      0.654900
     25 OAB        12.1960   -1.4780   -0.2450 o         1 1D5     -0.513100
     26 CBA        10.8700   -2.2690    1.5410 cc        1 1D5     -0.225700
     27 SAR         9.5010   -2.1970    2.5010 ss        1 1D5      0.135200
     28 CAY        10.0390   -3.3890    3.5450 cc        1 1D5     -0.031700
     29 CLA         9.1610   -3.9200    4.8640 cl        1 1D5     -0.022400
     30 CAH        11.2880   -3.8730    3.1770 cd        1 1D5     -0.172000
     31 CAK        11.7700   -3.2190    2.0110 cd        1 1D5     -0.085000
     32 H2          1.7160    1.0480   -0.5030 hc        1 1D5      0.041700
     33 H3          1.7810   -0.3610   -1.6490 hc        1 1D5      0.041700
     34 H4          3.7420    2.2400   -0.6980 ha        1 1D5      0.162500
     35 H5          6.1970    2.3290   -0.7590 ha        1 1D5      0.135000
     36 H6          3.8250   -2.0690   -0.6180 ha        1 1D5      0.162500
     37 H7          6.3090   -2.0340   -0.7260 ha        1 1D5      0.135000
     38 H8          8.1630   -1.5790    0.4170 h1        1 1D5      0.092700
     39 H9          9.1980   -3.3550   -4.8040 h4        1 1D5      0.179000
     40 H10         8.3480   -3.8870   -0.5650 ha        1 1D5      0.168000
     41 H11        10.7000    2.5700    0.0410 ho        1 1D5      0.447000
     42 H12        11.8380   -4.6550    3.7040 ha        1 1D5      0.163000
     43 H13        12.7320   -3.4340    1.5380 ha        1 1D5      0.171000
@<TRIPOS>BOND
     1    1    2 1   
     2    2    3 1   
     3    2    4 1   
     4    4    5 1   
     5    4   32 1   
     6    4   33 1   
     7    5    6 ar  
     8    5    8 ar  
     9    6    7 ar  
    10    6   34 1   
    11    7   10 ar  
    12    7   35 1   
    13    8    9 ar  
    14    8   36 1   
    15    9   10 ar  
    16    9   37 1   
    17   10   11 1   
    18   11   12 1   
    19   11   19 1   
    20   12   13 1   
    21   12   23 1   
    22   12   38 1   
    23   13   14 1   
    24   13   18 2   
    25   14   15 1   
    26   15   16 2   
    27   15   39 1   
    28   16   17 1   
    29   16   18 1   
    30   18   40 1   
    31   19   20 2   
    32   19   21 1   
    33   21   22 1   
    34   21   23 2   
    35   22   41 1   
    36   23   24 1   
    37   24   25 2   
    38   24   26 1   
    39   26   27 1   
    40   26   31 2   
    41   27   28 1   
    42   28   29 1   
    43   28   30 2   
    44   30   31 1   
    45   30   42 1   
    46   31   43 1   
@<TRIPOS>SUBSTRUCTURE
     1 1D5         1 TEMP              0 ****  ****    0 ROOT
