@<TRIPOS>MOLECULE
1D6
   55    59     1     0     0
SMALL
bcc


@<TRIPOS>ATOM
      1 CAA         0.7750   -1.1720   -0.3350 c3        1 1D6     -0.051800
      2 CBA         2.1590   -0.6690   -0.1780 ca        1 1D6     -0.092300
      3 CAO         2.6670   -0.3860    1.0940 ca        1 1D6     -0.081000
      4 CAI         2.9770   -0.4840   -1.2990 ca        1 1D6     -0.107000
      5 CAH         4.2840   -0.0230   -1.1490 ca        1 1D6     -0.135000
      6 CAJ         4.7910    0.2500    0.1200 ca        1 1D6     -0.095000
      7 CBD         3.9840    0.0640    1.2480 ca        1 1D6     -0.163600
      8 CAW         4.4880    0.3550    2.6110 c         1 1D6      0.616900
      9 OAC         3.7250    0.7060    3.5200 o         1 1D6     -0.517100
     10 CAZ         5.9300    0.2100    2.8180 ce        1 1D6     -0.262400
     11 CAY         6.8130    1.1000    3.3380 cf        1 1D6      0.066900
     12 OAF         6.5700    2.3550    3.7800 oh        1 1D6     -0.453100
     13 CAX         8.2180    0.5190    3.2960 c         1 1D6      0.664700
     14 OAD         9.2100    1.1410    3.7040 o         1 1D6     -0.614500
     15 NBJ         8.1130   -0.7750    2.7840 n         1 1D6     -0.334000
     16 CBF         9.1590   -1.4950    2.1500 ca        1 1D6      0.002600
     17 CAM         8.8860   -2.7190    1.4960 ca        1 1D6     -0.160500
     18 CAK         9.9020   -3.4230    0.8670 ca        1 1D6     -0.121000
     19 CBB        11.2230   -2.9460    0.8680 ca        1 1D6     -0.016300
     20 CAS        12.2940   -3.7150    0.1960 c3        1 1D6     -0.180100
     21 CAV        11.9150   -4.1580   -1.2390 c         1 1D6      0.918600
     22 OAE        12.6040   -3.6990   -2.1890 o         1 1D6     -0.837300
     23 OAB        10.9620   -4.9790   -1.3760 o         1 1D6     -0.837300
     24 CAL        11.4910   -1.7400    1.5230 ca        1 1D6     -0.121000
     25 CAN        10.4840   -1.0180    2.1590 ca        1 1D6     -0.160500
     26 CBI         6.6970   -1.0710    2.4580 c3        1 1D6      0.196200
     27 CBE         6.1400   -2.2510    3.2150 ca        1 1D6     -0.078300
     28 CAQ         5.4940   -3.2650    2.4730 ca        1 1D6     -0.095000
     29 CBG         4.9780   -4.3170    3.1970 ca        1 1D6      0.062100
     30 OAT         4.2930   -5.4350    2.7270 os        1 1D6     -0.329900
     31 CAR         3.9960   -6.2570    3.8780 c3        1 1D6      0.320200
     32 OAU         4.4850   -5.5700    5.0540 os        1 1D6     -0.324900
     33 CBH         5.0910   -4.4000    4.6110 ca        1 1D6      0.063100
     34 CBC         5.7300   -3.4110    5.3350 ca        1 1D6      0.027400
     35 CLA         5.8890   -3.4710    7.0170 cl        1 1D6     -0.065400
     36 CAP         6.2570   -2.3250    4.6020 ca        1 1D6     -0.087000
     37 H1          0.7710   -2.2910   -0.2990 hc        1 1D6      0.043700
     38 H2          0.3420   -0.8520   -1.3140 hc        1 1D6      0.043700
     39 H3          0.1160   -0.7930    0.4850 hc        1 1D6      0.043700
     40 H4          2.0340   -0.5110    1.9870 ha        1 1D6      0.149000
     41 H5          2.5860   -0.7060   -2.3030 ha        1 1D6      0.132000
     42 H6          4.9210    0.1220   -2.0340 ha        1 1D6      0.142000
     43 H7          5.8220    0.6190    0.2340 ha        1 1D6      0.145000
     44 H10         7.4290    2.7250    4.0610 ho        1 1D6      0.446000
     45 H11         7.8670   -3.1350    1.4790 ha        1 1D6      0.133000
     46 H12         9.6900   -4.3590    0.3130 ha        1 1D6      0.162000
     47 H13        12.4960   -4.6470    0.7850 hc        1 1D6      0.041700
     48 H14        13.2380   -3.1150    0.1480 hc        1 1D6      0.041700
     49 H16        12.5180   -1.3430    1.5310 ha        1 1D6      0.162000
     50 H17        10.7420   -0.0740    2.6630 ha        1 1D6      0.133000
     51 H18         6.6050   -1.2580    1.3460 h1        1 1D6      0.094700
     52 H19         5.4140   -3.2220    1.3780 ha        1 1D6      0.167000
     53 H20         4.5420   -7.2270    3.7770 h2        1 1D6      0.071700
     54 H21         6.7740   -1.5200    5.1500 ha        1 1D6      0.161000
     55 H8          2.8860   -6.3600    3.9640 h2        1 1D6      0.071700
@<TRIPOS>BOND
     1    1    2 1   
     2    1   37 1   
     3    1   38 1   
     4    1   39 1   
     5    2    3 ar  
     6    2    4 ar  
     7    3    7 ar  
     8    3   40 1   
     9    4    5 ar  
    10    4   41 1   
    11    5    6 ar  
    12    5   42 1   
    13    6    7 ar  
    14    6   43 1   
    15    7    8 1   
    16    8    9 2   
    17    8   10 1   
    18   10   11 2   
    19   10   26 1   
    20   11   12 1   
    21   11   13 1   
    22   12   44 1   
    23   13   14 2   
    24   13   15 1   
    25   15   16 1   
    26   15   26 1   
    27   16   17 ar  
    28   16   25 ar  
    29   17   18 ar  
    30   17   45 1   
    31   18   19 ar  
    32   18   46 1   
    33   19   20 1   
    34   19   24 ar  
    35   20   21 1   
    36   20   47 1   
    37   20   48 1   
    38   21   22 1   
    39   21   23 1   
    40   24   25 ar  
    41   24   49 1   
    42   25   50 1   
    43   26   27 1   
    44   26   51 1   
    45   27   28 ar  
    46   27   36 ar  
    47   28   29 ar  
    48   28   52 1   
    49   29   30 1   
    50   29   33 ar  
    51   30   31 1   
    52   31   32 1   
    53   31   53 1   
    54   31   55 1   
    55   32   33 1   
    56   33   34 ar  
    57   34   35 1   
    58   34   36 ar  
    59   36   54 1   
@<TRIPOS>SUBSTRUCTURE
     1 1D6         1 TEMP              0 ****  ****    0 ROOT
