@<TRIPOS>MOLECULE
1D6
   55    59     1     0     0
SMALL
bcc


@<TRIPOS>ATOM
      1 CAA         0.7690   -1.0610   -0.3250 c3        1 1D6     -0.051800
      2 CBA         2.1690   -0.6080   -0.1620 ca        1 1D6     -0.093300
      3 CAO         2.6820   -0.3430    1.1120 ca        1 1D6     -0.080000
      4 CAI         2.9900   -0.4290   -1.2820 ca        1 1D6     -0.107000
      5 CAH         4.3030    0.0140   -1.1290 ca        1 1D6     -0.135000
      6 CAJ         4.8140    0.2720    0.1420 ca        1 1D6     -0.095000
      7 CBD         4.0050    0.0880    1.2690 ca        1 1D6     -0.163600
      8 CAW         4.5140    0.3610    2.6340 c         1 1D6      0.616900
      9 OAC         3.7550    0.7090    3.5470 o         1 1D6     -0.517100
     10 CAZ         5.9550    0.2010    2.8370 ce        1 1D6     -0.262400
     11 CAY         6.8480    1.0800    3.3600 cf        1 1D6      0.065900
     12 OAF         6.6170    2.3350    3.8090 oh        1 1D6     -0.453100
     13 CAX         8.2460    0.4860    3.3110 c         1 1D6      0.664700
     14 OAD         9.2460    1.0950    3.7200 o         1 1D6     -0.614500
     15 NBJ         8.1290   -0.8040    2.7910 n         1 1D6     -0.334000
     16 CBF         9.1650   -1.5280    2.1470 ca        1 1D6      0.002600
     17 CAM         8.8800   -2.7480    1.4900 ca        1 1D6     -0.160500
     18 CAK         9.8870   -3.4550    0.8510 ca        1 1D6     -0.121000
     19 CBB        11.2100   -2.9860    0.8430 ca        1 1D6     -0.016300
     20 CAS        12.2710   -3.7580    0.1590 c3        1 1D6     -0.180100
     21 CAV        11.8780   -4.1920   -1.2760 c         1 1D6      0.918600
     22 OAE        12.5630   -3.7310   -2.2280 o         1 1D6     -0.837300
     23 OAB        10.9200   -5.0060   -1.4090 o         1 1D6     -0.837300
     24 CAL        11.4910   -1.7840    1.5000 ca        1 1D6     -0.121000
     25 CAN        10.4930   -1.0590    2.1470 ca        1 1D6     -0.160500
     26 CBI         6.7080   -1.0850    2.4680 c3        1 1D6      0.196200
     27 CBE         6.1430   -2.2640    3.2210 ca        1 1D6     -0.078300
     28 CAQ         5.4850   -3.2680    2.4750 ca        1 1D6     -0.095000
     29 CBG         4.9610   -4.3190    3.1960 ca        1 1D6      0.062100
     30 OAT         4.2650   -5.4280    2.7220 os        1 1D6     -0.328900
     31 CAR         3.9630   -6.2530    3.8690 c3        1 1D6      0.320200
     32 OAU         4.4630   -5.5770    5.0470 os        1 1D6     -0.324900
     33 CBH         5.0780   -4.4100    4.6080 ca        1 1D6      0.063100
     34 CBC         5.7290   -3.4310    5.3350 ca        1 1D6      0.027400
     35 ClA         5.8920   -3.5010    7.0170 cl        1 1D6     -0.065400
     36 CAP         6.2630   -2.3460    4.6070 ca        1 1D6     -0.087000
     37 H1          0.4120   -1.5980    0.5880 hc        1 1D6      0.043700
     38 H2          0.1000   -0.1800   -0.4960 hc        1 1D6      0.043700
     39 H3          0.6720   -1.7490   -1.2010 hc        1 1D6      0.043700
     40 H4          2.0480   -0.4690    2.0050 ha        1 1D6      0.149000
     41 H5          2.5960   -0.6410   -2.2870 ha        1 1D6      0.132000
     42 H6          4.9430    0.1530   -2.0140 ha        1 1D6      0.142000
     43 H7          5.8500    0.6250    0.2570 ha        1 1D6      0.145000
     44 H10         7.4800    2.6950    4.0910 ho        1 1D6      0.446000
     45 H11         7.8590   -3.1570    1.4800 ha        1 1D6      0.133000
     46 H12         9.6650   -4.3880    0.2950 ha        1 1D6      0.162000
     47 H13        12.4730   -4.6950    0.7420 hc        1 1D6      0.041700
     48 H14        13.2190   -3.1640    0.1070 hc        1 1D6      0.041700
     49 H16        12.5200   -1.3930    1.5020 ha        1 1D6      0.162000
     50 H17        10.7610   -0.1180    2.6520 ha        1 1D6      0.133000
     51 H18         6.6120   -1.2660    1.3550 h1        1 1D6      0.094700
     52 H19         5.4020   -3.2190    1.3810 ha        1 1D6      0.167000
     53 H20         2.8530   -6.3460    3.9590 h2        1 1D6      0.071700
     54 H21         6.7900   -1.5490    5.1570 ha        1 1D6      0.161000
     55 H8          4.5000   -7.2280    3.7620 h2        1 1D6      0.071700
@<TRIPOS>BOND
     1    1    2 1   
     2    1   37 1   
     3    1   38 1   
     4    1   39 1   
     5    2    3 ar  
     6    2    4 ar  
     7    3    7 ar  
     8    3   40 1   
     9    4    5 ar  
    10    4   41 1   
    11    5    6 ar  
    12    5   42 1   
    13    6    7 ar  
    14    6   43 1   
    15    7    8 1   
    16    8    9 2   
    17    8   10 1   
    18   10   11 2   
    19   10   26 1   
    20   11   12 1   
    21   11   13 1   
    22   12   44 1   
    23   13   14 2   
    24   13   15 1   
    25   15   16 1   
    26   15   26 1   
    27   16   17 ar  
    28   16   25 ar  
    29   17   18 ar  
    30   17   45 1   
    31   18   19 ar  
    32   18   46 1   
    33   19   20 1   
    34   19   24 ar  
    35   20   21 1   
    36   20   47 1   
    37   20   48 1   
    38   21   22 1   
    39   21   23 1   
    40   24   25 ar  
    41   24   49 1   
    42   25   50 1   
    43   26   27 1   
    44   26   51 1   
    45   27   28 ar  
    46   27   36 ar  
    47   28   29 ar  
    48   28   52 1   
    49   29   30 1   
    50   29   33 ar  
    51   30   31 1   
    52   31   32 1   
    53   31   53 1   
    54   31   55 1   
    55   32   33 1   
    56   33   34 ar  
    57   34   35 1   
    58   34   36 ar  
    59   36   54 1   
@<TRIPOS>SUBSTRUCTURE
     1 1D6         1 TEMP              0 ****  ****    0 ROOT
