@<TRIPOS>MOLECULE
1D6
   55    59     1     0     0
SMALL
bcc


@<TRIPOS>ATOM
      1 CAA         0.7930   -1.1170   -0.3300 c3        1 1D6     -0.051800
      2 CBA         2.1780   -0.6220   -0.1510 ca        1 1D6     -0.092300
      3 CAO         2.6760   -0.3720    1.1320 ca        1 1D6     -0.081000
      4 CAI         3.0050   -0.4130   -1.2610 ca        1 1D6     -0.107000
      5 CAH         4.3120    0.0410   -1.0900 ca        1 1D6     -0.135000
      6 CAJ         4.8100    0.2810    0.1900 ca        1 1D6     -0.095000
      7 CBD         3.9940    0.0700    1.3070 ca        1 1D6     -0.163600
      8 CAW         4.4890    0.3260    2.6800 c         1 1D6      0.616900
      9 OAC         3.7200    0.6570    3.5910 o         1 1D6     -0.517100
     10 CAZ         5.9290    0.1720    2.8940 ce        1 1D6     -0.262400
     11 CAY         6.8110    1.0470    3.4420 cf        1 1D6      0.066900
     12 OAF         6.5680    2.2910    3.9120 oh        1 1D6     -0.453100
     13 CAX         8.2140    0.4630    3.3950 c         1 1D6      0.663700
     14 OAD         9.2050    1.0710    3.8250 o         1 1D6     -0.614500
     15 NBJ         8.1100   -0.8180    2.8500 n         1 1D6     -0.334000
     16 CBF         9.1570   -1.5230    2.2030 ca        1 1D6      0.002600
     17 CAM         8.8860   -2.7330    1.5220 ca        1 1D6     -0.160500
     18 CAK         9.9030   -3.4220    0.8790 ca        1 1D6     -0.121000
     19 CBB        11.2240   -2.9450    0.8930 ca        1 1D6     -0.016300
     20 CAS        12.2960   -3.6980    0.2060 c3        1 1D6     -0.180100
     21 CAV        11.9200   -4.1090   -1.2400 c         1 1D6      0.918600
     22 OAE        12.6110   -3.6280   -2.1770 o         1 1D6     -0.837300
     23 OAB        10.9680   -4.9280   -1.3960 o         1 1D6     -0.837300
     24 CAL        11.4910   -1.7540    1.5750 ca        1 1D6     -0.121000
     25 CAN        10.4820   -1.0460    2.2240 ca        1 1D6     -0.160500
     26 CBI         6.6940   -1.1020    2.5080 c3        1 1D6      0.196200
     27 CBE         6.1290   -2.2990    3.2330 ca        1 1D6     -0.078300
     28 CAQ         5.4850   -3.2930    2.4620 ca        1 1D6     -0.095000
     29 CBG         4.9610   -4.3600    3.1580 ca        1 1D6      0.062100
     30 OAT         4.2770   -5.4640    2.6580 os        1 1D6     -0.329900
     31 CAR         3.9690   -6.3120    3.7860 c3        1 1D6      0.320200
     32 OAU         4.4530   -5.6550    4.9810 os        1 1D6     -0.324900
     33 CBH         5.0650   -4.4770    4.5700 ca        1 1D6      0.063100
     34 CBC         5.7020   -3.5070    5.3220 ca        1 1D6      0.027400
     35 CLA         5.8500   -3.6080    7.0030 cl        1 1D6     -0.065400
     36 CAP         6.2370   -2.4050    4.6190 ca        1 1D6     -0.087000
     37 H1          0.1300   -0.7590    0.4960 hc        1 1D6      0.043700
     38 H2          0.3670   -0.7700   -1.3030 hc        1 1D6      0.043700
     39 H3          0.7860   -2.2360   -0.3240 hc        1 1D6      0.043700
     40 H4          2.0360   -0.5160    2.0170 ha        1 1D6      0.149000
     41 H5          2.6200   -0.6090   -2.2730 ha        1 1D6      0.132000
     42 H6          4.9560    0.2040   -1.9670 ha        1 1D6      0.142000
     43 H7          5.8410    0.6440    0.3200 ha        1 1D6      0.145000
     44 H10         7.4260    2.6520    4.2080 ho        1 1D6      0.446000
     45 H11         7.8670   -3.1490    1.4940 ha        1 1D6      0.133000
     46 H12         9.6930   -4.3470    0.3050 ha        1 1D6      0.162000
     47 H13        12.4980   -4.6440    0.7750 hc        1 1D6      0.041700
     48 H14        13.2410   -3.0980    0.1740 hc        1 1D6      0.041700
     49 H16        12.5170   -1.3560    1.5940 ha        1 1D6      0.162000
     50 H17        10.7380   -0.1130    2.7490 ha        1 1D6      0.133000
     51 H18         6.6090   -1.2630    1.3910 h1        1 1D6      0.094700
     52 H19         5.4130   -3.2230    1.3680 ha        1 1D6      0.167000
     53 H20         4.5130   -7.2820    3.6660 h2        1 1D6      0.071700
     54 H21         6.7530   -1.6160    5.1890 ha        1 1D6      0.161000
     55 H8          2.8590   -6.4140    3.8630 h2        1 1D6      0.071700
@<TRIPOS>BOND
     1    1    2 1   
     2    1   37 1   
     3    1   38 1   
     4    1   39 1   
     5    2    3 ar  
     6    2    4 ar  
     7    3    7 ar  
     8    3   40 1   
     9    4    5 ar  
    10    4   41 1   
    11    5    6 ar  
    12    5   42 1   
    13    6    7 ar  
    14    6   43 1   
    15    7    8 1   
    16    8    9 2   
    17    8   10 1   
    18   10   11 2   
    19   10   26 1   
    20   11   12 1   
    21   11   13 1   
    22   12   44 1   
    23   13   14 2   
    24   13   15 1   
    25   15   16 1   
    26   15   26 1   
    27   16   17 ar  
    28   16   25 ar  
    29   17   18 ar  
    30   17   45 1   
    31   18   19 ar  
    32   18   46 1   
    33   19   20 1   
    34   19   24 ar  
    35   20   21 1   
    36   20   47 1   
    37   20   48 1   
    38   21   22 1   
    39   21   23 1   
    40   24   25 ar  
    41   24   49 1   
    42   25   50 1   
    43   26   27 1   
    44   26   51 1   
    45   27   28 ar  
    46   27   36 ar  
    47   28   29 ar  
    48   28   52 1   
    49   29   30 1   
    50   29   33 ar  
    51   30   31 1   
    52   31   32 1   
    53   31   53 1   
    54   31   55 1   
    55   32   33 1   
    56   33   34 ar  
    57   34   35 1   
    58   34   36 ar  
    59   36   54 1   
@<TRIPOS>SUBSTRUCTURE
     1 1D6         1 TEMP              0 ****  ****    0 ROOT
