@<TRIPOS>MOLECULE
1D8
   52    56     1     0     0
SMALL
bcc


@<TRIPOS>ATOM
      1 FAF        -0.1970    1.5170   -2.0610 f         1 1D8     -0.243633
      2 CBL         0.9350    1.5110   -1.2820 c3        1 1D8      0.689200
      3 FAG         0.4460    1.5670    0.0030 f         1 1D8     -0.243633
      4 FAH         1.4040    0.2230   -1.3950 f         1 1D8     -0.243633
      5 CBH         1.9500    2.5940   -1.6150 ca        1 1D8     -0.191300
      6 CAR         3.3040    2.3620   -1.3700 ca        1 1D8     -0.047000
      7 CAO         1.5160    3.8080   -2.1570 ca        1 1D8     -0.065000
      8 CAK         2.4420    4.8170   -2.4220 ca        1 1D8     -0.120000
      9 CAM         3.7910    4.6030   -2.1450 ca        1 1D8     -0.065000
     10 CBD         4.2360    3.3660   -1.6580 ca        1 1D8     -0.184600
     11 CAX         5.6840    3.1020   -1.4740 c         1 1D8      0.619900
     12 OAB         6.1100    2.3000   -0.6370 o         1 1D8     -0.514100
     13 CBA         6.5570    3.8650   -2.3730 ce        1 1D8     -0.254400
     14 CAY         7.5420    4.7530   -2.0880 cf        1 1D8      0.046900
     15 OAE         8.0390    5.0800   -0.8720 oh        1 1D8     -0.454100
     16 CAZ         7.9690    5.4670   -3.3630 c         1 1D8      0.657700
     17 OAC         8.8480    6.3330   -3.3950 o         1 1D8     -0.579500
     18 NBK         7.2330    4.9100   -4.4410 n         1 1D8     -0.312000
     19 CBF         6.5920    5.7980   -5.3670 ca        1 1D8     -0.037400
     20 CAQ         5.3210    6.3360   -5.0840 ca        1 1D8     -0.135000
     21 CBC         4.6550    7.1350   -6.0100 ca        1 1D8     -0.120600
     22 CAW         3.2540    7.6310   -5.6710 c         1 1D8      0.916200
     23 OAD         2.6960    8.4290   -6.4690 o         1 1D8     -0.831800
     24 OAA         2.7290    7.1990   -4.6020 o         1 1D8     -0.831800
     25 CAL         5.2790    7.4400   -7.2220 ca        1 1D8     -0.090000
     26 CAJ         6.5480    6.9360   -7.5000 ca        1 1D8     -0.159000
     27 CAN         7.2110    6.1120   -6.5900 ca        1 1D8     -0.110000
     28 CBJ         6.3620    3.8280   -3.8940 c3        1 1D8      0.158200
     29 CBE         6.7310    2.4840   -4.4680 ca        1 1D8     -0.063300
     30 CAS         5.7920    1.8470   -5.3110 ca        1 1D8     -0.088000
     31 CBG         6.1630    0.6190   -5.8150 ca        1 1D8      0.057100
     32 OAU         5.4390   -0.2230   -6.6570 os        1 1D8     -0.329900
     33 CAT         6.2640   -1.3830   -6.8980 c3        1 1D8      0.320200
     34 OAV         7.5030   -1.2080   -6.1730 os        1 1D8     -0.327900
     35 CBI         7.4160    0.0190   -5.5230 ca        1 1D8      0.058100
     36 CBB         8.3360    0.6490   -4.7060 ca        1 1D8      0.025400
     37 ClA         9.8420   -0.0280   -4.3370 cl        1 1D8     -0.070400
     38 CAP         7.9650    1.9050   -4.1800 ca        1 1D8     -0.093000
     39 H1          3.6460    1.3970   -0.9620 ha        1 1D8      0.158000
     40 H2          0.4480    3.9620   -2.3800 ha        1 1D8      0.153000
     41 H3          2.1310    5.7750   -2.8930 ha        1 1D8      0.220000
     42 H4          4.5120    5.4200   -2.3120 ha        1 1D8      0.156000
     43 H5          8.6840    5.7980   -1.0170 ho        1 1D8      0.443000
     44 H6          4.7990    6.1410   -4.1310 ha        1 1D8      0.149000
     45 H8          4.7450    8.0820   -7.9410 ha        1 1D8      0.156000
     46 H9          7.0400    7.1830   -8.4510 ha        1 1D8      0.116000
     47 H10         8.2090    5.7170   -6.8290 ha        1 1D8      0.129000
     48 H11         5.2750    4.0380   -4.1310 h1        1 1D8      0.106700
     49 H12         4.8250    2.3080   -5.5540 ha        1 1D8      0.172000
     50 H13         6.4950   -1.4370   -7.9900 h2        1 1D8      0.069200
     51 H14         5.7400   -2.2850   -6.4950 h2        1 1D8      0.069200
     52 H15         8.6720    2.4370   -3.5230 ha        1 1D8      0.159000
@<TRIPOS>BOND
     1    1    2 1   
     2    2    3 1   
     3    2    4 1   
     4    2    5 1   
     5    5    6 ar  
     6    5    7 ar  
     7    6   10 ar  
     8    6   39 1   
     9    7    8 ar  
    10    7   40 1   
    11    8    9 ar  
    12    8   41 1   
    13    9   10 ar  
    14    9   42 1   
    15   10   11 1   
    16   11   12 2   
    17   11   13 1   
    18   13   14 2   
    19   13   28 1   
    20   14   15 1   
    21   14   16 1   
    22   15   43 1   
    23   16   17 2   
    24   16   18 1   
    25   18   19 1   
    26   18   28 1   
    27   19   20 ar  
    28   19   27 ar  
    29   20   21 ar  
    30   20   44 1   
    31   21   22 1   
    32   21   25 ar  
    33   22   23 1   
    34   22   24 1   
    35   25   26 ar  
    36   25   45 1   
    37   26   27 ar  
    38   26   46 1   
    39   27   47 1   
    40   28   29 1   
    41   28   48 1   
    42   29   30 ar  
    43   29   38 ar  
    44   30   31 ar  
    45   30   49 1   
    46   31   32 1   
    47   31   35 ar  
    48   32   33 1   
    49   33   34 1   
    50   33   50 1   
    51   33   51 1   
    52   34   35 1   
    53   35   36 ar  
    54   36   37 1   
    55   36   38 ar  
    56   38   52 1   
@<TRIPOS>SUBSTRUCTURE
     1 1D8         1 TEMP              0 ****  ****    0 ROOT
