@<TRIPOS>MOLECULE
1D8
   52    56     1     0     0
SMALL
bcc


@<TRIPOS>ATOM
      1 FAF        -0.1790    1.5250   -2.0070 f         1 1D8     -0.243633
      2 CBL         0.9590    1.5260   -1.2360 c3        1 1D8      0.689200
      3 FAG         0.4790    1.5910    0.0520 f         1 1D8     -0.243633
      4 FAH         1.4280    0.2380   -1.3430 f         1 1D8     -0.243633
      5 CBH         1.9700    2.6070   -1.5850 ca        1 1D8     -0.191300
      6 CAR         3.3260    2.3790   -1.3480 ca        1 1D8     -0.047000
      7 CAO         1.5310    3.8170   -2.1330 ca        1 1D8     -0.065000
      8 CAK         2.4530    4.8250   -2.4120 ca        1 1D8     -0.120000
      9 CAM         3.8050    4.6140   -2.1430 ca        1 1D8     -0.065000
     10 CBD         4.2550    3.3810   -1.6500 ca        1 1D8     -0.184600
     11 CAX         5.7040    3.1210   -1.4750 c         1 1D8      0.619900
     12 OAB         6.1370    2.3260   -0.6350 o         1 1D8     -0.514100
     13 CBA         6.5700    3.8770   -2.3860 ce        1 1D8     -0.254400
     14 CAY         7.5560    4.7690   -2.1160 cf        1 1D8      0.046900
     15 OAE         8.0620    5.1050   -0.9060 oh        1 1D8     -0.454100
     16 CAZ         7.9730    5.4730   -3.3980 c         1 1D8      0.657700
     17 OAC         8.8510    6.3400   -3.4440 o         1 1D8     -0.579500
     18 NBK         7.2290    4.9070   -4.4670 n         1 1D8     -0.312000
     19 CBF         6.5800    5.7870   -5.3950 ca        1 1D8     -0.037400
     20 CAQ         5.3110    6.3260   -5.1060 ca        1 1D8     -0.135000
     21 CBC         4.6370    7.1170   -6.0330 ca        1 1D8     -0.120600
     22 CAW         3.2390    7.6150   -5.6880 c         1 1D8      0.916200
     23 OAD         2.6730    8.4060   -6.4880 o         1 1D8     -0.831800
     24 OAA         2.7210    7.1910   -4.6120 o         1 1D8     -0.831800
     25 CAL         5.2520    7.4140   -7.2530 ca        1 1D8     -0.090000
     26 CAJ         6.5200    6.9090   -7.5360 ca        1 1D8     -0.159000
     27 CAN         7.1900    6.0930   -6.6240 ca        1 1D8     -0.110000
     28 CBJ         6.3640    3.8290   -3.9050 c3        1 1D8      0.158200
     29 CBE         6.7290    2.4800   -4.4720 ca        1 1D8     -0.063300
     30 CAS         5.7850    1.8350   -5.3010 ca        1 1D8     -0.088000
     31 CBG         6.1530    0.6040   -5.7990 ca        1 1D8      0.057100
     32 OAU         5.4230   -0.2460   -6.6270 os        1 1D8     -0.329900
     33 CAT         6.2480   -1.4070   -6.8660 c3        1 1D8      0.320200
     34 OAV         7.4930   -1.2240   -6.1530 os        1 1D8     -0.327900
     35 CBI         7.4090    0.0080   -5.5120 ca        1 1D8      0.058100
     36 CBB         8.3360    0.6460   -4.7080 ca        1 1D8      0.025400
     37 CLA         9.8450   -0.0260   -4.3460 cl        1 1D8     -0.070400
     38 CAP         7.9680    1.9060   -4.1900 ca        1 1D8     -0.093000
     39 H1          3.6710    1.4170   -0.9350 ha        1 1D8      0.158000
     40 H2          0.4610    3.9680   -2.3490 ha        1 1D8      0.153000
     41 H3          2.1380    5.7790   -2.8870 ha        1 1D8      0.220000
     42 H4          4.5240    5.4310   -2.3220 ha        1 1D8      0.156000
     43 H5          8.7050    5.8220   -1.0610 ho        1 1D8      0.443000
     44 H6          4.7960    6.1370   -4.1490 ha        1 1D8      0.149000
     45 H8          4.7110    8.0500   -7.9720 ha        1 1D8      0.156000
     46 H9          7.0040    7.1500   -8.4930 ha        1 1D8      0.116000
     47 H10         8.1870    5.6970   -6.8680 ha        1 1D8      0.129000
     48 H11         5.2750    4.0360   -4.1360 h1        1 1D8      0.106700
     49 H12         4.8150    2.2930   -5.5400 ha        1 1D8      0.172000
     50 H13         6.4700   -1.4700   -7.9600 h2        1 1D8      0.069200
     51 H14         5.7290   -2.3060   -6.4510 h2        1 1D8      0.069200
     52 H15         8.6790    2.4440   -3.5420 ha        1 1D8      0.159000
@<TRIPOS>BOND
     1    1    2 1   
     2    2    3 1   
     3    2    4 1   
     4    2    5 1   
     5    5    6 ar  
     6    5    7 ar  
     7    6   10 ar  
     8    6   39 1   
     9    7    8 ar  
    10    7   40 1   
    11    8    9 ar  
    12    8   41 1   
    13    9   10 ar  
    14    9   42 1   
    15   10   11 1   
    16   11   12 2   
    17   11   13 1   
    18   13   14 2   
    19   13   28 1   
    20   14   15 1   
    21   14   16 1   
    22   15   43 1   
    23   16   17 2   
    24   16   18 1   
    25   18   19 1   
    26   18   28 1   
    27   19   20 ar  
    28   19   27 ar  
    29   20   21 ar  
    30   20   44 1   
    31   21   22 1   
    32   21   25 ar  
    33   22   23 1   
    34   22   24 1   
    35   25   26 ar  
    36   25   45 1   
    37   26   27 ar  
    38   26   46 1   
    39   27   47 1   
    40   28   29 1   
    41   28   48 1   
    42   29   30 ar  
    43   29   38 ar  
    44   30   31 ar  
    45   30   49 1   
    46   31   32 1   
    47   31   35 ar  
    48   32   33 1   
    49   33   34 1   
    50   33   50 1   
    51   33   51 1   
    52   34   35 1   
    53   35   36 ar  
    54   36   37 1   
    55   36   38 ar  
    56   38   52 1   
@<TRIPOS>SUBSTRUCTURE
     1 1D8         1 TEMP              0 ****  ****    0 ROOT
