@<TRIPOS>MOLECULE
1D9
   52    55     1     0     0
SMALL
bcc


@<TRIPOS>ATOM
      1 FAI         0.4670    0.1140    0.3940 f         1 1D9     -0.242967
      2 CBL         1.6850    0.0440   -0.2370 c3        1 1D9      0.688200
      3 FAJ         2.5030   -0.5630    0.6870 f         1 1D9     -0.242967
      4 FAK         1.5000   -0.9270   -1.1950 f         1 1D9     -0.242967
      5 CBH         2.2040    1.3680   -0.7790 ca        1 1D9     -0.176300
      6 CAW         3.5790    1.5830   -0.8700 ca        1 1D9     -0.075000
      7 CAT         1.3000    2.3520   -1.1880 ca        1 1D9     -0.076000
      8 CAN         1.7830    3.5540   -1.6990 ca        1 1D9     -0.120000
      9 CAQ         3.1580    3.7710   -1.8070 ca        1 1D9     -0.052000
     10 CBE         4.0630    2.7880   -1.3930 ca        1 1D9     -0.103300
     11 CBI         5.5520    2.9840   -1.4790 c3        1 1D9      0.207200
     12 NBJ         6.0540    4.3220   -1.0980 n         1 1D9     -0.352000
     13 CBF         5.5270    5.0060    0.0300 ca        1 1D9     -0.012400
     14 CAU         4.6780    6.1190   -0.1210 ca        1 1D9     -0.104000
     15 CBC         4.1400    6.7530    1.0010 ca        1 1D9     -0.117600
     16 CAX         3.1620    7.9090    0.8170 c         1 1D9      0.910200
     17 OAD         2.7110    8.1090   -0.3460 o         1 1D9     -0.822800
     18 OAA         2.8510    8.5820    1.8370 o         1 1D9     -0.822800
     19 CAO         4.4760    6.3000    2.2790 ca        1 1D9     -0.095000
     20 CAL         5.3330    5.2120    2.4350 ca        1 1D9     -0.155000
     21 CAR         5.8590    4.5560    1.3250 ca        1 1D9     -0.142000
     22 CBA         6.6580    4.9430   -2.1910 c         1 1D9      0.666700
     23 OAC         7.1840    6.0590   -2.2820 o         1 1D9     -0.592500
     24 CAZ         6.6780    3.9180   -3.3170 ce        1 1D9      0.070900
     25 OAE         7.2810    4.1620   -4.5030 oh        1 1D9     -0.458100
     26 CBB         6.0640    2.7760   -2.9130 cf        1 1D9     -0.274400
     27 CAY         5.8850    1.5260   -3.6510 c         1 1D9      0.618900
     28 OAB         5.2700    1.4650   -4.7210 o         1 1D9     -0.504100
     29 CBD         6.5020    0.3120   -3.0570 ca        1 1D9     -0.167600
     30 CAV         6.0390   -0.9490   -3.4580 ca        1 1D9     -0.031000
     31 CBG         6.6220   -2.0990   -2.9270 ca        1 1D9     -0.183300
     32 CBK         6.1400   -3.4730   -3.3720 c3        1 1D9      0.689200
     33 FAG         4.8480   -3.5130   -3.8360 f         1 1D9     -0.238300
     34 FAH         6.8780   -4.0230   -4.3950 f         1 1D9     -0.238300
     35 FAF         6.1750   -4.4350   -2.3900 f         1 1D9     -0.238300
     36 CAS         7.6650   -2.0070   -2.0010 ca        1 1D9     -0.063000
     37 CAM         8.1290   -0.7520   -1.6120 ca        1 1D9     -0.149000
     38 CAP         7.5530    0.4040   -2.1380 ca        1 1D9     -0.061000
     39 H1          4.2750    0.8050   -0.5180 ha        1 1D9      0.142000
     40 H2          0.2170    2.1780   -1.0920 ha        1 1D9      0.147000
     41 H3          1.0820    4.3480   -2.0010 ha        1 1D9      0.159000
     42 H4          3.5210    4.7360   -2.1990 ha        1 1D9      0.163000
     43 H5          6.0590    2.2400   -0.7930 h1        1 1D9      0.075700
     44 H6          4.4150    6.5210   -1.1140 ha        1 1D9      0.160000
     45 H8          4.0490    6.8260    3.1480 ha        1 1D9      0.158000
     46 H9          5.5980    4.8610    3.4420 ha        1 1D9      0.114000
     47 H10         6.5260    3.6940    1.4640 ha        1 1D9      0.112000
     48 H11         7.6090    5.0810   -4.4670 ho        1 1D9      0.450000
     49 H12         5.2160   -1.0200   -4.1910 ha        1 1D9      0.174000
     50 H13         8.1100   -2.9240   -1.5830 ha        1 1D9      0.149000
     51 H14         8.9530   -0.6730   -0.8860 ha        1 1D9      0.145000
     52 H15         7.9300    1.3940   -1.8330 ha        1 1D9      0.154000
@<TRIPOS>BOND
     1    1    2 1   
     2    2    3 1   
     3    2    4 1   
     4    2    5 1   
     5    5    6 ar  
     6    5    7 ar  
     7    6   10 ar  
     8    6   39 1   
     9    7    8 ar  
    10    7   40 1   
    11    8    9 ar  
    12    8   41 1   
    13    9   10 ar  
    14    9   42 1   
    15   10   11 1   
    16   11   12 1   
    17   11   26 1   
    18   11   43 1   
    19   12   13 1   
    20   12   22 1   
    21   13   14 ar  
    22   13   21 ar  
    23   14   15 ar  
    24   14   44 1   
    25   15   16 1   
    26   15   19 ar  
    27   16   17 1   
    28   16   18 1   
    29   19   20 ar  
    30   19   45 1   
    31   20   21 ar  
    32   20   46 1   
    33   21   47 1   
    34   22   23 2   
    35   22   24 1   
    36   24   25 1   
    37   24   26 2   
    38   25   48 1   
    39   26   27 1   
    40   27   28 2   
    41   27   29 1   
    42   29   30 ar  
    43   29   38 ar  
    44   30   31 ar  
    45   30   49 1   
    46   31   32 1   
    47   31   36 ar  
    48   32   33 1   
    49   32   34 1   
    50   32   35 1   
    51   36   37 ar  
    52   36   50 1   
    53   37   38 ar  
    54   37   51 1   
    55   38   52 1   
@<TRIPOS>SUBSTRUCTURE
     1 1D9         1 TEMP              0 ****  ****    0 ROOT
