@<TRIPOS>MOLECULE
1D9
   52    55     1     0     0
SMALL
bcc


@<TRIPOS>ATOM
      1 FAI         0.4770    0.0950    0.3720 f         1 1D9     -0.242967
      2 CBL         1.6990    0.0300   -0.2540 c3        1 1D9      0.688200
      3 FAJ         2.5150   -0.5720    0.6750 f         1 1D9     -0.242967
      4 FAK         1.5240   -0.9430   -1.2110 f         1 1D9     -0.242967
      5 CBH         2.2130    1.3560   -0.7950 ca        1 1D9     -0.176300
      6 CAW         3.5880    1.5780   -0.8790 ca        1 1D9     -0.075000
      7 CAT         1.3060    2.3350   -1.2080 ca        1 1D9     -0.076000
      8 CAN         1.7860    3.5390   -1.7180 ca        1 1D9     -0.120000
      9 CAQ         3.1590    3.7630   -1.8210 ca        1 1D9     -0.052000
     10 CBE         4.0680    2.7850   -1.4010 ca        1 1D9     -0.103300
     11 CBI         5.5560    2.9890   -1.4810 c3        1 1D9      0.207200
     12 NBJ         6.0490    4.3310   -1.1000 n         1 1D9     -0.352000
     13 CBF         5.5140    5.0130    0.0250 ca        1 1D9     -0.012400
     14 CAU         4.6590    6.1220   -0.1310 ca        1 1D9     -0.104000
     15 CBC         4.1140    6.7540    0.9870 ca        1 1D9     -0.117600
     16 CAX         3.1300    7.9050    0.7970 c         1 1D9      0.910200
     17 OAD         2.6830    8.1010   -0.3680 o         1 1D9     -0.822800
     18 OAA         2.8120    8.5780    1.8150 o         1 1D9     -0.822800
     19 CAO         4.4460    6.3050    2.2670 ca        1 1D9     -0.095000
     20 CAL         5.3080    5.2220    2.4290 ca        1 1D9     -0.155000
     21 CAR         5.8430    4.5670    1.3220 ca        1 1D9     -0.142000
     22 CBA         6.6560    4.9520   -2.1910 c         1 1D9      0.666700
     23 OAC         7.1760    6.0710   -2.2810 o         1 1D9     -0.592500
     24 CAZ         6.6860    3.9260   -3.3150 ce        1 1D9      0.070900
     25 OAE         7.2930    4.1710   -4.4980 oh        1 1D9     -0.458100
     26 CBB         6.0760    2.7820   -2.9120 cf        1 1D9     -0.274400
     27 CAY         5.9070    1.5300   -3.6490 c         1 1D9      0.618900
     28 OAB         5.2980    1.4640   -4.7220 o         1 1D9     -0.504100
     29 CBD         6.5270    0.3200   -3.0500 ca        1 1D9     -0.167600
     30 CAV         6.0720   -0.9440   -3.4500 ca        1 1D9     -0.031000
     31 CBG         6.6580   -2.0910   -2.9150 ca        1 1D9     -0.183300
     32 CBK         6.1850   -3.4680   -3.3600 c3        1 1D9      0.689200
     33 FAG         4.8960   -3.5150   -3.8290 f         1 1D9     -0.238300
     34 FAH         6.9310   -4.0160   -4.3780 f         1 1D9     -0.238300
     35 FAF         6.2210   -4.4280   -2.3760 f         1 1D9     -0.238300
     36 CAS         7.6970   -1.9910   -1.9840 ca        1 1D9     -0.063000
     37 CAM         8.1530   -0.7340   -1.5950 ca        1 1D9     -0.149000
     38 CAP         7.5730    0.4190   -2.1260 ca        1 1D9     -0.061000
     39 H1          4.2860    0.8040   -0.5230 ha        1 1D9      0.142000
     40 H2          0.2240    2.1560   -1.1170 ha        1 1D9      0.147000
     41 H3          1.0820    4.3290   -2.0250 ha        1 1D9      0.159000
     42 H4          3.5190    4.7300   -2.2120 ha        1 1D9      0.163000
     43 H5          6.0640    2.2490   -0.7910 h1        1 1D9      0.075700
     44 H6          4.3990    6.5210   -1.1260 ha        1 1D9      0.160000
     45 H8          4.0120    6.8300    3.1340 ha        1 1D9      0.158000
     46 H9          5.5710    4.8730    3.4380 ha        1 1D9      0.114000
     47 H10         6.5130    3.7080    1.4660 ha        1 1D9      0.112000
     48 H11         7.6160    5.0930   -4.4620 ho        1 1D9      0.450000
     49 H12         5.2530   -1.0210   -4.1870 ha        1 1D9      0.174000
     50 H13         8.1440   -2.9050   -1.5630 ha        1 1D9      0.149000
     51 H14         8.9730   -0.6490   -0.8660 ha        1 1D9      0.145000
     52 H15         7.9450    1.4110   -1.8210 ha        1 1D9      0.154000
@<TRIPOS>BOND
     1    1    2 1   
     2    2    3 1   
     3    2    4 1   
     4    2    5 1   
     5    5    6 ar  
     6    5    7 ar  
     7    6   10 ar  
     8    6   39 1   
     9    7    8 ar  
    10    7   40 1   
    11    8    9 ar  
    12    8   41 1   
    13    9   10 ar  
    14    9   42 1   
    15   10   11 1   
    16   11   12 1   
    17   11   26 1   
    18   11   43 1   
    19   12   13 1   
    20   12   22 1   
    21   13   14 ar  
    22   13   21 ar  
    23   14   15 ar  
    24   14   44 1   
    25   15   16 1   
    26   15   19 ar  
    27   16   17 1   
    28   16   18 1   
    29   19   20 ar  
    30   19   45 1   
    31   20   21 ar  
    32   20   46 1   
    33   21   47 1   
    34   22   23 2   
    35   22   24 1   
    36   24   25 1   
    37   24   26 2   
    38   25   48 1   
    39   26   27 1   
    40   27   28 2   
    41   27   29 1   
    42   29   30 ar  
    43   29   38 ar  
    44   30   31 ar  
    45   30   49 1   
    46   31   32 1   
    47   31   36 ar  
    48   32   33 1   
    49   32   34 1   
    50   32   35 1   
    51   36   37 ar  
    52   36   50 1   
    53   37   38 ar  
    54   37   51 1   
    55   38   52 1   
@<TRIPOS>SUBSTRUCTURE
     1 1D9         1 TEMP              0 ****  ****    0 ROOT
