@<TRIPOS>MOLECULE
1D9
   52    55     1     0     0
SMALL
bcc


@<TRIPOS>ATOM
      1 FAI         0.4040    0.1650    0.2150 f         1 1D9     -0.242967
      2 CBL         1.6470    0.0790   -0.3630 c3        1 1D9      0.688200
      3 FAJ         2.4170   -0.5370    0.5950 f         1 1D9     -0.242967
      4 FAK         1.4920   -0.8920   -1.3270 f         1 1D9     -0.242967
      5 CBH         2.2050    1.3950   -0.8850 ca        1 1D9     -0.176300
      6 CAW         3.5860    1.5920   -0.9170 ca        1 1D9     -0.075000
      7 CAT         1.3320    2.3890   -1.3320 ca        1 1D9     -0.076000
      8 CAN         1.8520    3.5850   -1.8230 ca        1 1D9     -0.120000
      9 CAQ         3.2320    3.7840   -1.8750 ca        1 1D9     -0.052000
     10 CBE         4.1060    2.7890   -1.4210 ca        1 1D9     -0.103300
     11 CBI         5.6010    2.9670   -1.4450 c3        1 1D9      0.207200
     12 NBJ         6.1030    4.2990   -1.0430 n         1 1D9     -0.352000
     13 CBF         5.5370    4.9900    0.0630 ca        1 1D9     -0.012400
     14 CAU         4.7080    6.1120   -0.1240 ca        1 1D9     -0.104000
     15 CBC         4.1310    6.7530    0.9730 ca        1 1D9     -0.117600
     16 CAX         3.1750    7.9210    0.7480 c         1 1D9      0.910200
     17 OAD         2.7760    8.1250   -0.4330 o         1 1D9     -0.823300
     18 OAA         2.8290    8.5980    1.7540 o         1 1D9     -0.823300
     19 CAO         4.4080    6.2980    2.2650 ca        1 1D9     -0.095000
     20 CAL         5.2450    5.2000    2.4570 ca        1 1D9     -0.155000
     21 CAR         5.8090    4.5370    1.3700 ca        1 1D9     -0.142000
     22 CBA         6.7600    4.9110   -2.1090 c         1 1D9      0.666700
     23 OAC         7.3040    6.0210   -2.1770 o         1 1D9     -0.592500
     24 CAZ         6.8140    3.8860   -3.2330 ce        1 1D9      0.070900
     25 OAE         7.4700    4.1230   -4.3930 oh        1 1D9     -0.458100
     26 CBB         6.1700    2.7530   -2.8570 cf        1 1D9     -0.274400
     27 CAY         6.0050    1.5050   -3.6010 c         1 1D9      0.618900
     28 OAB         5.4340    1.4520   -4.6960 o         1 1D9     -0.504100
     29 CBD         6.5830    0.2830   -2.9840 ca        1 1D9     -0.167600
     30 CAV         6.1220   -0.9720   -3.4050 ca        1 1D9     -0.031000
     31 CBG         6.6680   -2.1300   -2.8510 ca        1 1D9     -0.183300
     32 CBK         6.1890   -3.4970   -3.3180 c3        1 1D9      0.689200
     33 FAG         4.9180   -3.5220   -3.8360 f         1 1D9     -0.238300
     34 FAH         6.9630   -4.0550   -4.3090 f         1 1D9     -0.238300
     35 FAF         6.1710   -4.4600   -2.3370 f         1 1D9     -0.238300
     36 CAS         7.6720   -2.0500   -1.8820 ca        1 1D9     -0.063000
     37 CAM         8.1340   -0.8010   -1.4720 ca        1 1D9     -0.149000
     38 CAP         7.5940    0.3620   -2.0210 ca        1 1D9     -0.061000
     39 H1          4.2560    0.8060   -0.5360 ha        1 1D9      0.142000
     40 H2          0.2440    2.2300   -1.2820 ha        1 1D9      0.147000
     41 H3          1.1740    4.3870   -2.1560 ha        1 1D9      0.159000
     42 H4          3.6240    4.7440   -2.2510 ha        1 1D9      0.163000
     43 H5          6.0690    2.2170   -0.7380 h1        1 1D9      0.075700
     44 H6          4.4920    6.5160   -1.1280 ha        1 1D9      0.160000
     45 H8          3.9500    6.8290    3.1150 ha        1 1D9      0.158000
     46 H9          5.4630    4.8460    3.4750 ha        1 1D9      0.114000
     47 H10         6.4590    3.6670    1.5370 ha        1 1D9      0.112000
     48 H11         7.8070    5.0380   -4.3430 ho        1 1D9      0.450000
     49 H12         5.3300   -1.0330   -4.1730 ha        1 1D9      0.174000
     50 H13         8.0880   -2.9730   -1.4470 ha        1 1D9      0.149000
     51 H14         8.9270   -0.7330   -0.7120 ha        1 1D9      0.145000
     52 H15         7.9710    1.3470   -1.6990 ha        1 1D9      0.154000
@<TRIPOS>BOND
     1    1    2 1   
     2    2    3 1   
     3    2    4 1   
     4    2    5 1   
     5    5    6 ar  
     6    5    7 ar  
     7    6   10 ar  
     8    6   39 1   
     9    7    8 ar  
    10    7   40 1   
    11    8    9 ar  
    12    8   41 1   
    13    9   10 ar  
    14    9   42 1   
    15   10   11 1   
    16   11   12 1   
    17   11   26 1   
    18   11   43 1   
    19   12   13 1   
    20   12   22 1   
    21   13   14 ar  
    22   13   21 ar  
    23   14   15 ar  
    24   14   44 1   
    25   15   16 1   
    26   15   19 ar  
    27   16   17 1   
    28   16   18 1   
    29   19   20 ar  
    30   19   45 1   
    31   20   21 ar  
    32   20   46 1   
    33   21   47 1   
    34   22   23 2   
    35   22   24 1   
    36   24   25 1   
    37   24   26 2   
    38   25   48 1   
    39   26   27 1   
    40   27   28 2   
    41   27   29 1   
    42   29   30 ar  
    43   29   38 ar  
    44   30   31 ar  
    45   30   49 1   
    46   31   32 1   
    47   31   36 ar  
    48   32   33 1   
    49   32   34 1   
    50   32   35 1   
    51   36   37 ar  
    52   36   50 1   
    53   37   38 ar  
    54   37   51 1   
    55   38   52 1   
@<TRIPOS>SUBSTRUCTURE
     1 1D9         1 TEMP              0 ****  ****    0 ROOT
