@<TRIPOS>MOLECULE
1DA
   33    31     1     0     0
SMALL
bcc


@<TRIPOS>ATOM
      1 O5'        -2.8350    2.2400   -3.1130 oh        1 1DA     -0.589800
      2 C5'        -1.4240    2.2400   -3.1130 c3        1 1DA      0.113400
      3 C4'        -0.9110    2.2400   -1.6630 c3        1 1DA      0.087100
      4 O4'        -1.1740    1.1050   -1.0930 os        1 1DA     -0.420600
      5 C3'         0.6280    2.3540   -1.6390 c3        1 1DA      0.134100
      6 O3'         0.9990    3.5610   -1.1690 oh        1 1DA     -0.587800
      7 C2'         1.1120    1.2340   -0.6870 c3        1 1DA      0.086100
      8 O2'         2.0760    1.7830    0.3080 oh        1 1DA     -0.599800
      9 C1'         0.0440    0.8160   -0.0910 c3        1 1DA      0.233800
     10 N9          0.1430   -0.5790    0.1680 n3        1 1DA     -0.144400
     11 C8          0.1080   -1.6060   -0.7230 c1        1 1DA      0.195400
     12 N7          0.0550   -2.7700   -0.0220 ne        1 1DA     -0.403400
     13 C5          0.0580   -2.4640    1.3000 cg        1 1DA     -0.134000
     14 C6          0.0180   -3.2570    2.4380 c1        1 1DA      0.258800
     15 N6          0.0970   -4.6710    2.3490 n3        1 1DA     -0.823400
     16 C1          0.0320   -2.6770    3.6730 c1        1 1DA     -0.246500
     17 C2          0.0870   -1.2970    3.7900 c1        1 1DA      0.379300
     18 N3          0.1270   -0.5190    2.6720 n1        1 1DA     -0.535800
     19 C4          0.1120   -1.1060    1.4180 c1        1 1DA     -0.007300
     20 HO5'       -3.1310    2.2910   -3.9490 ho        1 1DA      0.408000
     21 H5'1       -1.0990    3.0370   -3.5740 h1        1 1DA      0.055200
     22 H5'2       -1.0990    1.4430   -3.5740 h1        1 1DA      0.055200
     23 H4'        -1.3140    2.9730   -1.1600 h1        1 1DA      0.114700
     24 H3'         0.9900    2.2150   -2.5350 h1        1 1DA      0.059700
     25 HO3'        1.5060    3.9700   -1.7710 ho        1 1DA      0.433000
     26 H2'         1.5230    0.5090   -1.1950 h1        1 1DA      0.077700
     27 HO2'        2.8980    1.5220    0.1000 ho        1 1DA      0.442000
     28 H1'        -0.0870    1.3040    0.7450 h2        1 1DA      0.102700
     29 H8          0.1170   -1.5220   -1.6950 DU        1 1DA      0.208000
     30 HN61        0.9100   -5.0820    2.3400 hn        1 1DA      0.432800
     31 HN62       -0.6670   -5.1690    2.3130 hn        1 1DA      0.432800
     32 H1          0.0040   -3.2340    4.4750 ha        1 1DA      0.086500
     33 H2          0.0970   -0.8820    4.6740 ha        1 1DA      0.098500
@<TRIPOS>BOND
     1    1    2 1   
     2    1   20 1   
     3    2    3 1   
     4    2   21 1   
     5    2   22 1   
     6    3    4 1   
     7    3    5 1   
     8    3   23 1   
     9    4    9 1   
    10    5    6 1   
    11    5    7 1   
    12    5   24 1   
    13    6   25 1   
    14    7    8 1   
    15    7    9 1   
    16    7   26 1   
    17    8   27 1   
    18    9   10 1   
    19    9   28 1   
    20   10   11 2   
    21   10   19 1   
    22   11   12 2   
    23   12   13 1   
    24   13   19 3   
    25   14   15 1   
    26   14   16 3   
    27   15   30 1   
    28   15   31 1   
    29   16   32 1   
    30   17   18 3   
    31   17   33 1   
@<TRIPOS>SUBSTRUCTURE
     1 1DA         1 TEMP              0 ****  ****    0 ROOT
