@<TRIPOS>MOLECULE
1DA
   33    35     1     0     0
SMALL
bcc


@<TRIPOS>ATOM
      1 O5'         0.6180   -1.0590   -0.2110 oh        1 1DA     -0.591800
      2 C5'         1.9230   -1.2300    0.3130 c3        1 1DA      0.111400
      3 C4'         2.1610   -0.0880    1.3010 c3        1 1DA      0.093100
      4 O4'         1.4300   -0.3200    2.5140 os        1 1DA     -0.395600
      5 C3'         3.6560    0.0450    1.6610 c3        1 1DA      0.129100
      6 O3'         4.1210    1.3560    1.4640 oh        1 1DA     -0.573800
      7 C2'         3.7650   -0.4440    3.1230 c3        1 1DA      0.082100
      8 O2'         4.2540    0.6160    3.9150 oh        1 1DA     -0.592800
      9 C1'         2.2970   -0.7700    3.5580 c3        1 1DA      0.222800
     10 N9          2.0700   -2.1690    3.8340 na        1 1DA     -0.301000
     11 C8          1.0580   -3.0110    3.3210 cc        1 1DA      0.429700
     12 N7          1.0610   -4.2380    3.8600 nd        1 1DA     -0.564100
     13 C5          2.1140   -4.2310    4.7940 ca        1 1DA     -0.108900
     14 C6          2.6060   -5.2330    5.6750 ca        1 1DA      0.273600
     15 N6          2.0970   -6.5100    5.6640 nv        1 1DA     -0.841200
     16 C1          3.6820   -4.8440    6.5050 ca        1 1DA     -0.364300
     17 C2          4.2210   -3.5460    6.4190 ca        1 1DA      0.457200
     18 N3          3.8080   -2.5680    5.5990 nb        1 1DA     -0.726000
     19 C4          2.7610   -2.9260    4.8000 ca        1 1DA      0.434800
     20 HO5'        0.4780   -1.7780   -0.8390 ho        1 1DA      0.404000
     21 H5'1        2.6790   -1.1760   -0.5160 h1        1 1DA      0.035200
     22 H5'2        2.0030   -2.2220    0.8340 h1        1 1DA      0.035200
     23 H4'         1.7410    0.8710    0.8910 h1        1 1DA      0.110700
     24 H3'         4.2990   -0.5850    0.9870 h1        1 1DA      0.091700
     25 HO3'        3.7870    1.9080    2.1850 ho        1 1DA      0.425000
     26 H2'         4.4410   -1.3360    3.1920 h1        1 1DA      0.084700
     27 HO2'        4.5270    0.2300    4.7590 ho        1 1DA      0.434000
     28 H1'         2.0090   -0.1670    4.4730 h2        1 1DA      0.102700
     29 H8          0.3590   -2.6390    2.5580 h5        1 1DA      0.088800
     30 HN61        1.2390   -6.6620    5.1890 hn        1 1DA      0.426300
     31 HN62        2.2920   -7.0890    6.4440 hn        1 1DA      0.426300
     32 H1          4.1160   -5.5530    7.2220 ha        1 1DA      0.143000
     33 H2          5.0660   -3.2680    7.0770 h4        1 1DA      0.019100
@<TRIPOS>BOND
     1    1    2 1   
     2    1   20 1   
     3    2    3 1   
     4    2   21 1   
     5    2   22 1   
     6    3    4 1   
     7    3    5 1   
     8    3   23 1   
     9    4    9 1   
    10    5    6 1   
    11    5    7 1   
    12    5   24 1   
    13    6   25 1   
    14    7    8 1   
    15    7    9 1   
    16    7   26 1   
    17    8   27 1   
    18    9   10 1   
    19    9   28 1   
    20   10   11 1   
    21   10   19 1   
    22   11   12 2   
    23   11   29 1   
    24   12   13 1   
    25   13   14 ar  
    26   13   19 ar  
    27   14   15 1   
    28   14   16 ar  
    29   15   30 1   
    30   15   31 1   
    31   16   17 ar  
    32   16   32 1   
    33   17   18 ar  
    34   17   33 1   
    35   18   19 ar  
@<TRIPOS>SUBSTRUCTURE
     1 1DA         1 TEMP              0 ****  ****    0 ROOT
