@<TRIPOS>MOLECULE
1DA
   33    35     1     0     0
SMALL
bcc


@<TRIPOS>ATOM
      1 O5'         0.7400   -1.0710   -0.4010 oh        1 1DA     -0.590800
      2 C5'         1.9700   -1.2080    0.2890 c3        1 1DA      0.109400
      3 C4'         2.0340   -0.0700    1.3080 c3        1 1DA      0.127100
      4 O4'         1.2950   -0.4210    2.4870 os        1 1DA     -0.396600
      5 C3'         3.4850    0.2310    1.7380 c3        1 1DA      0.130100
      6 O3'         3.6380    1.6340    1.7320 oh        1 1DA     -0.587800
      7 C2'         3.6300   -0.4260    3.1290 c3        1 1DA      0.083100
      8 O2'         4.1650    0.5170    4.0280 oh        1 1DA     -0.599800
      9 C1'         2.1710   -0.8070    3.5490 c3        1 1DA      0.226800
     10 N9          2.0040   -2.2120    3.8420 na        1 1DA     -0.301000
     11 C8          1.0150   -3.0950    3.3510 cc        1 1DA      0.431700
     12 N7          1.0840   -4.3230    3.8850 nd        1 1DA     -0.565100
     13 C5          2.1620   -4.2750    4.7880 ca        1 1DA     -0.107900
     14 C6          2.7190   -5.2590    5.6510 ca        1 1DA      0.274600
     15 N6          2.2610   -6.5540    5.6510 nh        1 1DA     -0.841200
     16 C1          3.8040   -4.8300    6.4500 ca        1 1DA     -0.364300
     17 C2          4.2870   -3.5110    6.3520 ca        1 1DA      0.457200
     18 N3          3.8110   -2.5480    5.5480 nb        1 1DA     -0.731000
     19 C4          2.7550   -2.9440    4.7810 ca        1 1DA      0.434800
     20 HO5'        0.6820   -1.8150   -1.0120 ho        1 1DA      0.404000
     21 H5'1        2.8230   -1.1260   -0.4380 h1        1 1DA      0.034200
     22 H5'2        2.0140   -2.2020    0.8100 h1        1 1DA      0.034200
     23 H4'         1.5200    0.8480    0.9080 h1        1 1DA      0.124700
     24 H3'         4.2330   -0.2120    1.0260 h1        1 1DA      0.057700
     25 HO3'        4.3060    1.8690    2.3910 ho        1 1DA      0.432000
     26 H2'         4.2980   -1.3270    3.0630 h1        1 1DA      0.075700
     27 HO2'        4.3840    0.0390    4.8400 ho        1 1DA      0.440000
     28 H1'         1.8480   -0.2060    4.4530 h2        1 1DA      0.103700
     29 H8          0.2820   -2.7520    2.6070 h5        1 1DA      0.088800
     30 HN61        2.5020   -7.1280    6.4220 hn        1 1DA      0.426800
     31 HN62        1.3970   -6.7400    5.2000 hn        1 1DA      0.426800
     32 H1          4.2860   -5.5220    7.1520 ha        1 1DA      0.143000
     33 H2          5.1410   -3.2010    6.9850 h4        1 1DA      0.019100
@<TRIPOS>BOND
     1    1    2 1   
     2    1   20 1   
     3    2    3 1   
     4    2   21 1   
     5    2   22 1   
     6    3    4 1   
     7    3    5 1   
     8    3   23 1   
     9    4    9 1   
    10    5    6 1   
    11    5    7 1   
    12    5   24 1   
    13    6   25 1   
    14    7    8 1   
    15    7    9 1   
    16    7   26 1   
    17    8   27 1   
    18    9   10 1   
    19    9   28 1   
    20   10   11 1   
    21   10   19 1   
    22   11   12 2   
    23   11   29 1   
    24   12   13 1   
    25   13   14 ar  
    26   13   19 ar  
    27   14   15 1   
    28   14   16 ar  
    29   15   30 1   
    30   15   31 1   
    31   16   17 ar  
    32   16   32 1   
    33   17   18 ar  
    34   17   33 1   
    35   18   19 ar  
@<TRIPOS>SUBSTRUCTURE
     1 1DA         1 TEMP              0 ****  ****    0 ROOT
