@<TRIPOS>MOLECULE
1DA
   34    36     1     0     0
SMALL
bcc


@<TRIPOS>ATOM
      1 O5'         0.5770   -1.7790    0.4670 oh        1 1DA     -0.601800
      2 C5'         1.8750   -1.2640    0.2610 c3        1 1DA      0.110400
      3 C4'         2.2080   -0.1610    1.2660 c3        1 1DA      0.083100
      4 O4'         1.5410   -0.4180    2.5160 os        1 1DA     -0.398600
      5 C3'         3.7170   -0.0610    1.5450 c3        1 1DA      0.088100
      6 O3'         4.0790    1.2960    1.3830 oh        1 1DA     -0.583800
      7 C2'         3.9010   -0.4900    3.0210 c3        1 1DA      0.087100
      8 O2'         4.4550    0.5350    3.8020 oh        1 1DA     -0.565800
      9 C1'         2.4590   -0.8360    3.5200 c3        1 1DA      0.216800
     10 N9          2.2520   -2.2480    3.8140 na        1 1DA     -0.270000
     11 C8          1.3630   -3.1410    3.1900 cc        1 1DA      0.511700
     12 N7          1.3020   -4.3540    3.7840 nd        1 1DA     -0.614100
     13 C5          2.1780   -4.2680    4.8680 ca        1 1DA     -0.029900
     14 C6          2.5440   -5.1830    5.8680 ca        1 1DA      0.002600
     15 N6          1.9420   -6.5110    5.8450 n4        1 1DA     -0.696000
     16 C1          3.4620   -4.7820    6.8430 ca        1 1DA     -0.217300
     17 C2          3.9870   -3.4660    6.7850 ca        1 1DA      0.421200
     18 N3          3.6860   -2.5390    5.8640 nb        1 1DA     -0.581000
     19 C4          2.7950   -2.9320    4.9190 ca        1 1DA      0.420800
     20 HO5'       -0.0440   -1.0390    0.4330 ho        1 1DA      0.422000
     21 H5'1        2.5500   -2.1540    0.3810 h1        1 1DA      0.064700
     22 H5'2        1.9770   -0.8550   -0.7800 h1        1 1DA      0.064700
     23 H4'         1.7920    0.8300    0.9260 h1        1 1DA      0.117700
     24 H3'         4.3130   -0.7140    0.8560 h1        1 1DA      0.074700
     25 HO3'        5.0410    1.3490    1.4820 ho        1 1DA      0.431000
     26 H2'         4.6150   -1.3500    3.1270 h1        1 1DA      0.108700
     27 HO2'        3.9660    1.3540    3.6200 ho        1 1DA      0.429000
     28 H1'         2.2010   -0.2470    4.4540 h2        1 1DA      0.123700
     29 H8          0.7850   -2.8380    2.2900 h5        1 1DA      0.138800
     30 HN61        2.1640   -6.9660    4.9490 hn        1 1DA      0.469467
     31 HN62        0.9190   -6.4180    5.9170 hn        1 1DA      0.469467
     32 H1          3.7900   -5.4500    7.6530 ha        1 1DA      0.169000
     33 H2          4.7150   -3.1370    7.5550 h4        1 1DA      0.065100
     34 H63         2.2930   -7.0810    6.6200 hn        1 1DA      0.469467
@<TRIPOS>BOND
     1    1    2 1   
     2    1   20 1   
     3    2    3 1   
     4    2   21 1   
     5    2   22 1   
     6    3    4 1   
     7    3    5 1   
     8    3   23 1   
     9    4    9 1   
    10    5    6 1   
    11    5    7 1   
    12    5   24 1   
    13    6   25 1   
    14    7    8 1   
    15    7    9 1   
    16    7   26 1   
    17    8   27 1   
    18    9   10 1   
    19    9   28 1   
    20   10   11 1   
    21   10   19 1   
    22   11   12 2   
    23   11   29 1   
    24   12   13 1   
    25   13   14 ar  
    26   13   19 ar  
    27   14   15 1   
    28   14   16 ar  
    29   15   30 1   
    30   15   31 1   
    31   15   34 1   
    32   16   17 ar  
    33   16   32 1   
    34   17   18 ar  
    35   17   33 1   
    36   18   19 ar  
@<TRIPOS>SUBSTRUCTURE
     1 1DA         1 TEMP              0 ****  ****    0 ROOT
