@<TRIPOS>MOLECULE
1DA
   33    35     1     0     0
SMALL
bcc


@<TRIPOS>ATOM
      1 O5'        -2.4470    1.2240   -2.7250 oh        1 1DA     -0.589800
      2 C5'        -1.6730    0.0570   -2.8800 c3        1 1DA      0.121400
      3 C4'        -0.1830    0.3900   -2.9550 c3        1 1DA      0.054100
      4 O4'         0.2300    1.0100   -1.7320 os        1 1DA     -0.417600
      5 C3'         0.6910   -0.8550   -3.1820 c3        1 1DA      0.086100
      6 O3'         1.5320   -0.7290   -4.3050 oh        1 1DA     -0.585800
      7 C2'         1.5230   -1.0160   -1.8870 c3        1 1DA      0.076100
      8 O2'         2.8930   -0.7710   -2.1360 oh        1 1DA     -0.585800
      9 C1'         1.0490    0.1320   -0.9410 c3        1 1DA      0.253800
     10 N9          0.3470   -0.3420    0.2210 na        1 1DA     -0.293000
     11 C8         -0.6480   -1.3510    0.2950 cc        1 1DA      0.402700
     12 N7         -1.2340   -1.4460    1.4930 nd        1 1DA     -0.546100
     13 C5         -0.6400   -0.4390    2.2770 ca        1 1DA     -0.118900
     14 C6         -0.8440   -0.0550    3.6310 ca        1 1DA      0.274600
     15 N6         -1.7020   -0.7470    4.4520 nh        1 1DA     -0.842200
     16 C1         -0.0650    1.0360    4.0820 ca        1 1DA     -0.362300
     17 C2          0.8600    1.6550    3.2200 ca        1 1DA      0.458200
     18 N3          1.1020    1.3250    1.9420 nb        1 1DA     -0.699000
     19 C4          0.3490    0.2850    1.4880 ca        1 1DA      0.460800
     20 HO5'       -2.1100    1.6890   -1.9470 ho        1 1DA      0.418000
     21 H5'1       -2.0170   -0.3980   -3.8470 h1        1 1DA      0.050200
     22 H5'2       -1.8680   -0.6530   -2.0310 h1        1 1DA      0.050200
     23 H4'        -0.0090    1.1670   -3.7510 h1        1 1DA      0.097700
     24 H3'         0.0700   -1.7670   -3.3930 h1        1 1DA      0.094700
     25 HO3'        2.0710    0.0660   -4.1810 ho        1 1DA      0.421000
     26 H2'         1.3900   -2.0350   -1.4400 h1        1 1DA      0.069700
     27 HO2'        3.1850   -1.4440   -2.7680 ho        1 1DA      0.424000
     28 H1'         1.9210    0.7700   -0.6000 h2        1 1DA      0.144700
     29 H8         -0.8690   -1.9940   -0.5650 h5        1 1DA      0.064800
     30 HN61       -1.9870   -0.3090    5.2930 hn        1 1DA      0.426800
     31 HN62       -2.3380   -1.3810    4.0310 hn        1 1DA      0.426800
     32 H1         -0.1660    1.4040    5.1100 ha        1 1DA      0.144000
     33 H2          1.4650    2.5030    3.5950 h4        1 1DA      0.023100
@<TRIPOS>BOND
     1    1    2 1   
     2    1   20 1   
     3    2    3 1   
     4    2   21 1   
     5    2   22 1   
     6    3    4 1   
     7    3    5 1   
     8    3   23 1   
     9    4    9 1   
    10    5    6 1   
    11    5    7 1   
    12    5   24 1   
    13    6   25 1   
    14    7    8 1   
    15    7    9 1   
    16    7   26 1   
    17    8   27 1   
    18    9   10 1   
    19    9   28 1   
    20   10   11 1   
    21   10   19 1   
    22   11   12 2   
    23   11   29 1   
    24   12   13 1   
    25   13   14 ar  
    26   13   19 ar  
    27   14   15 1   
    28   14   16 ar  
    29   15   30 1   
    30   15   31 1   
    31   16   17 ar  
    32   16   32 1   
    33   17   18 ar  
    34   17   33 1   
    35   18   19 ar  
@<TRIPOS>SUBSTRUCTURE
     1 1DA         1 TEMP              0 ****  ****    0 ROOT
