@<TRIPOS>MOLECULE
1DB
   35    34     1     0     0
SMALL
bcc


@<TRIPOS>ATOM
      1 O3         -4.4280    0.9040   -1.1870 o         1 1DB     -0.753533
      2 S          -4.4600    0.1320    0.0000 s6        1 1DB      1.426800
      3 O1         -5.4620   -0.8710    0.0010 o         1 1DB     -0.753533
      4 O2         -4.4280    0.9050    1.1860 o         1 1DB     -0.753533
      5 C1         -2.9380   -0.7910    0.0010 c3        1 1DB     -0.290600
      6 C2         -1.7260    0.0940    0.0000 c3        1 1DB     -0.038400
      7 C3         -0.4370   -0.7020    0.0010 c3        1 1DB     -0.073400
      8 C4          0.7740    0.2060   -0.0000 c3        1 1DB     -0.079400
      9 C5          2.0630   -0.5880    0.0000 c3        1 1DB     -0.078400
     10 C6          3.2730    0.3210   -0.0000 c3        1 1DB     -0.079400
     11 C7          4.5610   -0.4740    0.0000 c3        1 1DB     -0.078400
     12 C8          5.7710    0.4360   -0.0000 c3        1 1DB     -0.079400
     13 C9          7.0590   -0.3580    0.0000 c3        1 1DB     -0.080400
     14 C10         8.2670    0.5440   -0.0000 c3        1 1DB     -0.091100
     15 H1C1       -2.9240   -1.4560   -0.8950 h1        1 1DB      0.060700
     16 H1C2       -2.9240   -1.4550    0.8970 h1        1 1DB      0.060700
     17 H2C1       -1.7550    0.7600    0.9040 hc        1 1DB      0.046700
     18 H2C2       -1.7550    0.7590   -0.9050 hc        1 1DB      0.046700
     19 H3C1       -0.4080   -1.3680   -0.9010 hc        1 1DB      0.027700
     20 H3C2       -0.4080   -1.3670    0.9030 hc        1 1DB      0.027700
     21 H4C1        0.7430    0.8730    0.9020 hc        1 1DB      0.037700
     22 H4C2        0.7430    0.8720   -0.9030 hc        1 1DB      0.037700
     23 H5C1        2.0930   -1.2550   -0.9010 hc        1 1DB      0.034700
     24 H5C2        2.0930   -1.2540    0.9030 hc        1 1DB      0.034700
     25 H6C1        3.2420    0.9880    0.9020 hc        1 1DB      0.037700
     26 H6C2        3.2420    0.9860   -0.9030 hc        1 1DB      0.037700
     27 H7C1        4.5910   -1.1410   -0.9020 hc        1 1DB      0.036700
     28 H7C2        4.5910   -1.1390    0.9030 hc        1 1DB      0.036700
     29 H8C1        5.7400    1.1030    0.9020 hc        1 1DB      0.038700
     30 H8C2        5.7400    1.1010   -0.9030 hc        1 1DB      0.038700
     31 H9C1        7.0870   -1.0250   -0.9020 hc        1 1DB      0.036700
     32 H9C2        7.0870   -1.0240    0.9030 hc        1 1DB      0.036700
     33 H101        8.2690    1.1990    0.9040 hc        1 1DB      0.029033
     34 H102        9.2050   -0.0610    0.0000 hc        1 1DB      0.029033
     35 H103        8.2690    1.1980   -0.9060 hc        1 1DB      0.029033
@<TRIPOS>BOND
     1    1    2 1   
     2    2    3 1   
     3    2    4 1   
     4    2    5 1   
     5    5    6 1   
     6    5   15 1   
     7    5   16 1   
     8    6    7 1   
     9    6   17 1   
    10    6   18 1   
    11    7    8 1   
    12    7   19 1   
    13    7   20 1   
    14    8    9 1   
    15    8   21 1   
    16    8   22 1   
    17    9   10 1   
    18    9   23 1   
    19    9   24 1   
    20   10   11 1   
    21   10   25 1   
    22   10   26 1   
    23   11   12 1   
    24   11   27 1   
    25   11   28 1   
    26   12   13 1   
    27   12   29 1   
    28   12   30 1   
    29   13   14 1   
    30   13   31 1   
    31   13   32 1   
    32   14   33 1   
    33   14   34 1   
    34   14   35 1   
@<TRIPOS>SUBSTRUCTURE
     1 1DB         1 TEMP              0 ****  ****    0 ROOT
