@<TRIPOS>MOLECULE
1DB
   35    32     1     0     0
SMALL
bcc


@<TRIPOS>ATOM
      1 O3         -6.3900   -2.9580    2.8770 o         1 1DB     -1.076500
      2 S          -4.9300   -3.1320    2.5310 ss        1 1DB      2.856000
      3 O1         -4.1530   -3.6890    3.6990 os        1 1DB     -1.076000
      4 O2         -5.0130   -4.1310    1.4010 o         1 1DB     -1.076500
      5 C1         -4.2110   -1.6050    1.9880 c2        1 1DB     -0.830000
      6 C2         -2.8530   -1.8760    1.3790 c3        1 1DB     -0.117000
      7 C3         -2.1500   -0.5630    1.1100 c3        1 1DB     -0.152000
      8 C4         -0.8580   -0.8250    0.3690 c3        1 1DB     -0.158000
      9 C5         -0.1060    0.4750    0.1900 c3        1 1DB     -0.157000
     10 C6          1.1570    0.2230   -0.6030 c3        1 1DB     -0.158000
     11 C7          1.9070    1.5240   -0.7850 c3        1 1DB     -0.157000
     12 C8          3.1100    1.2930   -1.6720 c3        1 1DB     -0.158000
     13 C9          3.9210    2.5670   -1.7650 c3        1 1DB     -0.159000
     14 C10         5.0840    2.3570   -2.7100 c3        1 1DB     -0.209000
     15 H1C1       -4.1120   -1.0020    2.7510 ha        1 1DB      0.100000
     16 H1C2       -4.7920   -1.1910    1.3180 ha        1 1DB      0.100000
     17 H2C1       -2.9630   -2.3640    0.5390 hc        1 1DB      0.086000
     18 H2C2       -2.3180   -2.4100    2.0000 hc        1 1DB      0.086000
     19 H3C1       -2.7270    0.0100    0.5660 hc        1 1DB      0.067000
     20 H3C2       -1.9550   -0.1170    1.9590 hc        1 1DB      0.067000
     21 H4C1       -0.3090   -1.4510    0.8830 hc        1 1DB      0.077000
     22 H4C2       -1.0560   -1.2100   -0.5080 hc        1 1DB      0.077000
     23 H5C1       -0.6700    1.1140   -0.2900 hc        1 1DB      0.074000
     24 H5C2        0.1270    0.8410    1.0670 hc        1 1DB      0.074000
     25 H6C1        0.9240   -0.1450   -1.4790 hc        1 1DB      0.077000
     26 H6C2        1.7220   -0.4150   -0.1220 hc        1 1DB      0.077000
     27 H7C1        1.3180    2.1850   -1.2010 hc        1 1DB      0.076000
     28 H7C2        2.2040    1.8540    0.0870 hc        1 1DB      0.076000
     29 H8C1        2.8110    1.0310   -2.5660 hc        1 1DB      0.078000
     30 H8C2        3.6640    0.5810   -1.2920 hc        1 1DB      0.078000
     31 H9C1        4.2600    2.8030   -0.8780 hc        1 1DB      0.076000
     32 H9C2        3.3540    3.2900   -2.1010 hc        1 1DB      0.076000
     33 H101        5.6470    1.6280   -2.3780 hc        1 1DB      0.068333
     34 H102        5.6130    3.1800   -2.7640 hc        1 1DB      0.068333
     35 H103        4.7440    2.1280   -3.6000 hc        1 1DB      0.068333
@<TRIPOS>BOND
     1    1    2 1   
     2    2    4 1   
     3    5    6 1   
     4    5   15 1   
     5    5   16 1   
     6    6    7 1   
     7    6   17 1   
     8    6   18 1   
     9    7    8 1   
    10    7   19 1   
    11    7   20 1   
    12    8    9 1   
    13    8   21 1   
    14    8   22 1   
    15    9   10 1   
    16    9   23 1   
    17    9   24 1   
    18   10   11 1   
    19   10   25 1   
    20   10   26 1   
    21   11   12 1   
    22   11   27 1   
    23   11   28 1   
    24   12   13 1   
    25   12   29 1   
    26   12   30 1   
    27   13   14 1   
    28   13   31 1   
    29   13   32 1   
    30   14   33 1   
    31   14   34 1   
    32   14   35 1   
@<TRIPOS>SUBSTRUCTURE
     1 1DB         1 TEMP              0 ****  ****    0 ROOT
