@<TRIPOS>MOLECULE
1DB
   35    34     1     0     0
SMALL
bcc


@<TRIPOS>ATOM
      1 O3          0.0480   -0.0590   -0.2150 o         1 1DB     -0.753533
      2 S           1.4400   -0.0180    0.0470 s6        1 1DB      1.426800
      3 O1          1.7600   -0.0440    1.4270 o         1 1DB     -0.753533
      4 O2          2.1280    0.9850   -0.6790 o         1 1DB     -0.753533
      5 C1          2.0780   -1.5630   -0.5660 c3        1 1DB     -0.290600
      6 C2          1.8390   -1.7440   -2.0370 c3        1 1DB     -0.038400
      7 C3          2.3860   -3.0610   -2.5460 c3        1 1DB     -0.073400
      8 C4          2.1360   -3.2270   -4.0300 c3        1 1DB     -0.079400
      9 C5          2.6830   -4.5430   -4.5400 c3        1 1DB     -0.078400
     10 C6          2.4310   -4.7080   -6.0240 c3        1 1DB     -0.079400
     11 C7          2.9780   -6.0240   -6.5340 c3        1 1DB     -0.078400
     12 C8          2.7260   -6.1890   -8.0170 c3        1 1DB     -0.079400
     13 C9          3.2720   -7.5050   -8.5280 c3        1 1DB     -0.080400
     14 C10         3.0230   -7.6730  -10.0050 c3        1 1DB     -0.091100
     15 H1C1        3.1720   -1.6070   -0.3500 h1        1 1DB      0.060700
     16 H1C2        1.6010   -2.3960    0.0030 h1        1 1DB      0.060700
     17 H2C1        2.3210   -0.8960   -2.5960 hc        1 1DB      0.046700
     18 H2C2        0.7350   -1.6920   -2.2400 hc        1 1DB      0.046700
     19 H3C1        3.4880   -3.1130   -2.3430 hc        1 1DB      0.028200
     20 H3C2        1.9070   -3.9070   -1.9870 hc        1 1DB      0.028200
     21 H4C1        2.6150   -2.3790   -4.5880 hc        1 1DB      0.037700
     22 H4C2        1.0340   -3.1740   -4.2320 hc        1 1DB      0.037700
     23 H5C1        3.7850   -4.5960   -4.3380 hc        1 1DB      0.034700
     24 H5C2        2.2040   -5.3900   -3.9820 hc        1 1DB      0.034700
     25 H6C1        2.9100   -3.8610   -6.5820 hc        1 1DB      0.037700
     26 H6C2        1.3290   -4.6550   -6.2260 hc        1 1DB      0.037700
     27 H7C1        4.0800   -6.0770   -6.3320 hc        1 1DB      0.036700
     28 H7C2        2.5000   -6.8710   -5.9750 hc        1 1DB      0.036700
     29 H8C1        3.2040   -5.3420   -8.5760 hc        1 1DB      0.038700
     30 H8C2        1.6230   -6.1370   -8.2190 hc        1 1DB      0.038700
     31 H9C1        2.7940   -8.3510   -7.9660 hc        1 1DB      0.036700
     32 H9C2        4.3740   -7.5560   -8.3240 hc        1 1DB      0.036700
     33 H101        3.4330   -8.6490  -10.3610 hc        1 1DB      0.029033
     34 H102        3.5120   -6.8520  -10.5830 hc        1 1DB      0.029033
     35 H103        1.9280   -7.6500  -10.2240 hc        1 1DB      0.029033
@<TRIPOS>BOND
     1    1    2 1   
     2    2    3 1   
     3    2    4 1   
     4    2    5 1   
     5    5    6 1   
     6    5   15 1   
     7    5   16 1   
     8    6    7 1   
     9    6   17 1   
    10    6   18 1   
    11    7    8 1   
    12    7   19 1   
    13    7   20 1   
    14    8    9 1   
    15    8   21 1   
    16    8   22 1   
    17    9   10 1   
    18    9   23 1   
    19    9   24 1   
    20   10   11 1   
    21   10   25 1   
    22   10   26 1   
    23   11   12 1   
    24   11   27 1   
    25   11   28 1   
    26   12   13 1   
    27   12   29 1   
    28   12   30 1   
    29   13   14 1   
    30   13   31 1   
    31   13   32 1   
    32   14   33 1   
    33   14   34 1   
    34   14   35 1   
@<TRIPOS>SUBSTRUCTURE
     1 1DB         1 TEMP              0 ****  ****    0 ROOT
