@<TRIPOS>MOLECULE
1DC
   43    45     1     0     0
SMALL
bcc


@<TRIPOS>ATOM
      1 CAH         0.2550   -0.0400    0.0970 ca        1 1DC     -0.230300
      2 CAF         1.5660   -0.4950    0.3330 ca        1 1DC      0.420700
      3 NAN         1.9500   -1.0840    1.4820 nb        1 1DC     -0.614000
      4 CAG         1.0230   -1.2400    2.4440 ca        1 1DC      0.420700
      5 CAI        -0.3160   -0.8140    2.3090 ca        1 1DC     -0.230300
      6 CAS        -0.6990   -0.2080    1.1090 ca        1 1DC     -0.140300
      7 CAX        -2.1220    0.2270    0.9160 c3        1 1DC      0.193800
      8 CAA        -2.7400   -0.4150   -0.3170 c3        1 1DC     -0.129100
      9 NAP        -2.1740    1.7440    0.8460 ny        1 1DC     -0.690800
     10 CAR        -3.5890    2.2700    0.9920 c         1 1DC      0.544100
     11 OAB        -4.0850    2.1480    2.1000 o         1 1DC     -0.409100
     12 CAL        -4.1770    2.8770   -0.2460 c3        1 1DC     -0.141400
     13 CAM        -5.5890    3.3650    0.0220 c3        1 1DC     -0.118700
     14 CAT        -6.2260    3.9820   -1.2140 cc        1 1DC      0.478900
     15 NAO        -5.5590    4.0180   -2.3520 nd        1 1DC     -0.647100
     16 CAV        -6.1800    4.5950   -3.4700 ca        1 1DC      0.167400
     17 CAJ        -5.4990    4.6550   -4.7080 ca        1 1DC     -0.121000
     18 CAD        -6.1190    5.2260   -5.8110 ca        1 1DC     -0.087000
     19 CAE        -7.4140    5.7490   -5.7210 ca        1 1DC     -0.133000
     20 CAK        -8.1030    5.7010   -4.5150 ca        1 1DC     -0.054000
     21 CAW        -7.4950    5.1280   -3.3920 ca        1 1DC     -0.176600
     22 CAU        -8.2160    5.0740   -2.1080 c         1 1DC      0.711100
     23 OAC        -9.3620    5.4990   -1.9000 o         1 1DC     -0.586500
     24 NAQ        -7.5190    4.4780   -1.0340 ns        1 1DC     -0.498400
     25 H1         -0.0010    0.4120   -0.8710 ha        1 1DC      0.151500
     26 H2          2.3520   -0.3880   -0.4400 h4        1 1DC      0.053600
     27 H3          1.3670   -1.7330    3.3740 h4        1 1DC      0.053600
     28 H4         -1.0280   -0.9760    3.1310 ha        1 1DC      0.151500
     29 H5         -2.7350   -0.0540    1.8300 hx        1 1DC      0.120700
     30 H6         -2.6800   -1.5270   -0.1940 hc        1 1DC      0.080367
     31 H7         -3.8150   -0.1320   -0.4250 hc        1 1DC      0.080367
     32 H8         -2.1900   -0.1410   -1.2500 hc        1 1DC      0.080367
     33 H9         -1.7740    2.0510   -0.0450 hn        1 1DC      0.460300
     34 H10        -3.5310    3.7360   -0.5850 hc        1 1DC      0.120700
     35 H11        -4.1810    2.1060   -1.0690 hc        1 1DC      0.120700
     36 H12        -5.5720    4.1320    0.8450 hc        1 1DC      0.088700
     37 H13        -6.2270    2.5060    0.3670 hc        1 1DC      0.088700
     38 H14        -4.4800    4.2490   -4.7960 ha        1 1DC      0.146000
     39 H15        -5.5820    5.2700   -6.7720 ha        1 1DC      0.148000
     40 H16        -7.8870    6.1980   -6.6080 ha        1 1DC      0.155000
     41 H17        -9.1240    6.1080   -4.4240 ha        1 1DC      0.170000
     42 H18        -7.9630    4.4200   -0.1440 hn        1 1DC      0.340500
     43 HAP2       -1.5960    2.1130    1.6120 hn        1 1DC      0.460300
@<TRIPOS>BOND
     1    1    2 ar  
     2    1    6 ar  
     3    1   25 1   
     4    2    3 ar  
     5    2   26 1   
     6    3    4 ar  
     7    4    5 ar  
     8    4   27 1   
     9    5    6 ar  
    10    5   28 1   
    11    6    7 1   
    12    7    8 1   
    13    7    9 1   
    14    7   29 1   
    15    8   30 1   
    16    8   31 1   
    17    8   32 1   
    18    9   10 1   
    19    9   33 1   
    20    9   43 1   
    21   10   11 2   
    22   10   12 1   
    23   12   13 1   
    24   12   34 1   
    25   12   35 1   
    26   13   14 1   
    27   13   36 1   
    28   13   37 1   
    29   14   15 2   
    30   14   24 1   
    31   15   16 1   
    32   16   17 ar  
    33   16   21 ar  
    34   17   18 ar  
    35   17   38 1   
    36   18   19 ar  
    37   18   39 1   
    38   19   20 ar  
    39   19   40 1   
    40   20   21 ar  
    41   20   41 1   
    42   21   22 1   
    43   22   23 2   
    44   22   24 1   
    45   24   42 1   
@<TRIPOS>SUBSTRUCTURE
     1 1DC         1 TEMP              0 ****  ****    0 ROOT
