@<TRIPOS>MOLECULE
1DC
   43    45     1     0     0
SMALL
bcc


@<TRIPOS>ATOM
      1 CAH         0.2770    0.0220    0.1370 ca        1 1DC     -0.230300
      2 CAF         1.5900   -0.4150    0.3910 ca        1 1DC      0.420700
      3 NAN         1.9640   -1.0130    1.5390 nb        1 1DC     -0.614000
      4 CAG         1.0220   -1.1960    2.4820 ca        1 1DC      0.420700
      5 CAI        -0.3200   -0.7900    2.3290 ca        1 1DC     -0.230300
      6 CAS        -0.6920   -0.1740    1.1300 ca        1 1DC     -0.140300
      7 CAX        -2.1180    0.2400    0.9170 c3        1 1DC      0.193800
      8 CAA        -2.7040   -0.3950   -0.3340 c3        1 1DC     -0.129100
      9 NAP        -2.1940    1.7570    0.8660 n4        1 1DC     -0.690800
     10 CAR        -3.6190    2.2590    0.9930 c         1 1DC      0.544100
     11 OAB        -4.1320    2.1150    2.0910 o         1 1DC     -0.409100
     12 CAL        -4.1960    2.8720   -0.2480 c3        1 1DC     -0.141400
     13 CAM        -5.6190    3.3350    0.0030 c3        1 1DC     -0.118700
     14 CAT        -6.2460    3.9560   -1.2360 cc        1 1DC      0.478900
     15 NAO        -5.5600    4.0160   -2.3630 nd        1 1DC     -0.647100
     16 CAV        -6.1720    4.5950   -3.4850 ca        1 1DC      0.167400
     17 CAJ        -5.4710    4.6810   -4.7100 ca        1 1DC     -0.121000
     18 CAD        -6.0820    5.2550   -5.8170 ca        1 1DC     -0.087000
     19 CAE        -7.3860    5.7560   -5.7430 ca        1 1DC     -0.133000
     20 CAK        -8.0940    5.6830   -4.5500 ca        1 1DC     -0.054000
     21 CAW        -7.4960    5.1070   -3.4230 ca        1 1DC     -0.176600
     22 CAU        -8.2380    5.0260   -2.1520 c         1 1DC      0.711100
     23 OAC        -9.3930    5.4310   -1.9580 o         1 1DC     -0.586500
     24 NAQ        -7.5490    4.4290   -1.0730 n         1 1DC     -0.498400
     25 H1          0.0300    0.4820   -0.8290 ha        1 1DC      0.151500
     26 H2          2.3880   -0.2850   -0.3660 h4        1 1DC      0.053600
     27 H3          1.3580   -1.6960    3.4120 h4        1 1DC      0.053600
     28 H4         -1.0450   -0.9730    3.1360 ha        1 1DC      0.151500
     29 H5         -2.7430   -0.0620    1.8160 hx        1 1DC      0.120700
     30 H6         -2.1420   -0.1010   -1.2540 hc        1 1DC      0.080367
     31 H7         -3.7820   -0.1280   -0.4580 hc        1 1DC      0.080367
     32 H8         -2.6280   -1.5080   -0.2240 hc        1 1DC      0.080367
     33 H9         -1.7840    2.0820   -0.0150 hn        1 1DC      0.460300
     34 H10        -3.5580    3.7450   -0.5650 hc        1 1DC      0.120700
     35 H11        -4.1730    2.1110   -1.0790 hc        1 1DC      0.120700
     36 H12        -5.6280    4.0920    0.8340 hc        1 1DC      0.088700
     37 H13        -6.2490    2.4620    0.3270 hc        1 1DC      0.088700
     38 H14        -4.4440    4.2920   -4.7850 ha        1 1DC      0.146000
     39 H15        -5.5290    5.3190   -6.7690 ha        1 1DC      0.148000
     40 H16        -7.8520    6.2080   -6.6330 ha        1 1DC      0.155000
     41 H17        -9.1240    6.0720   -4.4710 ha        1 1DC      0.170000
     42 H18        -8.0070    4.3540   -0.1920 hn        1 1DC      0.340500
     43 HAP2       -1.6350    2.1260    1.6460 hn        1 1DC      0.460300
@<TRIPOS>BOND
     1    1    2 ar  
     2    1    6 ar  
     3    1   25 1   
     4    2    3 ar  
     5    2   26 1   
     6    3    4 ar  
     7    4    5 ar  
     8    4   27 1   
     9    5    6 ar  
    10    5   28 1   
    11    6    7 1   
    12    7    8 1   
    13    7    9 1   
    14    7   29 1   
    15    8   30 1   
    16    8   31 1   
    17    8   32 1   
    18    9   10 1   
    19    9   33 1   
    20    9   43 1   
    21   10   11 2   
    22   10   12 1   
    23   12   13 1   
    24   12   34 1   
    25   12   35 1   
    26   13   14 1   
    27   13   36 1   
    28   13   37 1   
    29   14   15 2   
    30   14   24 1   
    31   15   16 1   
    32   16   17 ar  
    33   16   21 ar  
    34   17   18 ar  
    35   17   38 1   
    36   18   19 ar  
    37   18   39 1   
    38   19   20 ar  
    39   19   40 1   
    40   20   21 ar  
    41   20   41 1   
    42   21   22 1   
    43   22   23 2   
    44   22   24 1   
    45   24   42 1   
@<TRIPOS>SUBSTRUCTURE
     1 1DC         1 TEMP              0 ****  ****    0 ROOT
