@<TRIPOS>MOLECULE
1DC
   43    45     1     0     0
SMALL
bcc


@<TRIPOS>ATOM
      1 CAH         0.2630   -0.0230    0.1110 ca        1 1DC     -0.230300
      2 CAF         1.5740   -0.4720    0.3550 ca        1 1DC      0.420700
      3 NAN         1.9510   -1.0700    1.5020 nb        1 1DC     -0.614000
      4 CAG         1.0160   -1.2410    2.4530 ca        1 1DC      0.420700
      5 CAI        -0.3240   -0.8220    2.3100 ca        1 1DC     -0.230300
      6 CAS        -0.6990   -0.2060    1.1120 ca        1 1DC     -0.140300
      7 CAX        -2.1230    0.2220    0.9100 c3        1 1DC      0.193800
      8 CAA        -2.7250   -0.4120   -0.3350 c3        1 1DC     -0.129100
      9 NAP        -2.1840    1.7390    0.8540 n4        1 1DC     -0.690800
     10 CAR        -3.6030    2.2550    0.9920 c         1 1DC      0.544100
     11 OAB        -4.1090    2.1200    2.0940 o         1 1DC     -0.409100
     12 CAL        -4.1840    2.8700   -0.2460 c3        1 1DC     -0.141400
     13 CAM        -5.6010    3.3470    0.0140 c3        1 1DC     -0.118700
     14 CAT        -6.2320    3.9710   -1.2220 cc        1 1DC      0.478900
     15 NAO        -5.5540    4.0200   -2.3540 nd        1 1DC     -0.647100
     16 CAV        -6.1700    4.6020   -3.4730 ca        1 1DC      0.167400
     17 CAJ        -5.4780    4.6770   -4.7040 ca        1 1DC     -0.121000
     18 CAD        -6.0920    5.2540   -5.8080 ca        1 1DC     -0.087000
     19 CAE        -7.3910    5.7670   -5.7250 ca        1 1DC     -0.133000
     20 CAK        -8.0900    5.7050   -4.5260 ca        1 1DC     -0.054000
     21 CAW        -7.4880    5.1270   -3.4020 ca        1 1DC     -0.176600
     22 CAU        -8.2200    5.0570   -2.1240 c         1 1DC      0.711100
     23 OAC        -9.3710    5.4730   -1.9230 o         1 1DC     -0.586500
     24 NAQ        -7.5290    4.4570   -1.0490 n         1 1DC     -0.498400
     25 H1          0.0130    0.4370   -0.8550 ha        1 1DC      0.151500
     26 H2          2.3670   -0.3530   -0.4100 h4        1 1DC      0.053600
     27 H3          1.3550   -1.7410    3.3820 h4        1 1DC      0.053600
     28 H4         -1.0430   -0.9960    3.1230 ha        1 1DC      0.151500
     29 H5         -2.7430   -0.0720    1.8150 hx        1 1DC      0.120700
     30 H6         -2.6600   -1.5250   -0.2220 hc        1 1DC      0.080367
     31 H7         -3.8020   -0.1350   -0.4500 hc        1 1DC      0.080367
     32 H8         -2.1690   -0.1260   -1.2600 hc        1 1DC      0.080367
     33 H9         -1.6150    2.1040    1.6290 hn        1 1DC      0.460300
     34 H10        -4.1760    2.1060   -1.0760 hc        1 1DC      0.120700
     35 H11        -3.5410    3.7360   -0.5720 hc        1 1DC      0.120700
     36 H12        -5.5960    4.1070    0.8430 hc        1 1DC      0.088700
     37 H13        -6.2370    2.4810    0.3460 hc        1 1DC      0.088700
     38 H14        -4.4560    4.2780   -4.7860 ha        1 1DC      0.146000
     39 H15        -5.5470    5.3090   -6.7640 ha        1 1DC      0.148000
     40 H16        -7.8590    6.2210   -6.6120 ha        1 1DC      0.155000
     41 H17        -9.1150    6.1050   -4.4400 ha        1 1DC      0.170000
     42 H18        -7.9800    4.3880   -0.1650 hn        1 1DC      0.340500
     43 HAP2       -1.7780    2.0570   -0.0300 hn        1 1DC      0.460300
@<TRIPOS>BOND
     1    1    2 ar  
     2    1    6 ar  
     3    1   25 1   
     4    2    3 ar  
     5    2   26 1   
     6    3    4 ar  
     7    4    5 ar  
     8    4   27 1   
     9    5    6 ar  
    10    5   28 1   
    11    6    7 1   
    12    7    8 1   
    13    7    9 1   
    14    7   29 1   
    15    8   30 1   
    16    8   31 1   
    17    8   32 1   
    18    9   10 1   
    19    9   33 1   
    20    9   43 1   
    21   10   11 2   
    22   10   12 1   
    23   12   13 1   
    24   12   34 1   
    25   12   35 1   
    26   13   14 1   
    27   13   36 1   
    28   13   37 1   
    29   14   15 2   
    30   14   24 1   
    31   15   16 1   
    32   16   17 ar  
    33   16   21 ar  
    34   17   18 ar  
    35   17   38 1   
    36   18   19 ar  
    37   18   39 1   
    38   19   20 ar  
    39   19   40 1   
    40   20   21 ar  
    41   20   41 1   
    42   21   22 1   
    43   22   23 2   
    44   22   24 1   
    45   24   42 1   
@<TRIPOS>SUBSTRUCTURE
     1 1DC         1 TEMP              0 ****  ****    0 ROOT
