@<TRIPOS>MOLECULE
1DD
   31    33     1     0     0
SMALL
bcc


@<TRIPOS>ATOM
      1 F20         0.0610    0.1820    0.0800 f         1 1DD     -0.124900
      2 C17         1.4100    0.1240    0.0610 ca        1 1DD      0.200900
      3 C16         2.1200   -0.1000    1.2570 ca        1 1DD     -0.194000
      4 C15         3.5060   -0.1530    1.2220 ca        1 1DD      0.015500
      5 C18         2.1030    0.2860   -1.1560 ca        1 1DD     -0.194000
      6 C19         3.4890    0.2260   -1.1580 ca        1 1DD      0.015500
      7 C14         4.2130    0.0100    0.0230 ca        1 1DD     -0.415500
      8 S10         5.8880   -0.0990   -0.0110 sy        1 1DD      1.517300
      9 O11         6.3310   -0.6880    1.1860 o         1 1DD     -0.636800
     10 O12         6.2810   -0.7110   -1.2130 o         1 1DD     -0.636800
     11 N9          6.3480    1.4960   -0.0330 na        1 1DD     -0.355800
     12 C8          6.5240    2.4030    1.0790 cc        1 1DD      0.467800
     13 C13         6.3540    1.9370    2.4840 c3        1 1DD     -0.135400
     14 N7          6.8540    3.6440    0.7070 nd        1 1DD     -0.546100
     15 C2          6.9220    3.6230   -0.7060 ca        1 1DD      0.082400
     16 C3          6.6150    2.2880   -1.1770 ca        1 1DD     -0.054200
     17 C4          6.6320    1.9820   -2.5390 ca        1 1DD     -0.135000
     18 C5          6.9390    3.0140   -3.4230 ca        1 1DD     -0.112000
     19 C6          7.2270    4.3100   -2.9760 ca        1 1DD     -0.143000
     20 C1          7.2270    4.6330   -1.6230 ca        1 1DD     -0.074000
     21 H1          1.5710   -0.2320    2.2010 ha        1 1DD      0.161500
     22 H2          4.0670   -0.3440    2.1570 ha        1 1DD      0.159500
     23 H3          1.5410    0.4550   -2.0870 ha        1 1DD      0.161500
     24 H4          4.0360    0.3400   -2.1120 ha        1 1DD      0.159500
     25 H5          5.3010    1.5940    2.6470 hc        1 1DD      0.075700
     26 H6          7.0460    1.0810    2.6930 hc        1 1DD      0.075700
     27 H7          6.5760    2.7690    3.1970 hc        1 1DD      0.075700
     28 H8          6.4330    0.9610   -2.9010 ha        1 1DD      0.164000
     29 H9          6.9620    2.8000   -4.5030 ha        1 1DD      0.137000
     30 H10         7.4650    5.0900   -3.7150 ha        1 1DD      0.137000
     31 H11         7.4620    5.6490   -1.2770 ha        1 1DD      0.152000
@<TRIPOS>BOND
     1    1    2 1   
     2    2    3 ar  
     3    2    5 ar  
     4    3    4 ar  
     5    3   21 1   
     6    4    7 ar  
     7    4   22 1   
     8    5    6 ar  
     9    5   23 1   
    10    6    7 ar  
    11    6   24 1   
    12    7    8 1   
    13    8    9 2   
    14    8   10 2   
    15    8   11 1   
    16   11   12 1   
    17   11   16 1   
    18   12   13 1   
    19   12   14 2   
    20   13   25 1   
    21   13   26 1   
    22   13   27 1   
    23   14   15 1   
    24   15   16 ar  
    25   15   20 ar  
    26   16   17 ar  
    27   17   18 ar  
    28   17   28 1   
    29   18   19 ar  
    30   18   29 1   
    31   19   20 ar  
    32   19   30 1   
    33   20   31 1   
@<TRIPOS>SUBSTRUCTURE
     1 1DD         1 TEMP              0 ****  ****    0 ROOT
