@<TRIPOS>MOLECULE
1DD
   31    33     1     0     0
SMALL
bcc


@<TRIPOS>ATOM
      1 F20         0.0600    0.1900    0.0850 f         1 1DD     -0.124900
      2 C17         1.4080    0.1300    0.0650 ca        1 1DD      0.200900
      3 C16         2.1190   -0.0930    1.2620 ca        1 1DD     -0.194000
      4 C15         3.5050   -0.1480    1.2260 ca        1 1DD      0.015500
      5 C18         2.1000    0.2880   -1.1520 ca        1 1DD     -0.194000
      6 C19         3.4870    0.2270   -1.1550 ca        1 1DD      0.015500
      7 C14         4.2120    0.0120    0.0260 ca        1 1DD     -0.415500
      8 S10         5.8860   -0.0990   -0.0090 sy        1 1DD      1.517300
      9 O11         6.3290   -0.6870    1.1900 o         1 1DD     -0.636800
     10 O12         6.2770   -0.7130   -1.2100 o         1 1DD     -0.636800
     11 N9          6.3480    1.4950   -0.0330 na        1 1DD     -0.355800
     12 C8          6.5260    2.4040    1.0770 cc        1 1DD      0.467800
     13 C13         6.3550    1.9410    2.4820 c3        1 1DD     -0.135400
     14 N7          6.8570    3.6440    0.7030 nd        1 1DD     -0.546100
     15 C2          6.9240    3.6200   -0.7110 ca        1 1DD      0.082400
     16 C3          6.6150    2.2850   -1.1790 ca        1 1DD     -0.054200
     17 C4          6.6310    1.9770   -2.5410 ca        1 1DD     -0.135000
     18 C5          6.9400    3.0060   -3.4270 ca        1 1DD     -0.112000
     19 C6          7.2300    4.3030   -2.9820 ca        1 1DD     -0.143000
     20 C1          7.2300    4.6280   -1.6290 ca        1 1DD     -0.074000
     21 H1          1.5700   -0.2230    2.2060 ha        1 1DD      0.161500
     22 H2          4.0660   -0.3380    2.1600 ha        1 1DD      0.159500
     23 H3          1.5390    0.4570   -2.0830 ha        1 1DD      0.161500
     24 H4          4.0340    0.3380   -2.1100 ha        1 1DD      0.159500
     25 H5          5.3020    1.5990    2.6470 hc        1 1DD      0.075700
     26 H6          7.0460    1.0840    2.6930 hc        1 1DD      0.075700
     27 H7          6.5800    2.7740    3.1940 hc        1 1DD      0.075700
     28 H8          6.4310    0.9550   -2.9010 ha        1 1DD      0.164000
     29 H9          6.9630    2.7910   -4.5060 ha        1 1DD      0.137000
     30 H10         7.4680    5.0820   -3.7220 ha        1 1DD      0.137000
     31 H11         7.4660    5.6450   -1.2850 ha        1 1DD      0.152000
@<TRIPOS>BOND
     1    1    2 1   
     2    2    3 ar  
     3    2    5 ar  
     4    3    4 ar  
     5    3   21 1   
     6    4    7 ar  
     7    4   22 1   
     8    5    6 ar  
     9    5   23 1   
    10    6    7 ar  
    11    6   24 1   
    12    7    8 1   
    13    8    9 2   
    14    8   10 2   
    15    8   11 1   
    16   11   12 1   
    17   11   16 1   
    18   12   13 1   
    19   12   14 2   
    20   13   25 1   
    21   13   26 1   
    22   13   27 1   
    23   14   15 1   
    24   15   16 ar  
    25   15   20 ar  
    26   16   17 ar  
    27   17   18 ar  
    28   17   28 1   
    29   18   19 ar  
    30   18   29 1   
    31   19   20 ar  
    32   19   30 1   
    33   20   31 1   
@<TRIPOS>SUBSTRUCTURE
     1 1DD         1 TEMP              0 ****  ****    0 ROOT
