@<TRIPOS>MOLECULE
1DE
   46    50     1     0     0
SMALL
bcc


@<TRIPOS>ATOM
      1 CAO        -0.2170   -0.7880   -0.3000 ca        1 1DE     -0.078000
      2 CBD         1.0840   -0.6970    0.1480 ca        1 1DE      0.061100
      3 OAQ         1.7300   -1.4940    1.0890 os        1 1DE     -0.315900
      4 CAP         3.0830   -1.0050    1.1940 c3        1 1DE      0.319200
      5 OAR         3.2190    0.1270    0.3010 os        1 1DE     -0.330900
      6 CBF         1.9900    0.2880   -0.3280 ca        1 1DE      0.061100
      7 CAZ         1.6020    1.2180   -1.2740 ca        1 1DE      0.019400
      8 CL2         2.6500    2.4060   -1.8690 cl        1 1DE     -0.073400
      9 CAM         0.2720    1.1370   -1.7380 ca        1 1DE     -0.102000
     10 CBB        -0.6110    0.1690   -1.2640 ca        1 1DE     -0.091300
     11 CBG        -2.0290    0.1050   -1.7720 c3        1 1DE      0.209200
     12 CAX        -2.5260    1.4530   -2.3120 ce        1 1DE     -0.282400
     13 CAU        -2.5730    2.6760   -1.5040 c         1 1DE      0.652900
     14 OAB        -1.9920    3.7110   -1.8560 o         1 1DE     -0.523100
     15 CBE        -3.3600    2.6200   -0.2730 cc        1 1DE     -0.234700
     16 CAL        -3.4790    3.7000    0.5980 cd        1 1DE     -0.087000
     17 CAK        -4.3120    3.3960    1.7060 cd        1 1DE     -0.178000
     18 CAY        -4.7930    2.0940    1.6310 cc        1 1DE     -0.034700
     19 CL1        -5.8010    1.3860    2.7600 cl        1 1DE     -0.021400
     20 SAS        -4.2360    1.3030    0.2700 ss        1 1DE      0.163200
     21 CAV        -2.8780    1.2890   -3.6130 cf        1 1DE      0.074900
     22 OAE        -3.3810    2.2140   -4.4620 oh        1 1DE     -0.455100
     23 CAW        -2.6910   -0.1640   -4.0210 c         1 1DE      0.670700
     24 OAC        -2.9390   -0.5920   -5.1580 o         1 1DE     -0.620500
     25 NBH        -2.1920   -0.8290   -2.9080 n         1 1DE     -0.348000
     26 CBC        -2.1590   -2.2360   -2.7420 ca        1 1DE      0.009600
     27 CAN        -2.5620   -2.8300   -1.5280 ca        1 1DE     -0.140000
     28 CAJ        -1.7170   -3.0590   -3.7980 ca        1 1DE     -0.145000
     29 CAH        -1.6710   -4.4400   -3.6210 ca        1 1DE     -0.146000
     30 CAI        -2.0500   -5.0180   -2.4120 ca        1 1DE     -0.105000
     31 CBA        -2.4960   -4.2130   -1.3610 ca        1 1DE     -0.113600
     32 CAT        -2.9140   -4.8180   -0.0250 c         1 1DE      0.910200
     33 OAD        -3.2070   -4.0160    0.9070 o         1 1DE     -0.825300
     34 OAA        -2.9400   -6.0740    0.0720 o         1 1DE     -0.825300
     35 H1         -0.9050   -1.5720    0.0590 ha        1 1DE      0.199000
     36 H2          3.7840   -1.8090    0.8590 h2        1 1DE      0.069200
     37 H3          3.2570   -0.6530    2.2410 h2        1 1DE      0.069200
     38 H4         -0.0720    1.8750   -2.4850 ha        1 1DE      0.166000
     39 H5         -2.7040   -0.2220   -0.9210 h1        1 1DE      0.091700
     40 H6         -2.9880    4.6640    0.4410 ha        1 1DE      0.169000
     41 H7         -4.5370    4.1010    2.5080 ha        1 1DE      0.161000
     42 H8         -3.5460    1.7560   -5.3090 ho        1 1DE      0.446000
     43 H9         -2.9410   -2.2420   -0.6750 ha        1 1DE      0.152000
     44 H10        -1.4300   -2.6160   -4.7630 ha        1 1DE      0.133000
     45 H11        -1.3290   -5.0740   -4.4520 ha        1 1DE      0.115000
     46 H12        -2.0150   -6.1090   -2.2570 ha        1 1DE      0.156000
@<TRIPOS>BOND
     1    1    2 ar  
     2    1   10 ar  
     3    1   35 1   
     4    2    3 1   
     5    2    6 ar  
     6    3    4 1   
     7    4    5 1   
     8    4   36 1   
     9    4   37 1   
    10    5    6 1   
    11    6    7 ar  
    12    7    8 1   
    13    7    9 ar  
    14    9   10 ar  
    15    9   38 1   
    16   10   11 1   
    17   11   12 1   
    18   11   25 1   
    19   11   39 1   
    20   12   13 1   
    21   12   21 2   
    22   13   14 2   
    23   13   15 1   
    24   15   16 2   
    25   15   20 1   
    26   16   17 1   
    27   16   40 1   
    28   17   18 2   
    29   17   41 1   
    30   18   19 1   
    31   18   20 1   
    32   21   22 1   
    33   21   23 1   
    34   22   42 1   
    35   23   24 2   
    36   23   25 1   
    37   25   26 1   
    38   26   27 ar  
    39   26   28 ar  
    40   27   31 ar  
    41   27   43 1   
    42   28   29 ar  
    43   28   44 1   
    44   29   30 ar  
    45   29   45 1   
    46   30   31 ar  
    47   30   46 1   
    48   31   32 1   
    49   32   33 1   
    50   32   34 1   
@<TRIPOS>SUBSTRUCTURE
     1 1DE         1 TEMP              0 ****  ****    0 ROOT
