@<TRIPOS>MOLECULE
1DE
   46    50     1     0     0
SMALL
bcc


@<TRIPOS>ATOM
      1 CAO        -0.2000   -0.7630   -0.3060 ca        1 1DE     -0.078000
      2 CBD         1.1040   -0.6540    0.1280 ca        1 1DE      0.061100
      3 OAQ         1.7660   -1.4310    1.0750 os        1 1DE     -0.315900
      4 CAP         3.1160   -0.9280    1.1610 c3        1 1DE      0.319200
      5 OAR         3.2330    0.1910    0.2490 os        1 1DE     -0.330900
      6 CBF         1.9970    0.3320   -0.3700 ca        1 1DE      0.061100
      7 CAZ         1.5920    1.2430   -1.3270 ca        1 1DE      0.019400
      8 CL2         2.6230    2.4320   -1.9490 cl        1 1DE     -0.073400
      9 CAM         0.2580    1.1440   -1.7780 ca        1 1DE     -0.102000
     10 CBB        -0.6110    0.1750   -1.2800 ca        1 1DE     -0.091300
     11 CBG        -2.0330    0.0910   -1.7740 c3        1 1DE      0.209200
     12 CAX        -2.5480    1.4260   -2.3310 ce        1 1DE     -0.282400
     13 CAU        -2.5980    2.6610   -1.5410 c         1 1DE      0.652900
     14 OAB        -2.0290    3.6950   -1.9150 o         1 1DE     -0.523100
     15 CBE        -3.3740    2.6170   -0.3030 cc        1 1DE     -0.234700
     16 CAL        -3.4950    3.7100    0.5510 cd        1 1DE     -0.087000
     17 CAK        -4.3160    3.4170    1.6710 cd        1 1DE     -0.178000
     18 CAY        -4.7850    2.1090    1.6210 cc        1 1DE     -0.034700
     19 CL1        -5.7770    1.4100    2.7700 cl        1 1DE     -0.021400
     20 SAS        -4.2330    1.3020    0.2680 ss        1 1DE      0.163200
     21 CAV        -2.9100    1.2390   -3.6260 cf        1 1DE      0.074900
     22 OAE        -3.4290    2.1460   -4.4850 oh        1 1DE     -0.455100
     23 CAW        -2.7140   -0.2190   -4.0120 c         1 1DE      0.670700
     24 OAC        -2.9680   -0.6670   -5.1410 o         1 1DE     -0.620500
     25 NBH        -2.1990   -0.8620   -2.8940 n         1 1DE     -0.348000
     26 CBC        -2.1530   -2.2660   -2.7060 ca        1 1DE      0.009600
     27 CAN        -2.5390   -2.8440   -1.4800 ca        1 1DE     -0.140000
     28 CAJ        -1.7130   -3.1020   -3.7530 ca        1 1DE     -0.145000
     29 CAH        -1.6540   -4.4790   -3.5540 ca        1 1DE     -0.146000
     30 CAI        -2.0180   -5.0420   -2.3330 ca        1 1DE     -0.105000
     31 CBA        -2.4610   -4.2230   -1.2910 ca        1 1DE     -0.113600
     32 CAT        -2.8620   -4.8100    0.0580 c         1 1DE      0.910200
     33 OAD        -3.1530   -3.9960    0.9800 o         1 1DE     -0.825300
     34 OAA        -2.8760   -6.0650    0.1750 o         1 1DE     -0.825300
     35 H1         -0.8780   -1.5480    0.0710 ha        1 1DE      0.199000
     36 H2          3.2950   -0.5590    2.2000 h2        1 1DE      0.069200
     37 H3          3.8200   -1.7310    0.8310 h2        1 1DE      0.069200
     38 H4         -0.0990    1.8670   -2.5320 ha        1 1DE      0.166000
     39 H5         -2.6980   -0.2280   -0.9120 h1        1 1DE      0.091700
     40 H6         -3.0140    4.6760    0.3750 ha        1 1DE      0.169000
     41 H7         -4.5400    4.1320    2.4640 ha        1 1DE      0.161000
     42 H8         -3.5970    1.6730   -5.3220 ho        1 1DE      0.446000
     43 H9         -2.9150   -2.2460   -0.6320 ha        1 1DE      0.152000
     44 H10        -1.4390   -2.6720   -4.7280 ha        1 1DE      0.133000
     45 H11        -1.3150   -5.1240   -4.3780 ha        1 1DE      0.115000
     46 H12        -1.9720   -6.1290   -2.1610 ha        1 1DE      0.156000
@<TRIPOS>BOND
     1    1    2 ar  
     2    1   10 ar  
     3    1   35 1   
     4    2    3 1   
     5    2    6 ar  
     6    3    4 1   
     7    4    5 1   
     8    4   36 1   
     9    4   37 1   
    10    5    6 1   
    11    6    7 ar  
    12    7    8 1   
    13    7    9 ar  
    14    9   10 ar  
    15    9   38 1   
    16   10   11 1   
    17   11   12 1   
    18   11   25 1   
    19   11   39 1   
    20   12   13 1   
    21   12   21 2   
    22   13   14 2   
    23   13   15 1   
    24   15   16 2   
    25   15   20 1   
    26   16   17 1   
    27   16   40 1   
    28   17   18 2   
    29   17   41 1   
    30   18   19 1   
    31   18   20 1   
    32   21   22 1   
    33   21   23 1   
    34   22   42 1   
    35   23   24 2   
    36   23   25 1   
    37   25   26 1   
    38   26   27 ar  
    39   26   28 ar  
    40   27   31 ar  
    41   27   43 1   
    42   28   29 ar  
    43   28   44 1   
    44   29   30 ar  
    45   29   45 1   
    46   30   31 ar  
    47   30   46 1   
    48   31   32 1   
    49   32   33 1   
    50   32   34 1   
@<TRIPOS>SUBSTRUCTURE
     1 1DE         1 TEMP              0 ****  ****    0 ROOT
