@<TRIPOS>MOLECULE
1DE
   46    50     1     0     0
SMALL
bcc


@<TRIPOS>ATOM
      1 CAO        -0.2320   -0.7980   -0.2820 ca        1 1DE     -0.078000
      2 CBD         1.0640   -0.7190    0.1810 ca        1 1DE      0.061100
      3 OAQ         1.6910   -1.5190    1.1330 os        1 1DE     -0.315900
      4 CAP         3.0480   -1.0430    1.2530 c3        1 1DE      0.319200
      5 OAR         3.2070    0.0830    0.3570 os        1 1DE     -0.330900
      6 CBF         1.9870    0.2550   -0.2870 ca        1 1DE      0.061100
      7 CAZ         1.6200    1.1840   -1.2420 ca        1 1DE      0.019400
      8 Cl2         2.6870    2.3590   -1.8290 cl        1 1DE     -0.073400
      9 CAM         0.2950    1.1160   -1.7220 ca        1 1DE     -0.102000
     10 CBB        -0.6040    0.1590   -1.2540 ca        1 1DE     -0.091300
     11 CBG        -2.0160    0.1070   -1.7800 c3        1 1DE      0.209200
     12 CAX        -2.4930    1.4580   -2.3310 ce        1 1DE     -0.282400
     13 CAU        -2.5370    2.6850   -1.5280 c         1 1DE      0.652900
     14 OAB        -1.9400    3.7120   -1.8780 o         1 1DE     -0.523100
     15 CBE        -3.3390    2.6420   -0.3070 cc        1 1DE     -0.234700
     16 CAL        -3.4580    3.7270    0.5570 cd        1 1DE     -0.087000
     17 CAK        -4.3070    3.4360    1.6560 cd        1 1DE     -0.178000
     18 CAY        -4.8000    2.1390    1.5810 cc        1 1DE     -0.034700
     19 Cl1        -5.8290    1.4460    2.7000 cl        1 1DE     -0.021400
     20 SAS        -4.2350    1.3370    0.2300 ss        1 1DE      0.163200
     21 CAV        -2.8300    1.2930   -3.6360 cf        1 1DE      0.074900
     22 OAE        -3.3130    2.2190   -4.4950 oh        1 1DE     -0.455100
     23 CAW        -2.6540   -0.1640   -4.0350 c         1 1DE      0.670700
     24 OAC        -2.8920   -0.5940   -5.1740 o         1 1DE     -0.620500
     25 NBH        -2.1750   -0.8300   -2.9140 n         1 1DE     -0.348000
     26 CBC        -2.1590   -2.2360   -2.7420 ca        1 1DE      0.009600
     27 CAN        -2.5830   -2.8200   -1.5310 ca        1 1DE     -0.140000
     28 CAJ        -1.7130   -3.0680   -3.7890 ca        1 1DE     -0.145000
     29 CAH        -1.6840   -4.4490   -3.6060 ca        1 1DE     -0.146000
     30 CAI        -2.0840   -5.0180   -2.3990 ca        1 1DE     -0.105000
     31 CBA        -2.5340   -4.2030   -1.3570 ca        1 1DE     -0.113600
     32 CAT        -2.9750   -4.7980   -0.0240 c         1 1DE      0.910200
     33 OAD        -3.2700   -3.9890    0.9010 o         1 1DE     -0.825300
     34 OAA        -3.0150   -6.0540    0.0780 o         1 1DE     -0.825300
     35 H1         -0.9320   -1.5730    0.0710 ha        1 1DE      0.199000
     36 H2          3.2120   -0.6890    2.3000 h2        1 1DE      0.069200
     37 H3          3.7440   -1.8560    0.9300 h2        1 1DE      0.069200
     38 H4         -0.0320    1.8530   -2.4760 ha        1 1DE      0.166000
     39 H5         -2.7050   -0.2090   -0.9360 h1        1 1DE      0.091700
     40 H6         -2.9550    4.6850    0.4030 ha        1 1DE      0.169000
     41 H7         -4.5340    4.1470    2.4530 ha        1 1DE      0.161000
     42 H8         -3.4730    1.7600   -5.3410 ho        1 1DE      0.446000
     43 H9         -2.9660   -2.2250   -0.6850 ha        1 1DE      0.152000
     44 H10        -1.4100   -2.6320   -4.7530 ha        1 1DE      0.133000
     45 H11        -1.3390   -5.0900   -4.4300 ha        1 1DE      0.115000
     46 H12        -2.0630   -6.1080   -2.2400 ha        1 1DE      0.156000
@<TRIPOS>BOND
     1    1    2 ar  
     2    1   10 ar  
     3    1   35 1   
     4    2    3 1   
     5    2    6 ar  
     6    3    4 1   
     7    4    5 1   
     8    4   36 1   
     9    4   37 1   
    10    5    6 1   
    11    6    7 ar  
    12    7    8 1   
    13    7    9 ar  
    14    9   10 ar  
    15    9   38 1   
    16   10   11 1   
    17   11   12 1   
    18   11   25 1   
    19   11   39 1   
    20   12   13 1   
    21   12   21 2   
    22   13   14 2   
    23   13   15 1   
    24   15   16 2   
    25   15   20 1   
    26   16   17 1   
    27   16   40 1   
    28   17   18 2   
    29   17   41 1   
    30   18   19 1   
    31   18   20 1   
    32   21   22 1   
    33   21   23 1   
    34   22   42 1   
    35   23   24 2   
    36   23   25 1   
    37   25   26 1   
    38   26   27 ar  
    39   26   28 ar  
    40   27   31 ar  
    41   27   43 1   
    42   28   29 ar  
    43   28   44 1   
    44   29   30 ar  
    45   29   45 1   
    46   30   31 ar  
    47   30   46 1   
    48   31   32 1   
    49   32   33 1   
    50   32   34 1   
@<TRIPOS>SUBSTRUCTURE
     1 1DE         1 TEMP              0 ****  ****    0 ROOT
