@<TRIPOS>MOLECULE
1DF
   21    21     1     0     0
SMALL
bcc


@<TRIPOS>ATOM
      1 C1          0.0250   -0.0420   -0.0790 ca        1 1DF     -0.152600
      2 CO1         1.4160    0.0230   -0.0510 ca        1 1DF     -0.035000
      3 CO2        -0.6960   -0.1800    1.1090 ca        1 1DF     -0.078000
      4 CM1         2.1070   -0.0360    1.1760 ca        1 1DF     -0.215200
      5 CM2        -0.0230   -0.2420    2.3270 ca        1 1DF     -0.018900
      6 OM         -0.6490   -0.4190    3.5600 os        1 1DF     -0.361900
      7 CZ          1.3860   -0.1660    2.3850 ca        1 1DF      0.150100
      8 CC         -0.7330    0.0410   -1.4050 c         1 1DF      0.916200
      9 CV         -1.9880    0.0600    3.6150 c3        1 1DF      0.122700
     10 O1         -0.0550    0.1410   -2.4610 o         1 1DF     -0.816300
     11 O2         -1.9930    0.0070   -1.3450 o         1 1DF     -0.816300
     12 O3          2.0730   -0.2380    3.5700 oh        1 1DF     -0.471100
     13 N           3.5810    0.0460    1.1850 no        1 1DF      0.323200
     14 O11         4.1760    0.1170    2.2300 o         1 1DF     -0.231000
     15 O22         4.1770    0.0460    0.1360 o         1 1DF     -0.231000
     16 H1          1.9610    0.1220   -1.0090 ha        1 1DF      0.193000
     17 H2         -1.7970   -0.2320    1.0450 ha        1 1DF      0.174000
     18 H3         -2.0670    1.0900    3.1900 h1        1 1DF      0.040700
     19 H4         -2.2290    0.0580    4.7070 h1        1 1DF      0.040700
     20 H5         -2.6640   -0.6380    3.0620 h1        1 1DF      0.040700
     21 H7          1.4200   -0.2670    4.2870 ho        1 1DF      0.427000
@<TRIPOS>BOND
     1    1    2 ar  
     2    1    3 ar  
     3    1    8 1   
     4    2    4 ar  
     5    2   16 1   
     6    3    5 ar  
     7    3   17 1   
     8    4    7 ar  
     9    4   13 1   
    10    5    6 1   
    11    5    7 ar  
    12    6    9 1   
    13    7   12 1   
    14    8   10 1   
    15    8   11 1   
    16    9   18 1   
    17    9   19 1   
    18    9   20 1   
    19   12   21 1   
    20   13   14 1   
    21   13   15 1   
@<TRIPOS>SUBSTRUCTURE
     1 1DF         1 TEMP              0 ****  ****    0 ROOT
