@<TRIPOS>MOLECULE
1DF
   21    21     1     0     0
SMALL
bcc


@<TRIPOS>ATOM
      1 C1          1.3000    0.5900    0.0300 ca        1 1DF     -0.141600
      2 CO1         0.0640    1.2260    0.0070 ca        1 1DF     -0.047000
      3 CO2         1.3710   -0.8040    0.0900 ca        1 1DF     -0.099000
      4 CM1        -1.1240    0.4670    0.0400 ca        1 1DF     -0.247200
      5 CM2         0.2040   -1.5670    0.1290 ca        1 1DF      0.046100
      6 OM          0.1790   -2.9510    0.2260 os        1 1DF     -0.319900
      7 CZ         -1.0690   -0.9470    0.0970 ca        1 1DF      0.147100
      8 CC          2.5950    1.4050   -0.0050 c         1 1DF      0.916200
      9 CV          1.4130   -3.5950   -0.0710 c3        1 1DF      0.113700
     10 O1          2.4940    2.6600   -0.0140 o         1 1DF     -0.815300
     11 O2          3.6780    0.7580   -0.0210 o         1 1DF     -0.815300
     12 O3         -2.1480   -1.7900    0.0550 oh        1 1DF     -0.495100
     13 N          -2.4160    1.1760    0.0200 no        1 1DF      0.321200
     14 O11        -3.4400    0.5630    0.2260 o         1 1DF     -0.243500
     15 O22        -2.4490    2.3590   -0.1910 o         1 1DF     -0.243500
     16 H1          0.0380    2.3310   -0.0360 ha        1 1DF      0.191000
     17 H2          2.3740   -1.2650    0.1100 ha        1 1DF      0.175000
     18 H3          1.8140   -3.2630   -1.0600 h1        1 1DF      0.039033
     19 H4          2.1600   -3.3950    0.7360 h1        1 1DF      0.039033
     20 H5          1.1430   -4.6810   -0.0970 h1        1 1DF      0.039033
     21 H7         -2.9070   -1.3670    0.4860 ho        1 1DF      0.441000
@<TRIPOS>BOND
     1    1    2 ar  
     2    1    3 ar  
     3    1    8 1   
     4    2    4 ar  
     5    2   16 1   
     6    3    5 ar  
     7    3   17 1   
     8    4    7 ar  
     9    4   13 1   
    10    5    6 1   
    11    5    7 ar  
    12    6    9 1   
    13    7   12 1   
    14    8   10 1   
    15    8   11 1   
    16    9   18 1   
    17    9   19 1   
    18    9   20 1   
    19   12   21 1   
    20   13   14 1   
    21   13   15 1   
@<TRIPOS>SUBSTRUCTURE
     1 1DF         1 TEMP              0 ****  ****    0 ROOT
