@<TRIPOS>MOLECULE
1DF
   21    16     1     0     0
SMALL
bcc


@<TRIPOS>ATOM
      1 C1         -0.4880    0.1700   -1.6120 c1        1 1DF     -0.145000
      2 CO1         0.8930    0.1160   -1.5770 c1        1 1DF     -0.025000
      3 CO2        -1.2050    0.2190   -0.4490 c1        1 1DF     -0.033000
      4 CM1         1.5540    0.1120   -0.3660 c1        1 1DF     -0.224000
      5 CM2        -0.5400    0.2160    0.7920 c1        1 1DF      0.040000
      6 OM         -1.2880    0.3450    1.9980 o         1 1DF     -0.215000
      7 CZ          0.8230    0.1630    0.8340 c1        1 1DF      0.040000
      8 CC         -1.2290    0.2480   -2.9830 c2        1 1DF      0.366000
      9 CV         -1.9020   -0.8510    2.4140 c3        1 1DF     -0.073000
     10 O1         -1.4950   -0.8380   -3.6390 o         1 1DF     -0.549000
     11 O2         -1.5740    1.3920   -3.4640 o         1 1DF     -0.549000
     12 O3          1.5050    0.3330    2.0830 o         1 1DF     -0.265000
     13 N           2.9940    0.1000   -0.3280 no        1 1DF      0.577000
     14 O11         3.6020    0.2320    0.7920 o         1 1DF     -0.396000
     15 O22         3.7230   -0.1550   -1.4870 o         1 1DF     -0.396000
     16 H1          1.3980    0.0830   -2.4060 ha        1 1DF      0.193000
     17 H2         -2.1340    0.2550   -0.4790 ha        1 1DF      0.180000
     18 H3         -1.3890   -1.5830    2.1290 h1        1 1DF      0.074667
     19 H4         -1.9720   -0.8610    3.4300 h1        1 1DF      0.074667
     20 H5         -2.8050   -0.9110    2.0190 h1        1 1DF      0.074667
     21 H7          1.5300    1.2150    2.2980 ho        1 1DF      0.248000
@<TRIPOS>BOND
     1    1    3 1   
     2    1    8 1   
     3    2    4 1   
     4    2   16 1   
     5    3   17 1   
     6    4   13 1   
     7    5    7 1   
     8    6    9 1   
     9    8   10 1   
    10    8   11 1   
    11    9   18 1   
    12    9   19 1   
    13    9   20 1   
    14   12   21 1   
    15   13   14 1   
    16   13   15 1   
@<TRIPOS>SUBSTRUCTURE
     1 1DF         1 TEMP              0 ****  ****    0 ROOT
