@<TRIPOS>MOLECULE
1DF
   21    21     1     0     0
SMALL
bcc


@<TRIPOS>ATOM
      1 C1          0.0070   -0.0330   -0.0420 ca        1 1DF     -0.141600
      2 CO1         1.3960   -0.0140    0.0060 ca        1 1DF     -0.047000
      3 CO2        -0.7350   -0.0860    1.1400 ca        1 1DF     -0.100000
      4 CM1         2.0630   -0.0420    1.2490 ca        1 1DF     -0.247200
      5 CM2        -0.0890   -0.1210    2.3760 ca        1 1DF      0.046100
      6 OM         -0.7430   -0.2100    3.5970 os        1 1DF     -0.319900
      7 CZ          1.3250   -0.0920    2.4560 ca        1 1DF      0.147100
      8 CC         -0.7260   -0.0030   -1.3850 c         1 1DF      0.916200
      9 CV         -2.1330    0.0860    3.5550 c3        1 1DF      0.113700
     10 O1         -0.0250    0.0000   -2.4310 o         1 1DF     -0.815300
     11 O2         -1.9870    0.0170   -1.3490 o         1 1DF     -0.815300
     12 O3          1.8550   -0.0450    3.7180 oh        1 1DF     -0.495100
     13 N           3.5360   -0.0260    1.2590 no        1 1DF      0.321200
     14 O11         4.1310   -0.2280    2.2950 o         1 1DF     -0.243500
     15 O22         4.1430    0.1800    0.2410 o         1 1DF     -0.243500
     16 H1          1.9580    0.0240   -0.9460 ha        1 1DF      0.191000
     17 H2         -1.8360   -0.1030    1.0540 ha        1 1DF      0.175000
     18 H3         -2.6880   -0.7230    3.0200 h1        1 1DF      0.039033
     19 H4         -2.4280    0.1160    4.6350 h1        1 1DF      0.039033
     20 H5         -2.3220    1.0720    3.0660 h1        1 1DF      0.039033
     21 H7          2.7240   -0.4780    3.7200 ho        1 1DF      0.441000
@<TRIPOS>BOND
     1    1    2 ar  
     2    1    3 ar  
     3    1    8 1   
     4    2    4 ar  
     5    2   16 1   
     6    3    5 ar  
     7    3   17 1   
     8    4    7 ar  
     9    4   13 1   
    10    5    6 1   
    11    5    7 ar  
    12    6    9 1   
    13    7   12 1   
    14    8   10 1   
    15    8   11 1   
    16    9   18 1   
    17    9   19 1   
    18    9   20 1   
    19   12   21 1   
    20   13   14 1   
    21   13   15 1   
@<TRIPOS>SUBSTRUCTURE
     1 1DF         1 TEMP              0 ****  ****    0 ROOT
