@<TRIPOS>MOLECULE
1DH
   10    10     1     0     0
SMALL
bcc


@<TRIPOS>ATOM
      1 NAD        -0.0550   -0.0550   -0.1020 nc        1 1DH     -0.688000
      2 CAC         1.3200   -0.0350   -0.0240 cc        1 1DH      0.370200
      3 CAG         1.8520    0.0550    1.2580 cd        1 1DH     -0.140000
      4 ClG         3.4750    0.0610    1.6320 cl        1 1DH     -0.017400
      5 SAE         0.6160    0.1520    2.4050 ss        1 1DH     -0.097300
      6 CAF        -0.5820    0.0430    1.1410 cd        1 1DH      0.606300
      7 NAA        -1.9350    0.1760    1.4500 nv        1 1DH     -0.888500
      8 H1          1.8970   -0.1020   -0.9560 h4        1 1DH      0.053100
      9 H2         -2.2320   -0.4610    2.1600 hn        1 1DH      0.400800
     10 H3         -2.5410    0.1650    0.6530 hn        1 1DH      0.400800
@<TRIPOS>BOND
     1    1    2 1   
     2    1    6 2   
     3    2    3 2   
     4    2    8 1   
     5    3    4 1   
     6    3    5 1   
     7    5    6 1   
     8    6    7 1   
     9    7    9 1   
    10    7   10 1   
@<TRIPOS>SUBSTRUCTURE
     1 1DH         1 TEMP              0 ****  ****    0 ROOT
