@<TRIPOS>MOLECULE
1DH
   10     7     1     0     0
SMALL
bcc


@<TRIPOS>ATOM
      1 NAD        -0.3480   -0.0110   -1.1740 n2        1 1DH     -0.162000
      2 CAC         1.2220   -0.0110   -1.1740 c1        1 1DH     -0.095000
      3 CAG         1.6750   -0.0110    0.1960 c1        1 1DH     -0.423000
      4 CLG         3.3320   -0.1210    0.7280 cl        1 1DH      0.061000
      5 SAE         0.4440   -0.0110    1.0960 ss        1 1DH      0.487000
      6 CAF        -0.7990   -0.0110    0.1810 c1        1 1DH     -0.164000
      7 NAA        -2.1510    0.0500    0.6100 n2        1 1DH     -0.286000
      8 H1          1.7930   -0.0110   -1.9650 DU        1 1DH      0.190000
      9 H2         -2.4170    0.7030    1.1880 hn        1 1DH      0.196000
     10 H3         -2.7520   -0.5680    0.3120 hn        1 1DH      0.196000
@<TRIPOS>BOND
     1    1    2 1   
     2    1    6 1   
     3    2    3 1   
     4    3    5 1   
     5    5    6 1   
     6    7    9 1   
     7    7   10 1   
@<TRIPOS>SUBSTRUCTURE
     1 1DH         1 TEMP              0 ****  ****    0 ROOT
