@<TRIPOS>MOLECULE
1DH
   11    11     1     0     0
SMALL
bcc


@<TRIPOS>ATOM
      1 NAD        -0.0330   -0.0730   -0.0840 nc        1 1DH     -0.560000
      2 CAC         1.3230   -0.0610   -0.0320 cc        1 1DH      0.361200
      3 CAG         1.8730    0.0390    1.2690 cd        1 1DH     -0.095000
      4 CLG         3.4930    0.0740    1.5970 cl        1 1DH      0.091600
      5 SAE         0.6580    0.1160    2.4070 ss        1 1DH      0.172700
      6 CAF        -0.5260    0.0170    1.1890 cd        1 1DH      0.274300
      7 NAA        -1.9580    0.0230    1.4190 n4        1 1DH     -0.766300
      8 H1          1.9030   -0.1260   -0.9670 h4        1 1DH      0.100100
      9 H2         -2.3940    0.7920    0.8870 hn        1 1DH      0.474133
     10 H3         -2.3650   -0.8680    1.0980 hn        1 1DH      0.474133
     11 HAA3       -2.1470    0.1470    2.4180 hn        1 1DH      0.474133
@<TRIPOS>BOND
     1    1    2 1   
     2    1    6 2   
     3    2    3 2   
     4    2    8 1   
     5    3    4 1   
     6    3    5 1   
     7    5    6 1   
     8    6    7 1   
     9    7    9 1   
    10    7   10 1   
    11    7   11 1   
@<TRIPOS>SUBSTRUCTURE
     1 1DH         1 TEMP              0 ****  ****    0 ROOT
