@<TRIPOS>MOLECULE
1DH
   10    10     1     0     0
SMALL
bcc


@<TRIPOS>ATOM
      1 NAD        -0.0520   -0.0560   -0.1020 nc        1 1DH     -0.688000
      2 CAC         1.3220   -0.0630   -0.0200 cc        1 1DH      0.370200
      3 CAG         1.8510    0.0240    1.2630 cd        1 1DH     -0.140000
      4 CLG         3.4730    0.0010    1.6430 cl        1 1DH     -0.017400
      5 SAE         0.6140    0.1520    2.4060 ss        1 1DH     -0.097300
      6 CAF        -0.5810    0.0590    1.1390 cd        1 1DH      0.606300
      7 NAA        -1.9320    0.2200    1.4420 nh        1 1DH     -0.888500
      8 H1          1.9010   -0.1460   -0.9490 h4        1 1DH      0.053100
      9 H2         -2.5360    0.2160    0.6430 hn        1 1DH      0.400800
     10 H3         -2.2450   -0.4070    2.1540 hn        1 1DH      0.400800
@<TRIPOS>BOND
     1    1    2 1   
     2    1    6 2   
     3    2    3 2   
     4    2    8 1   
     5    3    4 1   
     6    3    5 1   
     7    5    6 1   
     8    6    7 1   
     9    7    9 1   
    10    7   10 1   
@<TRIPOS>SUBSTRUCTURE
     1 1DH         1 TEMP              0 ****  ****    0 ROOT
