@<TRIPOS>MOLECULE
1DH
   10    10     1     0     0
SMALL
bcc


@<TRIPOS>ATOM
      1 NAD         1.2120   -1.3910    0.0600 nc        1 1DH     -0.688000
      2 CAC        -0.1650   -1.3820    0.0540 cc        1 1DH      0.370200
      3 CAG        -0.7610   -0.1290   -0.0400 cd        1 1DH     -0.140000
      4 CLG        -2.4010    0.1650   -0.0330 cl        1 1DH     -0.017400
      5 SAE         0.4150    1.0780   -0.1580 ss        1 1DH     -0.097300
      6 CAF         1.6750   -0.1240   -0.0520 cd        1 1DH      0.606300
      7 NAA         3.0100    0.2500   -0.2010 nh        1 1DH     -0.888500
      8 H1         -0.6940   -2.3400    0.1330 h4        1 1DH      0.053100
      9 H2          3.2780    0.9790    0.4280 hn        1 1DH      0.400800
     10 H3          3.6550   -0.5150   -0.1910 hn        1 1DH      0.400800
@<TRIPOS>BOND
     1    1    2 1   
     2    1    6 2   
     3    2    3 2   
     4    2    8 1   
     5    3    4 1   
     6    3    5 1   
     7    5    6 1   
     8    6    7 1   
     9    7    9 1   
    10    7   10 1   
@<TRIPOS>SUBSTRUCTURE
     1 1DH         1 TEMP              0 ****  ****    0 ROOT
