@<TRIPOS>MOLECULE
1DI
   38    36     1     0     0
SMALL
bcc


@<TRIPOS>ATOM
      1 N1         -1.8010   -0.1790    1.3370 n3        1 1DI     -0.335000
      2 C2         -0.4140   -0.1760    1.3230 c3        1 1DI     -0.039000
      3 C3          0.1000   -0.2060    2.7390 c3        1 1DI     -0.167000
      4 C4          0.8720   -1.5000    2.9760 c2        1 1DI     -0.068000
      5 C5          0.1790   -2.7010    3.1680 c1        1 1DI     -0.120000
      6 C6          0.8730   -3.8570    3.5040 c1        1 1DI     -0.121000
      7 C7          2.2660   -3.8220    3.6510 c1        1 1DI     -0.056000
      8 CL8         3.1390   -5.2780    4.0610 cl        1 1DI     -0.002000
      9 C9          2.9560   -2.6260    3.4600 c2        1 1DI     -0.119000
     10 C10         2.2600   -1.4640    3.1220 c2        1 1DI     -0.052000
     11 CL11        3.1290    0.0750    2.9550 cl        1 1DI     -0.005000
     12 C12         0.0990    1.1220    0.6080 c2        1 1DI      0.302000
     13 O13         0.7710    1.9280    1.2200 o         1 1DI     -0.368000
     14 N14        -0.2150    1.3520   -0.7730 n         1 1DI     -0.307000
     15 C15         0.1990    2.4950   -1.5640 c3        1 1DI      0.001000
     16 C16        -0.4540    2.3730   -2.9370 c2        1 1DI     -0.095000
     17 C17        -0.3240    3.1260   -4.0920 c2        1 1DI     -0.107000
     18 C18        -0.9290    2.7030   -5.2680 c1        1 1DI     -0.126000
     19 C19        -1.6560    1.5380   -5.2860 c1        1 1DI     -0.117000
     20 C20        -1.7870    0.7810   -4.1280 c1        1 1DI     -0.117000
     21 C21        -1.1870    1.2000   -2.9570 c1        1 1DI     -0.099000
     22 C22        -0.9880    0.4950   -1.6110 c3        1 1DI      0.002000
     23 HN1        -2.1010    0.0530    2.1840 hn        1 1DI      0.156000
     24 HN1A       -2.1080   -1.0200    1.1220 hn        1 1DI      0.156000
     25 H2         -0.0880   -0.9720    0.8350 h1        1 1DI      0.119000
     26 H3         -0.6550   -0.1610    3.3600 hc        1 1DI      0.118500
     27 H3A         0.6940    0.5630    2.8890 hc        1 1DI      0.118500
     28 H5         -0.8220   -2.7270    3.0630 ha        1 1DI      0.144000
     29 H6          0.3880   -4.6970    3.6380 ha        1 1DI      0.153000
     30 H9          3.9400   -2.6010    3.5640 ha        1 1DI      0.163000
     31 H15         1.1740    2.4790   -1.6680 h1        1 1DI      0.113000
     32 H17         0.1940    3.9570   -4.0800 ha        1 1DI      0.139000
     33 H18        -0.8370    3.2390   -6.0910 ha        1 1DI      0.134000
     34 H19        -2.0800    1.2410   -6.1110 ha        1 1DI      0.136000
     35 H20        -2.3030   -0.0460   -4.1420 ha        1 1DI      0.136000
     36 H22        -0.5200   -0.3360   -1.7450 h1        1 1DI      0.108000
     37 H151       -0.1160    3.3250   -1.1270 h1        1 1DI      0.113000
     38 H16        -1.8480    0.3240   -1.2010 h1        1 1DI      0.108000
@<TRIPOS>BOND
     1    1    2 1   
     2    1   23 1   
     3    1   24 1   
     4    2    3 1   
     5    2   12 1   
     6    2   25 1   
     7    3    4 1   
     8    3   26 1   
     9    3   27 1   
    10    4    5 1   
    11    4   10 1   
    12    5   28 1   
    13    6    7 1   
    14    6   29 1   
    15    7    9 1   
    16    9   10 1   
    17    9   30 1   
    18   10   11 1   
    19   12   13 1   
    20   12   14 1   
    21   14   15 1   
    22   14   22 1   
    23   15   16 1   
    24   15   31 1   
    25   15   37 1   
    26   16   17 1   
    27   16   21 1   
    28   17   18 1   
    29   17   32 1   
    30   18   33 1   
    31   19   20 1   
    32   19   34 1   
    33   20   35 1   
    34   21   22 1   
    35   22   36 1   
    36   22   38 1   
@<TRIPOS>SUBSTRUCTURE
     1 1DI         1 TEMP              0 ****  ****    0 ROOT
