@<TRIPOS>MOLECULE
1DI
   39    41     1     0     0
SMALL
bcc


@<TRIPOS>ATOM
      1 N1         -0.1560    0.1620   -0.2250 n4        1 1DI     -0.858600
      2 C2          1.3350    0.1090   -0.0630 c3        1 1DI      0.047500
      3 C3          1.7450    0.1140    1.4170 c3        1 1DI     -0.055100
      4 C4          1.5210   -1.2070    2.0640 ca        1 1DI     -0.134300
      5 C5          2.5840   -2.1190    2.1260 ca        1 1DI     -0.098000
      6 C6          2.4460   -3.3460    2.7690 ca        1 1DI     -0.105000
      7 C7          1.2270   -3.6810    3.3710 ca        1 1DI      0.041400
      8 CL8         1.0500   -5.1620    4.1610 cl        1 1DI     -0.022400
      9 C9          0.1500   -2.7870    3.3250 ca        1 1DI     -0.101000
     10 C10         0.3060   -1.5650    2.6680 ca        1 1DI      0.005400
     11 CL11       -1.0390   -0.5060    2.6300 cl        1 1DI     -0.085400
     12 C12         1.9620    1.3480   -0.7620 c         1 1DI      0.643100
     13 O13         1.2560    2.3760   -0.8710 o         1 1DI     -0.610100
     14 N14         3.2300    1.2640   -1.2270 n         1 1DI     -0.440800
     15 C15         3.9150    2.4220   -1.8300 c3        1 1DI      0.143300
     16 C16         5.2980    1.9190   -2.1400 ca        1 1DI     -0.117300
     17 C17         6.3670    2.5850   -2.7080 ca        1 1DI     -0.092500
     18 C18         7.5650    1.8760   -2.8930 ca        1 1DI     -0.110000
     19 C19         7.6740    0.5410   -2.5160 ca        1 1DI     -0.110000
     20 C20         6.5880   -0.1370   -1.9390 ca        1 1DI     -0.092500
     21 C21         5.4100    0.5590   -1.7560 ca        1 1DI     -0.117300
     22 C22         4.1040    0.0910   -1.1720 c3        1 1DI      0.143300
     23 HN1        -0.6180   -0.2200    0.6290 hn        1 1DI      0.470133
     24 HN1A       -0.4430    1.1490   -0.3480 hn        1 1DI      0.470133
     25 H2          1.6930   -0.8470   -0.5490 hx        1 1DI      0.118700
     26 H3          2.8420    0.3690    1.4620 hc        1 1DI      0.104200
     27 H3A         1.2100    0.9320    1.9740 hc        1 1DI      0.104200
     28 H5          3.5530   -1.8550    1.6730 ha        1 1DI      0.148000
     29 H6          3.2980   -4.0450    2.8120 ha        1 1DI      0.174000
     30 H9         -0.8070   -3.0440    3.8100 ha        1 1DI      0.183000
     31 H15         3.9270    3.2780   -1.1000 h1        1 1DI      0.071200
     32 H17         6.2910    3.6400   -3.0090 ha        1 1DI      0.148000
     33 H18         8.4290    2.3900   -3.3440 ha        1 1DI      0.152000
     34 H19         8.6230    0.0030   -2.6710 ha        1 1DI      0.152000
     35 H20         6.6840   -1.1920   -1.6470 ha        1 1DI      0.148000
     36 H22         3.6650   -0.7480   -1.7820 h1        1 1DI      0.071200
     37 H151        3.3640    2.7440   -2.7560 h1        1 1DI      0.071200
     38 H16         4.2320   -0.2580   -0.1100 h1        1 1DI      0.071200
     39 H13        -0.4420   -0.3690   -1.0480 hn        1 1DI      0.470133
@<TRIPOS>BOND
     1    1    2 1   
     2    1   23 1   
     3    1   24 1   
     4    1   39 1   
     5    2    3 1   
     6    2   12 1   
     7    2   25 1   
     8    3    4 1   
     9    3   26 1   
    10    3   27 1   
    11    4    5 ar  
    12    4   10 ar  
    13    5    6 ar  
    14    5   28 1   
    15    6    7 ar  
    16    6   29 1   
    17    7    8 1   
    18    7    9 ar  
    19    9   10 ar  
    20    9   30 1   
    21   10   11 1   
    22   12   13 2   
    23   12   14 1   
    24   14   15 1   
    25   14   22 1   
    26   15   16 1   
    27   15   31 1   
    28   15   37 1   
    29   16   17 ar  
    30   16   21 ar  
    31   17   18 ar  
    32   17   32 1   
    33   18   19 ar  
    34   18   33 1   
    35   19   20 ar  
    36   19   34 1   
    37   20   21 ar  
    38   20   35 1   
    39   21   22 1   
    40   22   36 1   
    41   22   38 1   
@<TRIPOS>SUBSTRUCTURE
     1 1DI         1 TEMP              0 ****  ****    0 ROOT
