@<TRIPOS>MOLECULE
1DI
   39    41     1     0     0
SMALL
bcc


@<TRIPOS>ATOM
      1 N1         -0.1560    0.1470   -0.2410 nz        1 1DI     -0.858600
      2 C2          1.3340    0.1010   -0.0720 c3        1 1DI      0.047500
      3 C3          1.7380    0.1140    1.4100 c3        1 1DI     -0.055100
      4 C4          1.5160   -1.2050    2.0610 ca        1 1DI     -0.134300
      5 C5          2.5820   -2.1130    2.1310 ca        1 1DI     -0.098000
      6 C6          2.4460   -3.3370    2.7790 ca        1 1DI     -0.105000
      7 C7          1.2260   -3.6750    3.3780 ca        1 1DI      0.041400
      8 Cl8         1.0520   -5.1530    4.1730 cl        1 1DI     -0.022400
      9 C9          0.1470   -2.7840    3.3240 ca        1 1DI     -0.101000
     10 C10         0.3000   -1.5650    2.6620 ca        1 1DI      0.005400
     11 Cl11       -1.0490   -0.5110    2.6140 cl        1 1DI     -0.085400
     12 C12         1.9590    1.3390   -0.7740 c         1 1DI      0.643100
     13 O13         1.2500    2.3640   -0.8910 o         1 1DI     -0.610100
     14 N14         3.2290    1.2590   -1.2340 n         1 1DI     -0.440800
     15 C15         3.9130    2.4160   -1.8390 c3        1 1DI      0.143300
     16 C16         5.2990    1.9180   -2.1400 ca        1 1DI     -0.117300
     17 C17         6.3680    2.5860   -2.7060 ca        1 1DI     -0.092500
     18 C18         7.5700    1.8810   -2.8820 ca        1 1DI     -0.110000
     19 C19         7.6830    0.5480   -2.4990 ca        1 1DI     -0.110000
     20 C20         6.5970   -0.1320   -1.9240 ca        1 1DI     -0.092500
     21 C21         5.4150    0.5600   -1.7500 ca        1 1DI     -0.117300
     22 C22         4.1080    0.0890   -1.1690 c3        1 1DI      0.143300
     23 HN1        -0.4470    1.1330   -0.3700 hn        1 1DI      0.470133
     24 HN1A       -0.4370   -0.3890   -1.0620 hn        1 1DI      0.470133
     25 H2          1.6980   -0.8560   -0.5530 hx        1 1DI      0.118700
     26 H3          2.8340    0.3730    1.4580 hc        1 1DI      0.104200
     27 H3A         1.1980    0.9320    1.9610 hc        1 1DI      0.104200
     28 H5          3.5520   -1.8470    1.6800 ha        1 1DI      0.148000
     29 H6          3.3000   -4.0340    2.8280 ha        1 1DI      0.174000
     30 H9         -0.8120   -3.0430    3.8060 ha        1 1DI      0.183000
     31 H15         3.3650    2.7320   -2.7690 h1        1 1DI      0.071200
     32 H17         6.2890    3.6390   -3.0120 ha        1 1DI      0.148000
     33 H18         8.4340    2.3970   -3.3320 ha        1 1DI      0.152000
     34 H19         8.6340    0.0130   -2.6470 ha        1 1DI      0.152000
     35 H20         6.6960   -1.1850   -1.6260 ha        1 1DI      0.148000
     36 H22         3.6760   -0.7540   -1.7780 h1        1 1DI      0.071200
     37 H151        3.9180    3.2760   -1.1130 h1        1 1DI      0.071200
     38 H16         4.2330   -0.2540   -0.1040 h1        1 1DI      0.071200
     39 H13        -0.6200   -0.2320    0.6140 hn        1 1DI      0.470133
@<TRIPOS>BOND
     1    1    2 1   
     2    1   23 1   
     3    1   24 1   
     4    1   39 1   
     5    2    3 1   
     6    2   12 1   
     7    2   25 1   
     8    3    4 1   
     9    3   26 1   
    10    3   27 1   
    11    4    5 ar  
    12    4   10 ar  
    13    5    6 ar  
    14    5   28 1   
    15    6    7 ar  
    16    6   29 1   
    17    7    8 1   
    18    7    9 ar  
    19    9   10 ar  
    20    9   30 1   
    21   10   11 1   
    22   12   13 2   
    23   12   14 1   
    24   14   15 1   
    25   14   22 1   
    26   15   16 1   
    27   15   31 1   
    28   15   37 1   
    29   16   17 ar  
    30   16   21 ar  
    31   17   18 ar  
    32   17   32 1   
    33   18   19 ar  
    34   18   33 1   
    35   19   20 ar  
    36   19   34 1   
    37   20   21 ar  
    38   20   35 1   
    39   21   22 1   
    40   22   36 1   
    41   22   38 1   
@<TRIPOS>SUBSTRUCTURE
     1 1DI         1 TEMP              0 ****  ****    0 ROOT
