@<TRIPOS>MOLECULE
1DI
   38    40     1     0     0
SMALL
bcc


@<TRIPOS>ATOM
      1 N1          0.7310    1.9090    1.5020 n3        1 1DI     -0.884800
      2 C2         -0.0480    1.0340    0.6570 c3        1 1DI      0.122500
      3 C3          0.6460    0.7110   -0.6800 c3        1 1DI     -0.038100
      4 C4          1.9590    0.0430   -0.4750 ca        1 1DI     -0.058300
      5 C5          1.9870   -1.3410   -0.2500 ca        1 1DI     -0.115000
      6 C6          3.1860   -2.0190   -0.0610 ca        1 1DI     -0.122000
      7 C7          4.3900   -1.3070   -0.0960 ca        1 1DI      0.023400
      8 CL8         5.8620   -2.1240    0.1320 cl        1 1DI     -0.085400
      9 C9          4.3920    0.0710   -0.3180 ca        1 1DI     -0.119000
     10 C10         3.1760    0.7390   -0.5060 ca        1 1DI      0.042400
     11 CL11        3.2310    2.4190   -0.7750 cl        1 1DI     -0.084400
     12 C12        -1.4470    1.6020    0.3100 c         1 1DI      0.610100
     13 O13        -1.6500    2.8330    0.3180 o         1 1DI     -0.610100
     14 N14        -2.4520    0.7380   -0.0780 n         1 1DI     -0.468800
     15 C15        -3.8100    1.2310   -0.3330 c3        1 1DI      0.135300
     16 C16        -4.6990    0.0240   -0.2080 ca        1 1DI     -0.105300
     17 C17        -6.0680   -0.0910   -0.3600 ca        1 1DI     -0.105500
     18 C18        -6.6520   -1.3560   -0.1910 ca        1 1DI     -0.125500
     19 C19        -5.8750   -2.4670    0.1200 ca        1 1DI     -0.125500
     20 C20        -4.4840   -2.3540    0.2750 ca        1 1DI     -0.105500
     21 C21        -3.9080   -1.1090    0.1100 ca        1 1DI     -0.105300
     22 C22        -2.4640   -0.6930    0.2190 c3        1 1DI      0.135300
     23 HN1         1.0520    2.7080    0.9870 hn        1 1DI      0.363800
     24 HN1A        0.1780    2.2260    2.2750 hn        1 1DI      0.363800
     25 H2         -0.1790    0.0690    1.2340 h1        1 1DI      0.070700
     26 H3         -0.0270    0.0270   -1.2660 hc        1 1DI      0.069700
     27 H3A         0.7650    1.6530   -1.2790 hc        1 1DI      0.069700
     28 H5          1.0380   -1.8990   -0.2230 ha        1 1DI      0.135000
     29 H6          3.1870   -3.1060    0.1150 ha        1 1DI      0.150000
     30 H9          5.3410    0.6300   -0.3420 ha        1 1DI      0.162000
     31 H15        -4.0870    2.0360    0.4040 h1        1 1DI      0.063950
     32 H17        -6.6890    0.7820   -0.6060 ha        1 1DI      0.139000
     33 H18        -7.7410   -1.4650   -0.3080 ha        1 1DI      0.135500
     34 H19        -6.3520   -3.4500    0.2480 ha        1 1DI      0.135500
     35 H20        -3.8780   -3.2370    0.5210 ha        1 1DI      0.139000
     36 H22        -1.8240   -1.2370   -0.5300 h1        1 1DI      0.063950
     37 H151       -3.8520    1.6690   -1.3680 h1        1 1DI      0.063950
     38 H16        -2.0680   -0.9060    1.2510 h1        1 1DI      0.063950
@<TRIPOS>BOND
     1    1    2 1   
     2    1   23 1   
     3    1   24 1   
     4    2    3 1   
     5    2   12 1   
     6    2   25 1   
     7    3    4 1   
     8    3   26 1   
     9    3   27 1   
    10    4    5 ar  
    11    4   10 ar  
    12    5    6 ar  
    13    5   28 1   
    14    6    7 ar  
    15    6   29 1   
    16    7    8 1   
    17    7    9 ar  
    18    9   10 ar  
    19    9   30 1   
    20   10   11 1   
    21   12   13 2   
    22   12   14 1   
    23   14   15 1   
    24   14   22 1   
    25   15   16 1   
    26   15   31 1   
    27   15   37 1   
    28   16   17 ar  
    29   16   21 ar  
    30   17   18 ar  
    31   17   32 1   
    32   18   19 ar  
    33   18   33 1   
    34   19   20 ar  
    35   19   34 1   
    36   20   21 ar  
    37   20   35 1   
    38   21   22 1   
    39   22   36 1   
    40   22   38 1   
@<TRIPOS>SUBSTRUCTURE
     1 1DI         1 TEMP              0 ****  ****    0 ROOT
