@<TRIPOS>MOLECULE
1DI
   39    41     1     0     0
SMALL
bcc


@<TRIPOS>ATOM
      1 N1          0.0610   -0.1730   -0.2190 n4        1 1DI     -0.833600
      2 C2          1.5540   -0.1210   -0.0760 c3        1 1DI      0.045500
      3 C3          1.9790   -0.1200    1.3980 c3        1 1DI     -0.055100
      4 C4          1.5000   -1.3250    2.1260 ca        1 1DI     -0.150300
      5 C5          2.3120   -2.4650    2.1700 ca        1 1DI     -0.097000
      6 C6          1.9310   -3.5940    2.8900 ca        1 1DI     -0.109000
      7 C7          0.7190   -3.5930    3.5910 ca        1 1DI      0.042400
      8 CL8         0.2510   -4.9520    4.4750 cl        1 1DI     -0.022400
      9 C9         -0.1070   -2.4630    3.5660 ca        1 1DI     -0.107000
     10 C10         0.2840   -1.3420    2.8310 ca        1 1DI     -0.000600
     11 CL11       -0.7500    0.0150    2.8270 cl        1 1DI     -0.088400
     12 C12         2.0670    1.1890   -0.7360 c         1 1DI      0.643100
     13 O13         1.2920    2.1710   -0.7560 o         1 1DI     -0.609100
     14 N14         3.3120    1.2120   -1.2660 n         1 1DI     -0.440800
     15 C15         3.8930    2.4430   -1.8310 c3        1 1DI      0.142300
     16 C16         5.2980    2.0600   -2.2030 ca        1 1DI     -0.117300
     17 C17         6.2970    2.8280   -2.7710 ca        1 1DI     -0.092500
     18 C18         7.5380    2.2190   -3.0220 ca        1 1DI     -0.110000
     19 C19         7.7560    0.8810   -2.7080 ca        1 1DI     -0.110000
     20 C20         6.7430    0.0990   -2.1310 ca        1 1DI     -0.092500
     21 C21         5.5220    0.6970   -1.8840 ca        1 1DI     -0.117300
     22 C22         4.2740    0.1080   -1.2820 c3        1 1DI      0.142300
     23 HN1        -0.3260    0.7500    0.0440 hn        1 1DI      0.470800
     24 HN1A       -0.1920   -0.3680   -1.1900 hn        1 1DI      0.470800
     25 H2          1.9690   -1.0350   -0.5960 hx        1 1DI      0.116700
     26 H3          1.6210    0.8220    1.9000 hc        1 1DI      0.106200
     27 H3A         3.1040   -0.0870    1.4170 hc        1 1DI      0.106200
     28 H5          3.2790   -2.4650    1.6410 ha        1 1DI      0.148000
     29 H6          2.5890   -4.4790    2.9180 ha        1 1DI      0.174000
     30 H9         -1.0550   -2.4550    4.1330 ha        1 1DI      0.183000
     31 H15         3.8650    3.2650   -1.0630 h1        1 1DI      0.071200
     32 H17         6.1340    3.8860   -3.0220 ha        1 1DI      0.148500
     33 H18         8.3460    2.8150   -3.4740 ha        1 1DI      0.152500
     34 H19         8.7370    0.4230   -2.9130 ha        1 1DI      0.152500
     35 H20         6.9260   -0.9570   -1.8880 ha        1 1DI      0.148500
     36 H22         4.4650   -0.2690   -0.2390 h1        1 1DI      0.071200
     37 H151        3.2910    2.7640   -2.7260 h1        1 1DI      0.071200
     38 H16         3.8810   -0.7380   -1.9130 h1        1 1DI      0.071200
     39 H13        -0.3230   -0.8950    0.4010 hn        1 1DI      0.470800
@<TRIPOS>BOND
     1    1    2 1   
     2    1   23 1   
     3    1   24 1   
     4    1   39 1   
     5    2    3 1   
     6    2   12 1   
     7    2   25 1   
     8    3    4 1   
     9    3   26 1   
    10    3   27 1   
    11    4    5 ar  
    12    4   10 ar  
    13    5    6 ar  
    14    5   28 1   
    15    6    7 ar  
    16    6   29 1   
    17    7    8 1   
    18    7    9 ar  
    19    9   10 ar  
    20    9   30 1   
    21   10   11 1   
    22   12   13 2   
    23   12   14 1   
    24   14   15 1   
    25   14   22 1   
    26   15   16 1   
    27   15   31 1   
    28   15   37 1   
    29   16   17 ar  
    30   16   21 ar  
    31   17   18 ar  
    32   17   32 1   
    33   18   19 ar  
    34   18   33 1   
    35   19   20 ar  
    36   19   34 1   
    37   20   21 ar  
    38   20   35 1   
    39   21   22 1   
    40   22   36 1   
    41   22   38 1   
@<TRIPOS>SUBSTRUCTURE
     1 1DI         1 TEMP              0 ****  ****    0 ROOT
