@<TRIPOS>MOLECULE
1DJ
   18    13     1     0     0
SMALL
bcc


@<TRIPOS>ATOM
      1 CAG         0.5570    0.2230   -1.3130 c1        1 1DJ     -0.119000
      2 CAE         1.9430    0.2400   -1.3180 c1        1 1DJ     -0.121500
      3 CAD         2.6390    0.2980   -0.1210 c1        1 1DJ     -0.121500
      4 CAF         1.9500    0.3370    1.0810 c1        1 1DJ     -0.121500
      5 CAH         0.5640    0.3200    1.0860 c1        1 1DJ     -0.121500
      6 CAI        -0.1330    0.2620   -0.1120 c1        1 1DJ     -0.077000
      7 CAJ        -1.6440    0.2640   -0.1070 c2        1 1DJ      0.185000
      8 OAB        -2.1100    1.0840    0.9380 oh        1 1DJ     -0.317000
      9 CAC        -2.1500   -1.1460    0.0960 c1        1 1DJ     -0.212000
     10 CAA        -2.5480   -2.2570    0.2560 c1        1 1DJ     -0.177000
     11 H1          0.0660    0.1830   -2.1560 ha        1 1DJ      0.131000
     12 H2          2.4280    0.2130   -2.1640 ha        1 1DJ      0.136500
     13 H3          3.6150    0.3100   -0.1240 ha        1 1DJ      0.136500
     14 H4          2.4400    0.3780    1.9240 ha        1 1DJ      0.136500
     15 H5          0.0780    0.3480    1.9320 ha        1 1DJ      0.136500
     16 H6         -1.9720    0.6080   -0.9620 h4        1 1DJ      0.095000
     17 H7         -2.8500    1.5030    0.6790 ho        1 1DJ      0.208000
     18 H8         -2.8740   -3.1680    0.3870 DU        1 1DJ      0.224000
@<TRIPOS>BOND
     1    1    6 1   
     2    1   11 1   
     3    2    3 1   
     4    2   12 1   
     5    3   13 1   
     6    4    5 1   
     7    4   14 1   
     8    5   15 1   
     9    7    8 1   
    10    7    9 1   
    11    7   16 1   
    12    8   17 1   
    13    9   10 1   
@<TRIPOS>SUBSTRUCTURE
     1 1DJ         1 TEMP              0 ****  ****    0 ROOT
