@<TRIPOS>MOLECULE
1DJ
   18    18     1     0     0
SMALL
bcc


@<TRIPOS>ATOM
      1 CAG        -0.0030   -0.1650    0.0380 ca        1 1DJ     -0.106000
      2 CAE         1.3900   -0.1850    0.0110 ca        1 1DJ     -0.134500
      3 CAD         2.1160   -0.0040    1.1890 ca        1 1DJ     -0.124000
      4 CAF         1.4460    0.1970    2.3950 ca        1 1DJ     -0.134500
      5 CAH         0.0510    0.2140    2.4280 ca        1 1DJ     -0.106000
      6 CAI        -0.6770    0.0320    1.2490 ca        1 1DJ     -0.084300
      7 CAJ        -2.1820    0.0490    1.2540 c3        1 1DJ      0.276500
      8 OAB        -2.6100    0.8210    2.3770 oh        1 1DJ     -0.589800
      9 CAC        -2.7290   -1.2940    1.2860 c1        1 1DJ     -0.185100
     10 CAA        -3.1760   -2.4030    1.2950 c1        1 1DJ     -0.119500
     11 H1         -0.5740   -0.3050   -0.8920 ha        1 1DJ      0.141000
     12 H2          1.9160   -0.3420   -0.9410 ha        1 1DJ      0.132000
     13 H3          3.2150   -0.0190    1.1650 ha        1 1DJ      0.131000
     14 H4          2.0160    0.3420    3.3250 ha        1 1DJ      0.132000
     15 H5         -0.4840    0.3790    3.3770 ha        1 1DJ      0.141000
     16 H6         -2.5510    0.5630    0.3120 h1        1 1DJ      0.055700
     17 H7         -3.5660    0.7180    2.4400 ho        1 1DJ      0.409000
     18 H8         -3.5730   -3.3860    1.3030 ha        1 1DJ      0.166500
@<TRIPOS>BOND
     1    1    2 ar  
     2    1    6 ar  
     3    1   11 1   
     4    2    3 ar  
     5    2   12 1   
     6    3    4 ar  
     7    3   13 1   
     8    4    5 ar  
     9    4   14 1   
    10    5    6 ar  
    11    5   15 1   
    12    6    7 1   
    13    7    8 1   
    14    7    9 1   
    15    7   16 1   
    16    8   17 1   
    17    9   10 3   
    18   10   18 1   
@<TRIPOS>SUBSTRUCTURE
     1 1DJ         1 TEMP              0 ****  ****    0 ROOT
