@<TRIPOS>MOLECULE
1DJ
   18    18     1     0     0
SMALL
bcc


@<TRIPOS>ATOM
      1 CAG        -0.9660   -0.8880    0.9580 ca        1 1DJ     -0.112500
      2 CAE        -2.3200   -0.8840    0.6230 ca        1 1DJ     -0.129000
      3 CAD        -2.7900   -0.0360   -0.3800 ca        1 1DJ     -0.122000
      4 CAF        -1.9040    0.8070   -1.0500 ca        1 1DJ     -0.129000
      5 CAH        -0.5500    0.8030   -0.7190 ca        1 1DJ     -0.112500
      6 CAI        -0.0750   -0.0440    0.2870 ca        1 1DJ     -0.114300
      7 CAJ         1.3850   -0.0480    0.6620 c3        1 1DJ      0.271500
      8 OAB         1.8030    1.2220    1.1440 oh        1 1DJ     -0.580800
      9 CAC         2.2040   -0.4970   -0.4470 c1        1 1DJ     -0.179100
     10 CAA         2.8880   -0.8910   -1.3460 c1        1 1DJ     -0.123500
     11 H1         -0.6000   -1.5560    1.7520 ha        1 1DJ      0.132500
     12 H2         -3.0160   -1.5500    1.1530 ha        1 1DJ      0.134000
     13 H3         -3.8580   -0.0330   -0.6420 ha        1 1DJ      0.133000
     14 H4         -2.2730    1.4760   -1.8420 ha        1 1DJ      0.134000
     15 H5          0.1490    1.4620   -1.2550 ha        1 1DJ      0.132500
     16 H6          1.5590   -0.7310    1.5500 h1        1 1DJ      0.095700
     17 H7          1.6410    1.8700    0.4470 ho        1 1DJ      0.404000
     18 H8          3.4950   -1.2410   -2.1420 ha        1 1DJ      0.165500
@<TRIPOS>BOND
     1    1    2 ar  
     2    1    6 ar  
     3    1   11 1   
     4    2    3 ar  
     5    2   12 1   
     6    3    4 ar  
     7    3   13 1   
     8    4    5 ar  
     9    4   14 1   
    10    5    6 ar  
    11    5   15 1   
    12    6    7 1   
    13    7    8 1   
    14    7    9 1   
    15    7   16 1   
    16    8   17 1   
    17    9   10 3   
    18   10   18 1   
@<TRIPOS>SUBSTRUCTURE
     1 1DJ         1 TEMP              0 ****  ****    0 ROOT
