@<TRIPOS>MOLECULE
1DJ
   18    18     1     0     0
SMALL
bcc


@<TRIPOS>ATOM
      1 CAG        -0.0030   -0.1620    0.0450 ca        1 1DJ     -0.106000
      2 CAE         1.3900   -0.1840    0.0220 ca        1 1DJ     -0.134500
      3 CAD         2.1130   -0.0090    1.2030 ca        1 1DJ     -0.124000
      4 CAF         1.4400    0.1890    2.4080 ca        1 1DJ     -0.134500
      5 CAH         0.0460    0.2080    2.4370 ca        1 1DJ     -0.106000
      6 CAI        -0.6790    0.0320    1.2550 ca        1 1DJ     -0.084300
      7 CAJ        -2.1850    0.0500    1.2560 c3        1 1DJ      0.276500
      8 OAB        -2.6140    0.8220    2.3780 oh        1 1DJ     -0.589800
      9 CAC        -2.7330   -1.2910    1.2840 c1        1 1DJ     -0.185100
     10 CAA        -3.1820   -2.4000    1.2900 c1        1 1DJ     -0.119500
     11 H1         -0.5710   -0.2980   -0.8870 ha        1 1DJ      0.141000
     12 H2          1.9190   -0.3390   -0.9290 ha        1 1DJ      0.132000
     13 H3          3.2120   -0.0250    1.1810 ha        1 1DJ      0.131000
     14 H4          2.0080    0.3310    3.3390 ha        1 1DJ      0.132000
     15 H5         -0.4920    0.3720    3.3840 ha        1 1DJ      0.141000
     16 H6         -2.5500    0.5670    0.3140 h1        1 1DJ      0.055700
     17 H7         -3.5710    0.7200    2.4390 ho        1 1DJ      0.409000
     18 H8         -3.5810   -3.3830    1.2950 ha        1 1DJ      0.166500
@<TRIPOS>BOND
     1    1    2 ar  
     2    1    6 ar  
     3    1   11 1   
     4    2    3 ar  
     5    2   12 1   
     6    3    4 ar  
     7    3   13 1   
     8    4    5 ar  
     9    4   14 1   
    10    5    6 ar  
    11    5   15 1   
    12    6    7 1   
    13    7    8 1   
    14    7    9 1   
    15    7   16 1   
    16    8   17 1   
    17    9   10 3   
    18   10   18 1   
@<TRIPOS>SUBSTRUCTURE
     1 1DJ         1 TEMP              0 ****  ****    0 ROOT
