@<TRIPOS>MOLECULE
1DK
   55    58     1     0     0
SMALL
bcc


@<TRIPOS>ATOM
      1 CAC        -0.0480   -0.2090    0.6360 c3        1 1DK     -0.059800
      2 CBA         1.4280   -0.1620    0.5110 ca        1 1DK     -0.027300
      3 CAP         2.1910   -0.2500    1.6850 ca        1 1DK     -0.135000
      4 CAY         3.5840   -0.1990    1.6610 ca        1 1DK     -0.066300
      5 CAA         4.3600   -0.2900    2.9180 c3        1 1DK     -0.050800
      6 CAZ         4.2440   -0.0540    0.4270 ca        1 1DK     -0.083300
      7 CAB         5.7220    0.0180    0.3700 c3        1 1DK     -0.049800
      8 CAQ         3.4890    0.0340   -0.7420 ca        1 1DK     -0.110000
      9 CBE         2.0870   -0.0240   -0.7190 ca        1 1DK     -0.088300
     10 CBF         1.3910    0.0610   -2.0540 c3        1 1DK      0.200200
     11 CAX         0.7290   -1.2710   -2.4390 ce        1 1DK     -0.264400
     12 CAU         1.4650   -2.5390   -2.5050 c         1 1DK      0.654900
     13 OAE         1.1720   -3.5100   -1.7970 o         1 1DK     -0.517100
     14 CBC         2.5530   -2.5960   -3.4810 cc        1 1DK     -0.224700
     15 CAK         3.3960   -3.6910   -3.6310 cd        1 1DK     -0.092000
     16 CAI         4.3520   -3.4800   -4.6640 cd        1 1DK     -0.180000
     17 CAJ         4.1900   -2.2380   -5.2530 cc        1 1DK     -0.171100
     18 SAS         2.9430   -1.3850   -4.5760 ss        1 1DK      0.110200
     19 CAW        -0.5830   -1.0360   -2.6860 cf        1 1DK      0.059900
     20 OAG        -1.5320   -1.9230   -3.0700 oh        1 1DK     -0.458100
     21 CAV        -0.8800    0.4470   -2.5380 c         1 1DK      0.664700
     22 OAF        -2.0120    0.9210   -2.7170 o         1 1DK     -0.620500
     23 NBG         0.3040    1.0680   -2.1350 n         1 1DK     -0.328000
     24 CBD         0.6150    2.4380   -2.3400 ca        1 1DK      0.002600
     25 CAO         1.9240    2.9160   -2.0980 ca        1 1DK     -0.161000
     26 CAM         2.2360    4.2520   -2.3050 ca        1 1DK     -0.122000
     27 CAN        -0.3620    3.3510   -2.7820 ca        1 1DK     -0.161000
     28 CAL        -0.0300    4.6890   -2.9840 ca        1 1DK     -0.122000
     29 CBB         1.2660    5.1620   -2.7540 ca        1 1DK     -0.018300
     30 CAR         1.6170    6.5840   -2.9650 c3        1 1DK     -0.178100
     31 CAT         2.9170    6.7750   -3.7860 c         1 1DK      0.918600
     32 OAH         4.0060    6.3770   -3.2790 o         1 1DK     -0.838300
     33 OAD         2.8190    7.3510   -4.9030 o         1 1DK     -0.838300
     34 H1         -0.4950   -0.8510   -0.1630 hc        1 1DK      0.049700
     35 H2         -0.4730    0.8230    0.5440 hc        1 1DK      0.049700
     36 H3         -0.3530   -0.6250    1.6280 hc        1 1DK      0.049700
     37 H4          1.6730   -0.3580    2.6500 ha        1 1DK      0.128000
     38 H5          5.0050    0.6170    3.0400 hc        1 1DK      0.041033
     39 H6          5.0270   -1.1890    2.8970 hc        1 1DK      0.041033
     40 H7          3.6880   -0.3690    3.8080 hc        1 1DK      0.041033
     41 H8          6.0870    0.0880   -0.6840 hc        1 1DK      0.042700
     42 H9          6.0850    0.9190    0.9270 hc        1 1DK      0.042700
     43 H10         6.1740   -0.8890    0.8430 hc        1 1DK      0.042700
     44 H11         4.0120    0.1600   -1.7040 ha        1 1DK      0.134000
     45 H12         3.3290   -4.5990   -3.0270 ha        1 1DK      0.167000
     46 H13         5.1090   -4.2140   -4.9430 ha        1 1DK      0.152000
     47 H14         4.8030   -1.8470   -6.0650 h4        1 1DK      0.175000
     48 H16        -2.3580   -1.4150   -3.1850 ho        1 1DK      0.445000
     49 H17         2.7130    2.2410   -1.7340 ha        1 1DK      0.135500
     50 H18         3.2690    4.6250   -2.1590 ha        1 1DK      0.160000
     51 H19        -1.3950    3.0250   -2.9760 ha        1 1DK      0.135500
     52 H20        -0.8060    5.3820   -3.3420 ha        1 1DK      0.160000
     53 H21         1.7840    7.0690   -1.9680 hc        1 1DK      0.040700
     54 H22         0.7840    7.1220   -3.4840 hc        1 1DK      0.040700
     55 H24         2.1600    0.3120   -2.8520 h1        1 1DK      0.081700
@<TRIPOS>BOND
     1    1    2 1   
     2    1   34 1   
     3    1   35 1   
     4    1   36 1   
     5    2    3 ar  
     6    2    9 ar  
     7    3    4 ar  
     8    3   37 1   
     9    4    5 1   
    10    4    6 ar  
    11    5   38 1   
    12    5   39 1   
    13    5   40 1   
    14    6    7 1   
    15    6    8 ar  
    16    7   41 1   
    17    7   42 1   
    18    7   43 1   
    19    8    9 ar  
    20    8   44 1   
    21    9   10 1   
    22   10   11 1   
    23   10   23 1   
    24   10   55 1   
    25   11   12 1   
    26   11   19 2   
    27   12   13 2   
    28   12   14 1   
    29   14   15 2   
    30   14   18 1   
    31   15   16 1   
    32   15   45 1   
    33   16   17 2   
    34   16   46 1   
    35   17   18 1   
    36   17   47 1   
    37   19   20 1   
    38   19   21 1   
    39   20   48 1   
    40   21   22 2   
    41   21   23 1   
    42   23   24 1   
    43   24   25 ar  
    44   24   27 ar  
    45   25   26 ar  
    46   25   49 1   
    47   26   29 ar  
    48   26   50 1   
    49   27   28 ar  
    50   27   51 1   
    51   28   29 ar  
    52   28   52 1   
    53   29   30 1   
    54   30   31 1   
    55   30   53 1   
    56   30   54 1   
    57   31   32 1   
    58   31   33 1   
@<TRIPOS>SUBSTRUCTURE
     1 1DK         1 TEMP              0 ****  ****    0 ROOT
