@<TRIPOS>MOLECULE
1DK
   55    58     1     0     0
SMALL
bcc


@<TRIPOS>ATOM
      1 CAC        -0.0460   -0.2200    0.6360 c3        1 1DK     -0.059800
      2 CBA         1.4300   -0.1690    0.5100 ca        1 1DK     -0.027300
      3 CAP         2.1930   -0.2590    1.6840 ca        1 1DK     -0.135000
      4 CAY         3.5860   -0.2050    1.6600 ca        1 1DK     -0.066300
      5 CAA         4.3620   -0.2980    2.9180 c3        1 1DK     -0.050800
      6 CAZ         4.2460   -0.0550    0.4270 ca        1 1DK     -0.083300
      7 CAB         5.7230    0.0210    0.3700 c3        1 1DK     -0.049800
      8 CAQ         3.4900    0.0350   -0.7420 ca        1 1DK     -0.109000
      9 CBE         2.0890   -0.0260   -0.7190 ca        1 1DK     -0.088300
     10 CBF         1.3930    0.0610   -2.0540 c3        1 1DK      0.200200
     11 CAX         0.7340   -1.2710   -2.4430 ce        1 1DK     -0.264400
     12 CAU         1.4730   -2.5370   -2.5130 c         1 1DK      0.654900
     13 OAE         1.1820   -3.5110   -1.8080 o         1 1DK     -0.517100
     14 CBC         2.5600   -2.5890   -3.4890 cc        1 1DK     -0.224700
     15 CAK         3.4060   -3.6810   -3.6410 cd        1 1DK     -0.092000
     16 CAI         4.3620   -3.4650   -4.6740 cd        1 1DK     -0.180000
     17 CAJ         4.1970   -2.2230   -5.2590 cc        1 1DK     -0.171100
     18 SAS         2.9470   -1.3740   -4.5800 ss        1 1DK      0.110200
     19 CAW        -0.5790   -1.0390   -2.6890 cf        1 1DK      0.059900
     20 OAG        -1.5260   -1.9270   -3.0760 oh        1 1DK     -0.458100
     21 CAV        -0.8790    0.4430   -2.5370 c         1 1DK      0.664700
     22 OAF        -2.0120    0.9150   -2.7150 o         1 1DK     -0.620500
     23 NBG         0.3040    1.0660   -2.1320 n         1 1DK     -0.328000
     24 CBD         0.6110    2.4370   -2.3330 ca        1 1DK      0.002600
     25 CAO         1.9190    2.9170   -2.0900 ca        1 1DK     -0.161000
     26 CAM         2.2280    4.2540   -2.2920 ca        1 1DK     -0.122000
     27 CAN        -0.3690    3.3500   -2.7700 ca        1 1DK     -0.161000
     28 CAL        -0.0400    4.6890   -2.9670 ca        1 1DK     -0.122000
     29 CBB         1.2550    5.1640   -2.7370 ca        1 1DK     -0.018300
     30 CAR         1.6030    6.5880   -2.9430 c3        1 1DK     -0.178100
     31 CAT         2.9020    6.7850   -3.7640 c         1 1DK      0.918600
     32 OAH         3.9920    6.3880   -3.2590 o         1 1DK     -0.838300
     33 OAD         2.8010    7.3640   -4.8790 o         1 1DK     -0.838300
     34 H1         -0.4730    0.8110    0.5460 hc        1 1DK      0.049700
     35 H2         -0.3510   -0.6390    1.6260 hc        1 1DK      0.049700
     36 H3         -0.4920   -0.8610   -0.1660 hc        1 1DK      0.049700
     37 H4          1.6750   -0.3710    2.6490 ha        1 1DK      0.128000
     38 H5          3.6910   -0.3810    3.8070 hc        1 1DK      0.041033
     39 H6          5.0310   -1.1950    2.8940 hc        1 1DK      0.041033
     40 H7          5.0050    0.6100    3.0420 hc        1 1DK      0.041033
     41 H8          6.0840    0.9210    0.9300 hc        1 1DK      0.042700
     42 H9          6.0880    0.0940   -0.6840 hc        1 1DK      0.042700
     43 H10         6.1780   -0.8870    0.8410 hc        1 1DK      0.042700
     44 H11         4.0140    0.1650   -1.7030 ha        1 1DK      0.134000
     45 H12         3.3420   -4.5920   -3.0400 ha        1 1DK      0.167000
     46 H13         5.1210   -4.1970   -4.9540 ha        1 1DK      0.152000
     47 H14         4.8090   -1.8280   -6.0700 h4        1 1DK      0.175000
     48 H16        -2.3530   -1.4210   -3.1890 ho        1 1DK      0.445000
     49 H17         2.7100    2.2420   -1.7300 ha        1 1DK      0.135500
     50 H18         3.2600    4.6300   -2.1470 ha        1 1DK      0.160000
     51 H19        -1.4010    3.0220   -2.9640 ha        1 1DK      0.135500
     52 H20        -0.8180    5.3810   -3.3220 ha        1 1DK      0.160000
     53 H21         1.7690    7.0690   -1.9440 hc        1 1DK      0.040700
     54 H22         0.7680    7.1260   -3.4590 hc        1 1DK      0.040700
     55 H24         2.1620    0.3160   -2.8510 h1        1 1DK      0.081700
@<TRIPOS>BOND
     1    1    2 1   
     2    1   34 1   
     3    1   35 1   
     4    1   36 1   
     5    2    3 ar  
     6    2    9 ar  
     7    3    4 ar  
     8    3   37 1   
     9    4    5 1   
    10    4    6 ar  
    11    5   38 1   
    12    5   39 1   
    13    5   40 1   
    14    6    7 1   
    15    6    8 ar  
    16    7   41 1   
    17    7   42 1   
    18    7   43 1   
    19    8    9 ar  
    20    8   44 1   
    21    9   10 1   
    22   10   11 1   
    23   10   23 1   
    24   10   55 1   
    25   11   12 1   
    26   11   19 2   
    27   12   13 2   
    28   12   14 1   
    29   14   15 2   
    30   14   18 1   
    31   15   16 1   
    32   15   45 1   
    33   16   17 2   
    34   16   46 1   
    35   17   18 1   
    36   17   47 1   
    37   19   20 1   
    38   19   21 1   
    39   20   48 1   
    40   21   22 2   
    41   21   23 1   
    42   23   24 1   
    43   24   25 ar  
    44   24   27 ar  
    45   25   26 ar  
    46   25   49 1   
    47   26   29 ar  
    48   26   50 1   
    49   27   28 ar  
    50   27   51 1   
    51   28   29 ar  
    52   28   52 1   
    53   29   30 1   
    54   30   31 1   
    55   30   53 1   
    56   30   54 1   
    57   31   32 1   
    58   31   33 1   
@<TRIPOS>SUBSTRUCTURE
     1 1DK         1 TEMP              0 ****  ****    0 ROOT
