@<TRIPOS>MOLECULE
1DK
   55    58     1     0     0
SMALL
bcc


@<TRIPOS>ATOM
      1 CAC        -0.0400   -0.2140    0.6440 c3        1 1DK     -0.059800
      2 CBA         1.4360   -0.1670    0.5150 ca        1 1DK     -0.027300
      3 CAP         2.2020   -0.2570    1.6860 ca        1 1DK     -0.135000
      4 CAY         3.5950   -0.2060    1.6590 ca        1 1DK     -0.066300
      5 CAA         4.3740   -0.2990    2.9150 c3        1 1DK     -0.050800
      6 CAZ         4.2520   -0.0580    0.4250 ca        1 1DK     -0.083300
      7 CAB         5.7300    0.0150    0.3640 c3        1 1DK     -0.049800
      8 CAQ         3.4940    0.0330   -0.7420 ca        1 1DK     -0.110000
      9 CBE         2.0920   -0.0250   -0.7170 ca        1 1DK     -0.088300
     10 CBF         1.3930    0.0620   -2.0490 c3        1 1DK      0.199200
     11 CAX         0.7310   -1.2690   -2.4360 ce        1 1DK     -0.264400
     12 CAU         1.4670   -2.5370   -2.5070 c         1 1DK      0.654900
     13 OAE         1.1760   -3.5100   -1.8000 o         1 1DK     -0.517100
     14 CBC         2.5520   -2.5910   -3.4850 cc        1 1DK     -0.224700
     15 CAK         3.3950   -3.6860   -3.6400 cd        1 1DK     -0.092000
     16 CAI         4.3480   -3.4720   -4.6750 cd        1 1DK     -0.180000
     17 CAJ         4.1850   -2.2290   -5.2610 cc        1 1DK     -0.171100
     18 SAS         2.9380   -1.3780   -4.5790 ss        1 1DK      0.110200
     19 CAW        -0.5830   -1.0350   -2.6790 cf        1 1DK      0.059900
     20 OAG        -1.5320   -1.9210   -3.0620 oh        1 1DK     -0.458100
     21 CAV        -0.8790    0.4480   -2.5270 c         1 1DK      0.664700
     22 OAF        -2.0120    0.9220   -2.7020 o         1 1DK     -0.620500
     23 NBG         0.3060    1.0690   -2.1260 n         1 1DK     -0.328000
     24 CBD         0.6160    2.4380   -2.3310 ca        1 1DK      0.002600
     25 CAO         1.9240    2.9170   -2.0880 ca        1 1DK     -0.161000
     26 CAM         2.2360    4.2530   -2.2950 ca        1 1DK     -0.122000
     27 CAN        -0.3620    3.3520   -2.7720 ca        1 1DK     -0.161000
     28 CAL        -0.0300    4.6890   -2.9740 ca        1 1DK     -0.122000
     29 CBB         1.2650    5.1630   -2.7440 ca        1 1DK     -0.018300
     30 CAR         1.6160    6.5850   -2.9550 c3        1 1DK     -0.178100
     31 CAT         2.9170    6.7760   -3.7760 c         1 1DK      0.918600
     32 OAH         4.0050    6.3790   -3.2680 o         1 1DK     -0.838300
     33 OAD         2.8170    7.3520   -4.8930 o         1 1DK     -0.838300
     34 H1         -0.3430   -0.6320    1.6350 hc        1 1DK      0.049700
     35 H2         -0.4650    0.8180    0.5540 hc        1 1DK      0.049700
     36 H3         -0.4890   -0.8550   -0.1560 hc        1 1DK      0.049700
     37 H4          1.6860   -0.3680    2.6530 ha        1 1DK      0.128000
     38 H5          3.7040   -0.3800    3.8060 hc        1 1DK      0.041033
     39 H6          5.0190    0.6070    3.0370 hc        1 1DK      0.041033
     40 H7          5.0400   -1.1980    2.8900 hc        1 1DK      0.041033
     41 H8          6.0930    0.9140    0.9230 hc        1 1DK      0.042700
     42 H9          6.0920    0.0870   -0.6910 hc        1 1DK      0.042700
     43 H10         6.1830   -0.8930    0.8340 hc        1 1DK      0.042700
     44 H11         4.0150    0.1610   -1.7060 ha        1 1DK      0.134000
     45 H12         3.3300   -4.5960   -3.0380 ha        1 1DK      0.167000
     46 H13         5.1060   -4.2050   -4.9570 ha        1 1DK      0.152000
     47 H14         4.7960   -1.8360   -6.0740 h4        1 1DK      0.175000
     48 H16        -2.3580   -1.4140   -3.1740 ho        1 1DK      0.445000
     49 H17         2.7140    2.2420   -1.7250 ha        1 1DK      0.135500
     50 H18         3.2690    4.6270   -2.1490 ha        1 1DK      0.160000
     51 H19        -1.3950    3.0250   -2.9670 ha        1 1DK      0.135500
     52 H20        -0.8070    5.3820   -3.3320 ha        1 1DK      0.160000
     53 H21         0.7830    7.1230   -3.4740 hc        1 1DK      0.040700
     54 H22         1.7830    7.0700   -1.9570 hc        1 1DK      0.040700
     55 H24         2.1600    0.3140   -2.8490 h1        1 1DK      0.081700
@<TRIPOS>BOND
     1    1    2 1   
     2    1   34 1   
     3    1   35 1   
     4    1   36 1   
     5    2    3 ar  
     6    2    9 ar  
     7    3    4 ar  
     8    3   37 1   
     9    4    5 1   
    10    4    6 ar  
    11    5   38 1   
    12    5   39 1   
    13    5   40 1   
    14    6    7 1   
    15    6    8 ar  
    16    7   41 1   
    17    7   42 1   
    18    7   43 1   
    19    8    9 ar  
    20    8   44 1   
    21    9   10 1   
    22   10   11 1   
    23   10   23 1   
    24   10   55 1   
    25   11   12 1   
    26   11   19 2   
    27   12   13 2   
    28   12   14 1   
    29   14   15 2   
    30   14   18 1   
    31   15   16 1   
    32   15   45 1   
    33   16   17 2   
    34   16   46 1   
    35   17   18 1   
    36   17   47 1   
    37   19   20 1   
    38   19   21 1   
    39   20   48 1   
    40   21   22 2   
    41   21   23 1   
    42   23   24 1   
    43   24   25 ar  
    44   24   27 ar  
    45   25   26 ar  
    46   25   49 1   
    47   26   29 ar  
    48   26   50 1   
    49   27   28 ar  
    50   27   51 1   
    51   28   29 ar  
    52   28   52 1   
    53   29   30 1   
    54   30   31 1   
    55   30   53 1   
    56   30   54 1   
    57   31   32 1   
    58   31   33 1   
@<TRIPOS>SUBSTRUCTURE
     1 1DK         1 TEMP              0 ****  ****    0 ROOT
