@<TRIPOS>MOLECULE
1DL
   46    49     1     0     0
SMALL
bcc


@<TRIPOS>ATOM
      1 OAB         2.0350    3.1400   -3.9850 o         1 1DL     -0.831800
      2 CAS         2.4810    2.6930   -2.8860 c         1 1DL      0.915200
      3 OAE         2.8010    3.4240   -1.9110 o         1 1DL     -0.831800
      4 CBC         2.6290    1.1780   -2.7650 ca        1 1DL     -0.122600
      5 CAQ         2.0980    0.4110   -3.8020 ca        1 1DL     -0.124000
      6 CAX         3.2690    0.5300   -1.6960 ca        1 1DL     -0.027300
      7 CAA         3.8370    1.3030   -0.5690 c3        1 1DL     -0.048800
      8 CAK         3.3650   -0.8680   -1.7010 ca        1 1DL     -0.166000
      9 CAN         2.8530   -1.6340   -2.7440 ca        1 1DL     -0.107000
     10 CBB         2.2140   -0.9920   -3.8200 ca        1 1DL     -0.045400
     11 NBE         1.7230   -1.7610   -4.9250 n         1 1DL     -0.324000
     12 CBD         2.1060   -1.2530   -6.2760 c3        1 1DL      0.186200
     13 CBA         3.1360   -2.1180   -6.9150 cc        1 1DL     -0.109400
     14 SAR         3.3740   -3.7400   -6.5660 ss        1 1DL      0.126200
     15 CAO         4.6230   -3.9110   -7.6390 cc        1 1DL     -0.182100
     16 CAY         4.9060   -2.7240   -8.2940 cd        1 1DL     -0.063900
     17 BrA         6.2320   -2.5000   -9.5600 br        1 1DL     -0.075100
     18 CAP         4.0380   -1.6710   -7.8640 cd        1 1DL     -0.122000
     19 CAV         0.3420   -2.0950   -4.9580 c         1 1DL      0.657700
     20 OAD        -0.3450   -2.6050   -4.0670 o         1 1DL     -0.583500
     21 CAU        -0.1810   -1.7840   -6.3490 ce        1 1DL      0.037900
     22 OAF        -1.4780   -1.9730   -6.6960 oh        1 1DL     -0.456100
     23 CAW         0.8060   -1.2290   -7.0940 cf        1 1DL     -0.235400
     24 CAT         0.7430   -0.5870   -8.4140 c         1 1DL      0.619900
     25 OAC         0.3670   -1.1810   -9.4300 o         1 1DL     -0.525100
     26 CAZ         1.1740    0.8300   -8.4300 ca        1 1DL     -0.182600
     27 CAL         1.6980    1.3860   -9.6040 ca        1 1DL     -0.092500
     28 CAI         2.1650    2.6990   -9.6010 ca        1 1DL     -0.136500
     29 CAH         2.1210    3.4600   -8.4310 ca        1 1DL     -0.111000
     30 CAJ         1.5820    2.9200   -7.2620 ca        1 1DL     -0.136500
     31 CAM         1.0890    1.6150   -7.2730 ca        1 1DL     -0.092500
     32 H2          1.5930    0.9630   -4.6150 ha        1 1DL      0.156000
     33 H3          4.5650    2.0610   -0.9570 hc        1 1DL      0.049033
     34 H4          4.3470    0.6400    0.1720 hc        1 1DL      0.049033
     35 H5          3.0220    1.8770   -0.0580 hc        1 1DL      0.049033
     36 H6          3.8600   -1.3790   -0.8610 ha        1 1DL      0.115000
     37 H7          2.9460   -2.7290   -2.7200 ha        1 1DL      0.124000
     38 H8          2.5200   -0.2000   -6.2050 h1        1 1DL      0.117700
     39 H9          5.1490   -4.8530   -7.7920 h4        1 1DL      0.173000
     40 H10         4.0940   -0.6480   -8.2440 ha        1 1DL      0.172000
     41 H11        -1.9300   -2.3190   -5.9040 ho        1 1DL      0.439000
     42 H12         1.7390    0.7760  -10.5180 ha        1 1DL      0.144000
     43 H13         2.5780    3.1320  -10.5230 ha        1 1DL      0.163000
     44 H14         2.5160    4.4860   -8.4260 ha        1 1DL      0.131000
     45 H15         1.5730    3.4900   -6.3110 ha        1 1DL      0.163000
     46 H16         0.6300    1.2080   -6.3590 ha        1 1DL      0.144000
@<TRIPOS>BOND
     1    1    2 1   
     2    2    3 1   
     3    2    4 1   
     4    4    5 ar  
     5    4    6 ar  
     6    5   10 ar  
     7    5   32 1   
     8    6    7 1   
     9    6    8 ar  
    10    7   33 1   
    11    7   34 1   
    12    7   35 1   
    13    8    9 ar  
    14    8   36 1   
    15    9   10 ar  
    16    9   37 1   
    17   10   11 1   
    18   11   12 1   
    19   11   19 1   
    20   12   13 1   
    21   12   23 1   
    22   12   38 1   
    23   13   14 1   
    24   13   18 2   
    25   14   15 1   
    26   15   16 2   
    27   15   39 1   
    28   16   17 1   
    29   16   18 1   
    30   18   40 1   
    31   19   20 2   
    32   19   21 1   
    33   21   22 1   
    34   21   23 2   
    35   22   41 1   
    36   23   24 1   
    37   24   25 2   
    38   24   26 1   
    39   26   27 ar  
    40   26   31 ar  
    41   27   28 ar  
    42   27   42 1   
    43   28   29 ar  
    44   28   43 1   
    45   29   30 ar  
    46   29   44 1   
    47   30   31 ar  
    48   30   45 1   
    49   31   46 1   
@<TRIPOS>SUBSTRUCTURE
     1 1DL         1 TEMP              0 ****  ****    0 ROOT
