@<TRIPOS>MOLECULE
1DL
   46    49     1     0     0
SMALL
bcc


@<TRIPOS>ATOM
      1 OAB         2.1400    3.1570   -4.0050 o         1 1DL     -0.831800
      2 CAS         2.5460    2.6970   -2.8960 c         1 1DL      0.915200
      3 OAE         2.8780    3.4190   -1.9180 o         1 1DL     -0.831800
      4 CBC         2.6270    1.1780   -2.7650 ca        1 1DL     -0.122600
      5 CAQ         2.0830    0.4290   -3.8090 ca        1 1DL     -0.124000
      6 CAX         3.2190    0.5090   -1.6810 ca        1 1DL     -0.027300
      7 CAA         3.7980    1.2630   -0.5470 c3        1 1DL     -0.048800
      8 CAK         3.2550   -0.8920   -1.6790 ca        1 1DL     -0.166000
      9 CAN         2.7310   -1.6410   -2.7280 ca        1 1DL     -0.107000
     10 CBB         2.1400   -0.9780   -3.8180 ca        1 1DL     -0.045400
     11 NBE         1.6370   -1.7300   -4.9290 n         1 1DL     -0.324000
     12 CBD         2.0670   -1.2460   -6.2750 c3        1 1DL      0.186200
     13 CBA         3.0710   -2.1560   -6.8910 cc        1 1DL     -0.109400
     14 SAR         3.2310   -3.7870   -6.5340 ss        1 1DL      0.125200
     15 CAO         4.4930   -4.0150   -7.5810 cc        1 1DL     -0.182100
     16 CAY         4.8410   -2.8430   -8.2320 cd        1 1DL     -0.063900
     17 BRA         6.2010   -2.6810   -9.4720 br        1 1DL     -0.075100
     18 CAP         4.0110   -1.7520   -7.8230 cd        1 1DL     -0.122000
     19 CAV         0.2440   -2.0060   -4.9870 c         1 1DL      0.657700
     20 OAD        -0.4800   -2.4820   -4.1070 o         1 1DL     -0.583500
     21 CAU        -0.2390   -1.6800   -6.3890 ce        1 1DL      0.037900
     22 OAF        -1.5360   -1.8150   -6.7590 oh        1 1DL     -0.456100
     23 CAW         0.7840   -1.1710   -7.1180 cf        1 1DL     -0.235400
     24 CAT         0.7730   -0.5330   -8.4410 c         1 1DL      0.619900
     25 OAC         0.3920   -1.1170   -9.4620 o         1 1DL     -0.525100
     26 CAZ         1.2630    0.8640   -8.4550 ca        1 1DL     -0.182600
     27 CAL         1.8320    1.3930   -9.6210 ca        1 1DL     -0.092500
     28 CAI         2.3530    2.6850   -9.6150 ca        1 1DL     -0.136500
     29 CAH         2.3200    3.4520   -8.4490 ca        1 1DL     -0.111000
     30 CAJ         1.7380    2.9410   -7.2880 ca        1 1DL     -0.136500
     31 CAM         1.1910    1.6580   -7.3030 ca        1 1DL     -0.092500
     32 H2          1.6180    0.9980   -4.6330 ha        1 1DL      0.156000
     33 H3          2.9990    1.8740   -0.0540 hc        1 1DL      0.049033
     34 H4          4.5650    1.9870   -0.9240 hc        1 1DL      0.049033
     35 H5          4.2650    0.5820    0.2060 hc        1 1DL      0.049033
     36 H6          3.7120   -1.4190   -0.8280 ha        1 1DL      0.115000
     37 H7          2.7770   -2.7380   -2.6970 ha        1 1DL      0.124000
     38 H8          2.5240   -0.2110   -6.2010 h1        1 1DL      0.117700
     39 H9          4.9820   -4.9790   -7.7200 h4        1 1DL      0.173000
     40 H10         4.1190   -0.7330   -8.2040 ha        1 1DL      0.172000
     41 H11        -2.0170   -2.1390   -5.9750 ho        1 1DL      0.439000
     42 H12         1.8640    0.7760  -10.5330 ha        1 1DL      0.144000
     43 H13         2.8010    3.0960  -10.5310 ha        1 1DL      0.163000
     44 H14         2.7570    4.4610   -8.4410 ha        1 1DL      0.131000
     45 H15         1.7350    3.5150   -6.3400 ha        1 1DL      0.163000
     46 H16         0.6980    1.2740   -6.3960 ha        1 1DL      0.144000
@<TRIPOS>BOND
     1    1    2 1   
     2    2    3 1   
     3    2    4 1   
     4    4    5 ar  
     5    4    6 ar  
     6    5   10 ar  
     7    5   32 1   
     8    6    7 1   
     9    6    8 ar  
    10    7   33 1   
    11    7   34 1   
    12    7   35 1   
    13    8    9 ar  
    14    8   36 1   
    15    9   10 ar  
    16    9   37 1   
    17   10   11 1   
    18   11   12 1   
    19   11   19 1   
    20   12   13 1   
    21   12   23 1   
    22   12   38 1   
    23   13   14 1   
    24   13   18 2   
    25   14   15 1   
    26   15   16 2   
    27   15   39 1   
    28   16   17 1   
    29   16   18 1   
    30   18   40 1   
    31   19   20 2   
    32   19   21 1   
    33   21   22 1   
    34   21   23 2   
    35   22   41 1   
    36   23   24 1   
    37   24   25 2   
    38   24   26 1   
    39   26   27 ar  
    40   26   31 ar  
    41   27   28 ar  
    42   27   42 1   
    43   28   29 ar  
    44   28   43 1   
    45   29   30 ar  
    46   29   44 1   
    47   30   31 ar  
    48   30   45 1   
    49   31   46 1   
@<TRIPOS>SUBSTRUCTURE
     1 1DL         1 TEMP              0 ****  ****    0 ROOT
