@<TRIPOS>MOLECULE
1DL
   46    49     1     0     0
SMALL
bcc


@<TRIPOS>ATOM
      1 OAB         2.0910    3.1240   -3.9500 o         1 1DL     -0.831800
      2 CAS         2.5390    2.6600   -2.8600 c         1 1DL      0.915200
      3 OAE         2.8760    3.3770   -1.8800 o         1 1DL     -0.831800
      4 CBC         2.6690    1.1420   -2.7550 ca        1 1DL     -0.122600
      5 CAQ         2.1200    0.3920   -3.7960 ca        1 1DL     -0.124000
      6 CAX         3.3080    0.4750   -1.6970 ca        1 1DL     -0.027300
      7 CAA         3.8950    1.2290   -0.5670 c3        1 1DL     -0.048800
      8 CAK         3.3870   -0.9240   -1.7180 ca        1 1DL     -0.166000
      9 CAN         2.8570   -1.6730   -2.7650 ca        1 1DL     -0.107000
     10 CBB         2.2190   -1.0120   -3.8290 ca        1 1DL     -0.045400
     11 NBE         1.7100   -1.7630   -4.9380 n         1 1DL     -0.324000
     12 CBD         2.0890   -1.2460   -6.2870 c3        1 1DL      0.186200
     13 CBA         3.1030   -2.1160   -6.9440 cc        1 1DL     -0.109400
     14 SAR         3.3240   -3.7450   -6.6120 ss        1 1DL      0.126200
     15 CAO         4.5620   -3.9200   -7.6970 cc        1 1DL     -0.182100
     16 CAY         4.8540   -2.7300   -8.3430 cd        1 1DL     -0.063900
     17 BRA         6.1720   -2.5100   -9.6180 br        1 1DL     -0.075100
     18 CAP         4.0020   -1.6710   -7.8960 cd        1 1DL     -0.122000
     19 CAV         0.3240   -2.0790   -4.9640 c         1 1DL      0.657700
     20 OAD        -0.3620   -2.5900   -4.0730 o         1 1DL     -0.583500
     21 CAU        -0.2050   -1.7470   -6.3480 ce        1 1DL      0.037900
     22 OAF        -1.5070   -1.9160   -6.6860 oh        1 1DL     -0.456100
     23 CAW         0.7830   -1.1970   -7.0950 cf        1 1DL     -0.235400
     24 CAT         0.7180   -0.5390   -8.4070 c         1 1DL      0.619900
     25 OAC         0.3260   -1.1190   -9.4270 o         1 1DL     -0.525100
     26 CAZ         1.1670    0.8720   -8.4120 ca        1 1DL     -0.182600
     27 CAL         1.6890    1.4340   -9.5840 ca        1 1DL     -0.092500
     28 CAI         2.1730    2.7400   -9.5710 ca        1 1DL     -0.136500
     29 CAH         2.1470    3.4890   -8.3930 ca        1 1DL     -0.111000
     30 CAJ         1.6110    2.9440   -7.2260 ca        1 1DL     -0.136500
     31 CAM         1.1010    1.6460   -7.2470 ca        1 1DL     -0.092500
     32 H2          1.6170    0.9590   -4.5990 ha        1 1DL      0.156000
     33 H3          4.6290    1.9810   -0.9530 hc        1 1DL      0.049033
     34 H4          3.0910    1.8080   -0.0440 hc        1 1DL      0.049033
     35 H5          4.4020    0.5510    0.1630 hc        1 1DL      0.049033
     36 H6          3.8810   -1.4500   -0.8870 ha        1 1DL      0.115000
     37 H7          2.9370   -2.7690   -2.7530 ha        1 1DL      0.124000
     38 H8          2.5170   -0.1990   -6.2080 h1        1 1DL      0.117700
     39 H9          5.0760   -4.8660   -7.8630 h4        1 1DL      0.173000
     40 H10         4.0670   -0.6450   -8.2670 ha        1 1DL      0.172000
     41 H11        -1.9570   -2.2650   -5.8950 ho        1 1DL      0.439000
     42 H12         1.7160    0.8320  -10.5050 ha        1 1DL      0.144000
     43 H13         2.5850    3.1780  -10.4910 ha        1 1DL      0.163000
     44 H14         2.5560    4.5100   -8.3810 ha        1 1DL      0.131000
     45 H15         1.6160    3.5040   -6.2690 ha        1 1DL      0.163000
     46 H16         0.6430    1.2350   -6.3330 ha        1 1DL      0.144000
@<TRIPOS>BOND
     1    1    2 1   
     2    2    3 1   
     3    2    4 1   
     4    4    5 ar  
     5    4    6 ar  
     6    5   10 ar  
     7    5   32 1   
     8    6    7 1   
     9    6    8 ar  
    10    7   33 1   
    11    7   34 1   
    12    7   35 1   
    13    8    9 ar  
    14    8   36 1   
    15    9   10 ar  
    16    9   37 1   
    17   10   11 1   
    18   11   12 1   
    19   11   19 1   
    20   12   13 1   
    21   12   23 1   
    22   12   38 1   
    23   13   14 1   
    24   13   18 2   
    25   14   15 1   
    26   15   16 2   
    27   15   39 1   
    28   16   17 1   
    29   16   18 1   
    30   18   40 1   
    31   19   20 2   
    32   19   21 1   
    33   21   22 1   
    34   21   23 2   
    35   22   41 1   
    36   23   24 1   
    37   24   25 2   
    38   24   26 1   
    39   26   27 ar  
    40   26   31 ar  
    41   27   28 ar  
    42   27   42 1   
    43   28   29 ar  
    44   28   43 1   
    45   29   30 ar  
    46   29   44 1   
    47   30   31 ar  
    48   30   45 1   
    49   31   46 1   
@<TRIPOS>SUBSTRUCTURE
     1 1DL         1 TEMP              0 ****  ****    0 ROOT
