@<TRIPOS>MOLECULE
1DM
   75    76     1     0     0
SMALL
bcc


@<TRIPOS>ATOM
      1 C21         4.5700   -0.5050   -2.5750 c3        1 1DM     -0.108750
      2 C22         6.0840   -0.4670   -2.7760 c3        1 1DM     -0.024000
      3 O22         6.7910   -0.3990   -1.5490 os        1 1DM     -0.270500
      4 C23         6.3300    0.6600   -0.7000 c3        1 1DM     -0.024000
      5 C24         4.8170    0.6270   -0.4940 c3        1 1DM     -0.108750
      6 N20         4.1050    0.5610   -1.7220 n3        1 1DM     -0.260000
      7 C20         2.7030    0.3860   -1.4500 c3        1 1DM     -0.082000
      8 C19         1.9400    1.7190   -1.7360 c3        1 1DM      0.011000
      9 C30         2.2020    2.1730   -3.2120 c3        1 1DM     -0.082000
     10 N19         1.8620    3.5790   -3.3540 n3        1 1DM     -0.260000
     11 C25         1.1770    3.7810   -4.5810 c3        1 1DM     -0.108750
     12 C26         0.9270    5.2520   -4.8670 c3        1 1DM     -0.024000
     13 O23         2.1130    6.0360   -4.7660 os        1 1DM     -0.270500
     14 C27         2.7960    5.8380   -3.5470 c3        1 1DM     -0.024000
     15 C28         3.0520    4.3670   -3.2560 c3        1 1DM     -0.108750
     16 N18         0.5150    1.5120   -1.5430 n         1 1DM     -0.339000
     17 C13        -0.0340    1.3730   -0.1690 c2        1 1DM      0.345000
     18 O17         0.5110    1.9480    0.7720 o         1 1DM     -0.359000
     19 C11        -1.2770    0.5020    0.0800 c2        1 1DM     -0.104000
     20 C12        -1.3410   -0.3110    1.2170 c2        1 1DM     -0.063000
     21 C10        -2.3840    0.6050   -0.7690 c1        1 1DM     -0.073000
     22 C9         -3.5540   -0.1070   -0.4790 c1        1 1DM     -0.112000
     23 N14        -4.6580   -0.0130   -1.3310 no        1 1DM      0.568000
     24 O15        -4.7390    0.9980   -2.2200 o         1 1DM     -0.353500
     25 O16        -5.5370   -0.8750   -1.2970 o         1 1DM     -0.353500
     26 C8         -3.6150   -0.9160    0.6540 c1        1 1DM     -0.114000
     27 C7         -2.5040   -1.0180    1.5050 c1        1 1DM      0.066000
     28 O1         -2.5320   -1.9310    2.6250 os        1 1DM     -0.251000
     29 C1         -3.8550   -2.1730    2.9990 c3        1 1DM      0.120000
     30 O5         -4.1670   -3.5880    2.7630 os        1 1DM     -0.286000
     31 C5         -3.4540   -4.4890    3.6750 c3        1 1DM      0.004000
     32 C6         -3.9710   -5.8920    3.4800 c3        1 1DM     -0.025000
     33 O6         -3.0720   -6.8100    4.0730 oh        1 1DM     -0.344000
     34 C4         -3.6300   -4.0990    5.1370 c3        1 1DM     -0.016000
     35 O4         -4.9880   -4.3480    5.5260 oh        1 1DM     -0.336000
     36 C3         -3.3130   -2.6730    5.3800 c3        1 1DM      0.009000
     37 O3         -3.6800   -2.3370    6.7500 oh        1 1DM     -0.305000
     38 C2         -4.0340   -1.7720    4.4570 c3        1 1DM     -0.011000
     39 O2         -3.5370   -0.4190    4.6390 oh        1 1DM     -0.298000
     40 H211        4.1190   -0.4240   -3.4730 h1        1 1DM      0.084000
     41 H212        4.3220   -1.3780   -2.1680 h1        1 1DM      0.084000
     42 H221        6.3590   -1.2670   -3.2550 h1        1 1DM      0.094250
     43 H222        6.3210    0.3470   -3.3350 h1        1 1DM      0.094250
     44 H231        6.7940    0.5760    0.2180 h1        1 1DM      0.094250
     45 H232        6.5730    1.5150   -1.1040 h1        1 1DM      0.094250
     46 H241        4.5390    1.4530   -0.0060 h1        1 1DM      0.084000
     47 H242        4.5830   -0.1720    0.0610 h1        1 1DM      0.084000
     48 H201        2.3530   -0.3080   -2.0130 h1        1 1DM      0.086000
     49 H202        2.5800    0.1300   -0.4850 h1        1 1DM      0.086000
     50 H19         2.2520    2.4100   -1.1230 h1        1 1DM      0.133000
     51 H301        3.1150    2.0490   -3.4200 h1        1 1DM      0.086000
     52 H302        1.6390    1.6290   -3.8360 h1        1 1DM      0.086000
     53 H251        1.7160    3.4020   -5.3140 h1        1 1DM      0.084000
     54 H252        0.2950    3.3040   -4.5450 h1        1 1DM      0.084000
     55 H261        0.2690    5.5920   -4.2240 h1        1 1DM      0.094250
     56 H262        0.5500    5.3460   -5.8060 h1        1 1DM      0.094250
     57 H271        2.2620    6.2140   -2.8210 h1        1 1DM      0.094250
     58 H272        3.6370    6.3000   -3.5840 h1        1 1DM      0.094250
     59 H281        3.4080    4.2830   -2.3790 h1        1 1DM      0.084000
     60 H282        3.7320    4.0160   -3.9190 h1        1 1DM      0.084000
     61 H18        -0.0080    1.3780   -2.2410 hn        1 1DM      0.221000
     62 H12        -0.5510   -0.3850    1.8220 ha        1 1DM      0.178000
     63 H10        -2.3800    1.2650   -1.5090 ha        1 1DM      0.180000
     64 H8         -4.4100   -1.4000    0.8490 ha        1 1DM      0.195000
     65 H1         -4.4380   -1.6290    2.4550 h2        1 1DM      0.144000
     66 H5         -2.5190   -4.4710    3.4580 h1        1 1DM      0.106000
     67 H61        -4.8710   -5.9790    3.9120 h1        1 1DM      0.088500
     68 H62        -4.0520   -6.0880    2.4900 h1        1 1DM      0.088500
     69 HO6        -3.3400   -7.6210    3.9180 ho        1 1DM      0.215000
     70 H4         -3.0300   -4.6580    5.6920 h1        1 1DM      0.116000
     71 HO4        -5.0000   -4.8960    6.2050 ho        1 1DM      0.227000
     72 H3         -2.3760   -2.5420    5.2680 h1        1 1DM      0.130000
     73 HO3        -3.9130   -3.0770    7.1860 ho        1 1DM      0.221000
     74 H2         -4.9630   -1.7890    4.6720 h1        1 1DM      0.152000
     75 HO2        -4.1910    0.1000    5.0160 ho        1 1DM      0.214000
@<TRIPOS>BOND
     1    1    2 1   
     2    1    6 1   
     3    1   40 1   
     4    1   41 1   
     5    2    3 1   
     6    2   42 1   
     7    2   43 1   
     8    3    4 1   
     9    4    5 1   
    10    4   44 1   
    11    4   45 1   
    12    5    6 1   
    13    5   46 1   
    14    5   47 1   
    15    6    7 1   
    16    7    8 1   
    17    7   48 1   
    18    7   49 1   
    19    8    9 1   
    20    8   16 1   
    21    8   50 1   
    22    9   10 1   
    23    9   51 1   
    24    9   52 1   
    25   10   11 1   
    26   10   15 1   
    27   11   12 1   
    28   11   53 1   
    29   11   54 1   
    30   12   13 1   
    31   12   55 1   
    32   12   56 1   
    33   13   14 1   
    34   14   15 1   
    35   14   57 1   
    36   14   58 1   
    37   15   59 1   
    38   15   60 1   
    39   16   17 1   
    40   16   61 1   
    41   17   18 1   
    42   17   19 1   
    43   19   20 1   
    44   19   21 1   
    45   20   27 1   
    46   20   62 1   
    47   21   63 1   
    48   22   23 1   
    49   22   26 1   
    50   23   24 1   
    51   23   25 1   
    52   26   64 1   
    53   27   28 1   
    54   28   29 1   
    55   29   30 1   
    56   29   38 1   
    57   29   65 1   
    58   30   31 1   
    59   31   32 1   
    60   31   34 1   
    61   31   66 1   
    62   32   33 1   
    63   32   67 1   
    64   32   68 1   
    65   33   69 1   
    66   34   35 1   
    67   34   36 1   
    68   34   70 1   
    69   35   71 1   
    70   36   37 1   
    71   36   38 1   
    72   36   72 1   
    73   37   73 1   
    74   38   39 1   
    75   38   74 1   
    76   39   75 1   
@<TRIPOS>SUBSTRUCTURE
     1 1DM         1 TEMP              0 ****  ****    0 ROOT
