@<TRIPOS>MOLECULE
1DM
   75    78     1     0     0
SMALL
bcc


@<TRIPOS>ATOM
      1 C21         0.5360    1.6130   -1.1550 c3        1 1DM      0.129050
      2 C22         2.0360    1.9290   -1.1370 c3        1 1DM      0.126150
      3 O22         2.7490    1.0510   -0.2750 os        1 1DM     -0.414100
      4 C23         2.2360    1.0690    1.0520 c3        1 1DM      0.126150
      5 C24         0.7410    0.7330    1.0850 c3        1 1DM      0.129050
      6 N20        -0.0410    1.5740    0.1850 n3        1 1DM     -0.734600
      7 C20        -1.4510    1.2150    0.1620 c3        1 1DM      0.155300
      8 C19        -2.2240    1.7570    1.4020 c3        1 1DM      0.087700
      9 C30        -2.2200    3.3070    1.3380 c3        1 1DM      0.155300
     10 N19        -3.1150    3.9330    2.3020 n3        1 1DM     -0.734600
     11 C25        -3.3320    5.3430    1.9900 c3        1 1DM      0.129050
     12 C26        -4.2010    6.0500    3.0370 c3        1 1DM      0.126150
     13 O23        -3.6930    5.8670    4.3520 os        1 1DM     -0.414100
     14 C27        -3.5660    4.4890    4.6870 c3        1 1DM      0.126150
     15 C28        -2.6800    3.7440    3.6820 c3        1 1DM      0.129050
     16 N18        -3.5580    1.1900    1.4370 n         1 1DM     -0.528900
     17 C13        -4.0360    0.5750    2.5810 c         1 1DM      0.670700
     18 O17        -3.2890    0.2640    3.5320 o         1 1DM     -0.601100
     19 C11        -5.4950    0.2430    2.6270 ca        1 1DM     -0.124600
     20 C12        -6.1250    0.3010    3.8750 ca        1 1DM     -0.081000
     21 C10        -6.2070   -0.1240    1.4850 ca        1 1DM     -0.063000
     22 C9         -7.5750   -0.4260    1.6040 ca        1 1DM     -0.166200
     23 N14        -8.3440   -0.8120    0.3890 no        1 1DM      0.314200
     24 O15        -7.7810   -0.8250   -0.6730 o         1 1DM     -0.202500
     25 O16        -9.5050   -1.0970    0.5030 o         1 1DM     -0.202500
     26 C8         -8.2330   -0.3740    2.8400 ca        1 1DM     -0.072000
     27 C7         -7.4880   -0.0050    3.9700 ca        1 1DM      0.097100
     28 O1         -8.2010    0.1170    5.1520 os        1 1DM     -0.377900
     29 C1         -7.5670   -0.4000    6.3270 c3        1 1DM      0.309900
     30 O5         -6.6600    0.5760    6.7640 os        1 1DM     -0.429600
     31 C5         -7.2310    1.8050    7.2310 c3        1 1DM      0.104100
     32 C6         -6.0430    2.6160    7.7630 c3        1 1DM      0.141400
     33 O6         -5.0860    2.8290    6.7490 oh        1 1DM     -0.600800
     34 C4         -8.2950    1.5940    8.3130 c3        1 1DM      0.127100
     35 O4         -7.6650    1.0960    9.4790 oh        1 1DM     -0.593800
     36 C3         -9.3600    0.6140    7.7930 c3        1 1DM      0.076100
     37 O3        -10.2500    0.3750    8.8700 oh        1 1DM     -0.603800
     38 C2         -8.6940   -0.6920    7.3340 c3        1 1DM      0.091100
     39 O2         -9.6490   -1.5810    6.8010 oh        1 1DM     -0.586800
     40 H211        0.3840    0.6360   -1.7000 h1        1 1DM      0.043575
     41 H212        0.0100    2.4210   -1.7350 h1        1 1DM      0.043575
     42 H221        2.4790    1.7480   -2.1510 h1        1 1DM      0.056325
     43 H222        2.2130    2.9910   -0.8220 h1        1 1DM      0.056325
     44 H231        2.4280    2.0730    1.5150 h1        1 1DM      0.056325
     45 H232        2.8200    0.2780    1.5890 h1        1 1DM      0.056325
     46 H241        0.6170   -0.3620    0.8390 h1        1 1DM      0.043575
     47 H242        0.3620    0.8970    2.1310 h1        1 1DM      0.043575
     48 H201       -1.9190    1.6540   -0.7650 h1        1 1DM      0.046700
     49 H202       -1.5890    0.0950    0.1150 h1        1 1DM      0.046700
     50 H19        -1.6830    1.4320    2.3410 h1        1 1DM      0.092700
     51 H301       -2.5500    3.6240    0.3080 h1        1 1DM      0.046700
     52 H302       -1.1510    3.6420    1.4750 h1        1 1DM      0.046700
     53 H251       -2.3550    5.9020    1.9020 h1        1 1DM      0.043575
     54 H252       -3.8550    5.4000    0.9960 h1        1 1DM      0.043575
     55 H261       -4.1710    7.1590    2.8750 h1        1 1DM      0.056325
     56 H262       -5.2590    5.6810    2.9870 h1        1 1DM      0.056325
     57 H271       -4.5830    4.0190    4.7510 h1        1 1DM      0.056325
     58 H272       -3.0900    4.4860    5.7020 h1        1 1DM      0.056325
     59 H281       -1.6120    4.0820    3.8280 h1        1 1DM      0.043575
     60 H282       -2.7310    2.6420    3.9100 h1        1 1DM      0.043575
     61 H18        -4.2250    1.6310    0.8440 hn        1 1DM      0.309500
     62 H12        -5.5480    0.5810    4.7750 ha        1 1DM      0.188000
     63 H10        -5.7150   -0.1950    0.4990 ha        1 1DM      0.179000
     64 H8         -9.3070   -0.6080    2.9300 ha        1 1DM      0.184000
     65 H1         -6.9460   -1.3120    6.1060 h2        1 1DM      0.107700
     66 H5         -7.7070    2.3230    6.3520 h1        1 1DM      0.069700
     67 H61        -6.3940    3.6380    8.0620 h1        1 1DM      0.069700
     68 H62        -5.5880    2.0870    8.6420 h1        1 1DM      0.069700
     69 HO6        -4.7190    1.9660    6.5150 ho        1 1DM      0.413000
     70 H4         -8.7870    2.5810    8.5480 h1        1 1DM      0.062700
     71 HO4        -8.3730    0.8750   10.1010 ho        1 1DM      0.426000
     72 H3         -9.9220    1.0770    6.9340 h1        1 1DM      0.060700
     73 HO3       -10.7680   -0.4080    8.6380 ho        1 1DM      0.427000
     74 H2         -8.2520   -1.2270    8.2230 h1        1 1DM      0.117700
     75 HO2        -9.9840   -1.1930    5.9800 ho        1 1DM      0.417000
@<TRIPOS>BOND
     1    1    2 1   
     2    1    6 1   
     3    1   40 1   
     4    1   41 1   
     5    2    3 1   
     6    2   42 1   
     7    2   43 1   
     8    3    4 1   
     9    4    5 1   
    10    4   44 1   
    11    4   45 1   
    12    5    6 1   
    13    5   46 1   
    14    5   47 1   
    15    6    7 1   
    16    7    8 1   
    17    7   48 1   
    18    7   49 1   
    19    8    9 1   
    20    8   16 1   
    21    8   50 1   
    22    9   10 1   
    23    9   51 1   
    24    9   52 1   
    25   10   11 1   
    26   10   15 1   
    27   11   12 1   
    28   11   53 1   
    29   11   54 1   
    30   12   13 1   
    31   12   55 1   
    32   12   56 1   
    33   13   14 1   
    34   14   15 1   
    35   14   57 1   
    36   14   58 1   
    37   15   59 1   
    38   15   60 1   
    39   16   17 1   
    40   16   61 1   
    41   17   18 2   
    42   17   19 1   
    43   19   20 ar  
    44   19   21 ar  
    45   20   27 ar  
    46   20   62 1   
    47   21   22 ar  
    48   21   63 1   
    49   22   23 1   
    50   22   26 ar  
    51   23   24 1   
    52   23   25 1   
    53   26   27 ar  
    54   26   64 1   
    55   27   28 1   
    56   28   29 1   
    57   29   30 1   
    58   29   38 1   
    59   29   65 1   
    60   30   31 1   
    61   31   32 1   
    62   31   34 1   
    63   31   66 1   
    64   32   33 1   
    65   32   67 1   
    66   32   68 1   
    67   33   69 1   
    68   34   35 1   
    69   34   36 1   
    70   34   70 1   
    71   35   71 1   
    72   36   37 1   
    73   36   38 1   
    74   36   72 1   
    75   37   73 1   
    76   38   39 1   
    77   38   74 1   
    78   39   75 1   
@<TRIPOS>SUBSTRUCTURE
     1 1DM         1 TEMP              0 ****  ****    0 ROOT
