@<TRIPOS>MOLECULE
1DM
   75    78     1     0     0
SMALL
bcc


@<TRIPOS>ATOM
      1 C21         6.8120    1.5950    1.8110 c3        1 1DM      0.128800
      2 C22         8.0200    2.2930    1.1750 c3        1 1DM      0.125900
      3 O22         7.7380    3.6510    0.8620 os        1 1DM     -0.414100
      4 C23         6.6030    3.7810    0.0150 c3        1 1DM      0.125900
      5 C24         5.3620    3.1180    0.6250 c3        1 1DM      0.128800
      6 N20         5.6030    1.7310    1.0070 n3        1 1DM     -0.733600
      7 C20         4.4490    1.1160    1.6470 c3        1 1DM      0.154800
      8 C19         3.3620    0.6780    0.6190 c3        1 1DM      0.087700
      9 C30         3.9490   -0.4640   -0.2510 c3        1 1DM      0.154800
     10 N19         2.9640   -1.1030   -1.1130 n3        1 1DM     -0.733600
     11 C25         3.4650   -2.3660   -1.6470 c3        1 1DM      0.128800
     12 C26         2.4920   -3.0150   -2.6370 c3        1 1DM      0.125900
     13 O23         2.1210   -2.1140   -3.6720 os        1 1DM     -0.414100
     14 C27         1.5450   -0.9190   -3.1560 c3        1 1DM      0.125900
     15 C28         2.4840   -0.2170   -2.1690 c3        1 1DM      0.128800
     16 N18         2.1500    0.2970    1.3180 n         1 1DM     -0.529900
     17 C13         0.9260    0.8380    0.9650 c         1 1DM      0.672700
     18 O17         0.8260    1.8200    0.2010 o         1 1DM     -0.602100
     19 C11        -0.2970    0.2290    1.5790 ca        1 1DM     -0.124600
     20 C12        -1.4660    0.2240    0.8110 ca        1 1DM     -0.080000
     21 C10        -0.2900   -0.2990    2.8710 ca        1 1DM     -0.063000
     22 C9         -1.4750   -0.8490    3.3870 ca        1 1DM     -0.166200
     23 N14        -1.4740   -1.4210    4.7610 no        1 1DM      0.314200
     24 O15        -0.4470   -1.4290    5.3850 o         1 1DM     -0.202500
     25 O16        -2.4990   -1.8620    5.2070 o         1 1DM     -0.202500
     26 C8         -2.6610   -0.8680    2.6400 ca        1 1DM     -0.072000
     27 C7         -2.6370   -0.3260    1.3470 ca        1 1DM      0.098100
     28 O1         -3.8090   -0.4470    0.6180 os        1 1DM     -0.377900
     29 C1         -4.1910    0.6940   -0.1580 c3        1 1DM      0.309900
     30 O5         -3.4420    0.6490   -1.3430 os        1 1DM     -0.429600
     31 C5         -3.7250   -0.4440   -2.2260 c3        1 1DM      0.104100
     32 C6         -2.8750   -0.1740   -3.4730 c3        1 1DM      0.141400
     33 O6         -1.5060   -0.0960   -3.1400 oh        1 1DM     -0.600800
     34 C4         -5.2130   -0.5580   -2.5740 c3        1 1DM      0.127100
     35 O4         -5.5850    0.5630   -3.3550 oh        1 1DM     -0.593800
     36 C3         -6.0330   -0.6290   -1.2750 c3        1 1DM      0.076100
     37 O3         -7.3980   -0.6210   -1.6580 oh        1 1DM     -0.603800
     38 C2         -5.7090    0.5770   -0.3810 c3        1 1DM      0.091100
     39 O2         -6.4090    0.4980    0.8400 oh        1 1DM     -0.586800
     40 H211        6.6680    2.0100    2.8510 h1        1 1DM      0.043450
     41 H212        7.0450    0.4970    1.9030 h1        1 1DM      0.043450
     42 H221        8.8660    2.3440    1.9090 h1        1 1DM      0.056575
     43 H222        8.3450    1.7530    0.2460 h1        1 1DM      0.056575
     44 H231        6.4440    4.8880   -0.0730 h1        1 1DM      0.056575
     45 H232        6.8330    3.3430   -0.9920 h1        1 1DM      0.056575
     46 H241        4.5390    3.1310   -0.1410 h1        1 1DM      0.043450
     47 H242        5.0250    3.7380    1.5070 h1        1 1DM      0.043450
     48 H201        3.9750    1.8150    2.3970 h1        1 1DM      0.046950
     49 H202        4.7930    0.2010    2.2070 h1        1 1DM      0.046950
     50 H19         3.1160    1.5570   -0.0510 h1        1 1DM      0.093700
     51 H301        4.8050   -0.0250   -0.8410 h1        1 1DM      0.046950
     52 H302        4.3720   -1.2540    0.4320 h1        1 1DM      0.046950
     53 H251        4.4600   -2.2310   -2.1630 h1        1 1DM      0.043450
     54 H252        3.6160   -3.0700   -0.7820 h1        1 1DM      0.043450
     55 H261        2.9950   -3.8640   -3.1690 h1        1 1DM      0.056575
     56 H262        1.5730   -3.3810   -2.1080 h1        1 1DM      0.056575
     57 H271        1.3820   -0.2740   -4.0590 h1        1 1DM      0.056575
     58 H272        0.5570   -1.1510   -2.6770 h1        1 1DM      0.056575
     59 H281        1.9170    0.6240   -1.6770 h1        1 1DM      0.043450
     60 H282        3.3410    0.2320   -2.7500 h1        1 1DM      0.043450
     61 H18         2.1500   -0.6190    1.7060 hn        1 1DM      0.309500
     62 H12        -1.4630    0.6560   -0.2070 ha        1 1DM      0.188000
     63 H10         0.6210   -0.2800    3.4940 ha        1 1DM      0.179000
     64 H8         -3.5900   -1.3030    3.0470 ha        1 1DM      0.184000
     65 H1         -3.9060    1.6610    0.3430 h2        1 1DM      0.107700
     66 H5         -3.3990   -1.3950   -1.7190 h1        1 1DM      0.069700
     67 H61        -3.2240    0.7690   -3.9710 h1        1 1DM      0.069700
     68 H62        -2.9620   -1.0420   -4.1790 h1        1 1DM      0.069700
     69 HO6        -1.3930    0.6840   -2.5800 ho        1 1DM      0.413000
     70 H4         -5.3850   -1.4990   -3.1690 h1        1 1DM      0.062700
     71 HO4        -6.5450    0.5150   -3.4660 ho        1 1DM      0.426000
     72 H3         -5.8010   -1.5830   -0.7250 h1        1 1DM      0.060700
     73 HO3        -7.9120   -0.4220   -0.8630 ho        1 1DM      0.427000
     74 H2         -6.0740    1.5250   -0.8730 h1        1 1DM      0.117700
     75 HO2        -6.0530   -0.2550    1.3330 ho        1 1DM      0.417000
@<TRIPOS>BOND
     1    1    2 1   
     2    1    6 1   
     3    1   40 1   
     4    1   41 1   
     5    2    3 1   
     6    2   42 1   
     7    2   43 1   
     8    3    4 1   
     9    4    5 1   
    10    4   44 1   
    11    4   45 1   
    12    5    6 1   
    13    5   46 1   
    14    5   47 1   
    15    6    7 1   
    16    7    8 1   
    17    7   48 1   
    18    7   49 1   
    19    8    9 1   
    20    8   16 1   
    21    8   50 1   
    22    9   10 1   
    23    9   51 1   
    24    9   52 1   
    25   10   11 1   
    26   10   15 1   
    27   11   12 1   
    28   11   53 1   
    29   11   54 1   
    30   12   13 1   
    31   12   55 1   
    32   12   56 1   
    33   13   14 1   
    34   14   15 1   
    35   14   57 1   
    36   14   58 1   
    37   15   59 1   
    38   15   60 1   
    39   16   17 1   
    40   16   61 1   
    41   17   18 2   
    42   17   19 1   
    43   19   20 ar  
    44   19   21 ar  
    45   20   27 ar  
    46   20   62 1   
    47   21   22 ar  
    48   21   63 1   
    49   22   23 1   
    50   22   26 ar  
    51   23   24 1   
    52   23   25 1   
    53   26   27 ar  
    54   26   64 1   
    55   27   28 1   
    56   28   29 1   
    57   29   30 1   
    58   29   38 1   
    59   29   65 1   
    60   30   31 1   
    61   31   32 1   
    62   31   34 1   
    63   31   66 1   
    64   32   33 1   
    65   32   67 1   
    66   32   68 1   
    67   33   69 1   
    68   34   35 1   
    69   34   36 1   
    70   34   70 1   
    71   35   71 1   
    72   36   37 1   
    73   36   38 1   
    74   36   72 1   
    75   37   73 1   
    76   38   39 1   
    77   38   74 1   
    78   39   75 1   
@<TRIPOS>SUBSTRUCTURE
     1 1DM         1 TEMP              0 ****  ****    0 ROOT
