@<TRIPOS>MOLECULE
1DM
   76    79     1     0     0
SMALL
bcc


@<TRIPOS>ATOM
      1 C21        -0.7930    0.9350   -1.0200 c3        1 1DM      0.128300
      2 C22         0.6400    0.7520   -1.5410 c3        1 1DM      0.125150
      3 O22         1.3600   -0.1880   -0.7550 os        1 1DM     -0.394600
      4 C23         1.4150    0.1920    0.6130 c3        1 1DM      0.125150
      5 C24         0.0060    0.3530    1.2000 c3        1 1DM      0.128300
      6 N20        -0.8270    1.2500    0.4060 n3        1 1DM     -0.759600
      7 C20        -2.1720    1.3840    0.9230 c3        1 1DM      0.156800
      8 C19        -2.2470    2.5350    1.9680 c3        1 1DM      0.112500
      9 C30        -2.0090    3.8930    1.2580 c3        1 1DM      0.156800
     10 N19        -2.2870    5.0230    2.1280 n3        1 1DM     -0.759600
     11 C25        -2.8050    6.1800    1.3990 c3        1 1DM      0.128300
     12 C26        -3.0350    7.3910    2.3140 c3        1 1DM      0.125150
     13 O23        -1.8710    7.7040    3.0650 os        1 1DM     -0.394600
     14 C27        -1.4250    6.6060    3.8480 c3        1 1DM      0.125150
     15 C28        -1.1490    5.3750    2.9750 c3        1 1DM      0.128300
     16 N18        -3.5750    2.5240    2.6800 ny        1 1DM     -0.670800
     17 C13        -3.7730    1.3000    3.5430 c         1 1DM      0.572700
     18 O17        -2.9100    1.0750    4.3790 o         1 1DM     -0.407100
     19 C11        -5.0180    0.5540    3.3050 ca        1 1DM     -0.170600
     20 C12        -5.7570    0.1540    4.4280 ca        1 1DM     -0.100000
     21 C10        -5.4380    0.2430    2.0120 ca        1 1DM     -0.091000
     22 C9         -6.6320   -0.4780    1.8480 ca        1 1DM     -0.148200
     23 N14        -7.0830   -0.8110    0.4610 no        1 1DM      0.317200
     24 O15        -6.4300   -0.3900   -0.4560 o         1 1DM     -0.177000
     25 O16        -8.0690   -1.4710    0.3190 o         1 1DM     -0.177000
     26 C8         -7.4000   -0.8840    2.9430 ca        1 1DM     -0.045000
     27 C7         -6.9520   -0.5530    4.2400 ca        1 1DM      0.147100
     28 O1         -7.8010   -0.9310    5.2500 os        1 1DM     -0.332900
     29 C1         -7.2840   -0.9540    6.5890 c3        1 1DM      0.300900
     30 O5         -7.0520    0.3810    6.9460 os        1 1DM     -0.425600
     31 C5         -8.2160    1.2040    7.1190 c3        1 1DM      0.112100
     32 C6         -7.6740    2.5510    7.6160 c3        1 1DM      0.135400
     33 O6         -7.3700    3.3950    6.5240 oh        1 1DM     -0.607800
     34 C4         -9.2280    0.5910    8.0920 c3        1 1DM      0.124100
     35 O4         -8.6470    0.5670    9.3820 oh        1 1DM     -0.592800
     36 C3         -9.6000   -0.8240    7.6130 c3        1 1DM      0.115100
     37 O3        -10.4440   -1.3720    8.6060 oh        1 1DM     -0.597800
     38 C2         -8.3220   -1.6690    7.4730 c3        1 1DM      0.094100
     39 O2         -8.7160   -2.9060    6.9200 oh        1 1DM     -0.576800
     40 H211       -1.3770   -0.0030   -1.2460 h1        1 1DM      0.048950
     41 H212       -1.2670    1.7900   -1.5770 h1        1 1DM      0.048950
     42 H221        1.1840    1.7330   -1.5570 h1        1 1DM      0.067200
     43 H222        0.6180    0.3030   -2.5690 h1        1 1DM      0.067200
     44 H231        2.0020    1.1420    0.7230 h1        1 1DM      0.067200
     45 H232        1.9470   -0.6550    1.1210 h1        1 1DM      0.067200
     46 H241       -0.4610   -0.6710    1.2880 h1        1 1DM      0.048950
     47 H242        0.0960    0.7870    2.2350 h1        1 1DM      0.048950
     48 H201       -2.8850    1.6200    0.0810 h1        1 1DM      0.066700
     49 H202       -2.5300    0.4320    1.4210 h1        1 1DM      0.066700
     50 H19        -1.4620    2.3810    2.7690 hx        1 1DM      0.121700
     51 H301       -2.6690    3.9430    0.3460 h1        1 1DM      0.066700
     52 H302       -0.9360    3.8710    0.9010 h1        1 1DM      0.066700
     53 H251       -2.1020    6.4870    0.5720 h1        1 1DM      0.048950
     54 H252       -3.7880    5.8900    0.9350 h1        1 1DM      0.048950
     55 H261       -3.2260    8.3070    1.6940 h1        1 1DM      0.067200
     56 H262       -3.8970    7.2070    3.0080 h1        1 1DM      0.067200
     57 H271       -0.4720    6.9640    4.3190 h1        1 1DM      0.067200
     58 H272       -2.1840    6.3710    4.6410 h1        1 1DM      0.067200
     59 H281       -0.9310    4.4970    3.6450 h1        1 1DM      0.048950
     60 H282       -0.2260    5.5790    2.3570 h1        1 1DM      0.048950
     61 H18        -4.3300    2.5960    1.9930 hn        1 1DM      0.469800
     62 H12        -5.4070    0.4130    5.4450 ha        1 1DM      0.199000
     63 H10        -4.8450    0.5210    1.1220 ha        1 1DM      0.169000
     64 H8         -8.3420   -1.4500    2.8140 ha        1 1DM      0.211000
     65 H1         -6.2770   -1.4580    6.6260 h2        1 1DM      0.090700
     66 H5         -8.7140    1.3180    6.1150 h1        1 1DM      0.057700
     67 H61        -6.7000    2.3990    8.1550 h1        1 1DM      0.081700
     68 H62        -8.4190    3.0220    8.3080 h1        1 1DM      0.081700
     69 HO6        -8.2020    3.7660    6.2050 ho        1 1DM      0.402000
     70 H4        -10.1610    1.2230    8.1110 h1        1 1DM      0.068700
     71 HO4        -9.2750    0.1100    9.9610 ho        1 1DM      0.435000
     72 H3        -10.1310   -0.7800    6.6230 h1        1 1DM      0.073700
     73 HO3       -10.6720   -2.2670    8.3180 ho        1 1DM      0.436000
     74 H2         -7.8530   -1.8020    8.4900 h1        1 1DM      0.089700
     75 HO2        -7.9780   -3.5190    7.0280 ho        1 1DM      0.417000
     76 H182       -3.6110    3.3580    3.2900 hn        1 1DM      0.469800
@<TRIPOS>BOND
     1    1    2 1   
     2    1    6 1   
     3    1   40 1   
     4    1   41 1   
     5    2    3 1   
     6    2   42 1   
     7    2   43 1   
     8    3    4 1   
     9    4    5 1   
    10    4   44 1   
    11    4   45 1   
    12    5    6 1   
    13    5   46 1   
    14    5   47 1   
    15    6    7 1   
    16    7    8 1   
    17    7   48 1   
    18    7   49 1   
    19    8    9 1   
    20    8   16 1   
    21    8   50 1   
    22    9   10 1   
    23    9   51 1   
    24    9   52 1   
    25   10   11 1   
    26   10   15 1   
    27   11   12 1   
    28   11   53 1   
    29   11   54 1   
    30   12   13 1   
    31   12   55 1   
    32   12   56 1   
    33   13   14 1   
    34   14   15 1   
    35   14   57 1   
    36   14   58 1   
    37   15   59 1   
    38   15   60 1   
    39   16   17 1   
    40   16   61 1   
    41   16   76 1   
    42   17   18 2   
    43   17   19 1   
    44   19   20 ar  
    45   19   21 ar  
    46   20   27 ar  
    47   20   62 1   
    48   21   22 ar  
    49   21   63 1   
    50   22   23 1   
    51   22   26 ar  
    52   23   24 1   
    53   23   25 1   
    54   26   27 ar  
    55   26   64 1   
    56   27   28 1   
    57   28   29 1   
    58   29   30 1   
    59   29   38 1   
    60   29   65 1   
    61   30   31 1   
    62   31   32 1   
    63   31   34 1   
    64   31   66 1   
    65   32   33 1   
    66   32   67 1   
    67   32   68 1   
    68   33   69 1   
    69   34   35 1   
    70   34   36 1   
    71   34   70 1   
    72   35   71 1   
    73   36   37 1   
    74   36   38 1   
    75   36   72 1   
    76   37   73 1   
    77   38   39 1   
    78   38   74 1   
    79   39   75 1   
@<TRIPOS>SUBSTRUCTURE
     1 1DM         1 TEMP              0 ****  ****    0 ROOT
