@<TRIPOS>MOLECULE
1DM
   76    79     1     0     0
SMALL
bcc


@<TRIPOS>ATOM
      1 C21        -0.7140    0.8790   -0.8500 c3        1 1DM      0.128050
      2 C22         0.7520    0.7280   -1.2800 c3        1 1DM      0.125150
      3 O22         1.4750   -0.0960   -0.3760 os        1 1DM     -0.394100
      4 C23         1.4370    0.4090    0.9510 c3        1 1DM      0.125150
      5 C24        -0.0080    0.5460    1.4520 c3        1 1DM      0.128050
      6 N20        -0.8410    1.3200    0.5360 n3        1 1DM     -0.759600
      7 C20        -2.2170    1.4260    0.9720 c3        1 1DM      0.156300
      8 C19        -2.4050    2.6600    1.9020 c3        1 1DM      0.112500
      9 C30        -2.1930    3.9600    1.0840 c3        1 1DM      0.156300
     10 N19        -2.5780    5.1470    1.8310 n3        1 1DM     -0.759600
     11 C25        -3.1020    6.2060    0.9700 c3        1 1DM      0.128050
     12 C26        -3.4450    7.4790    1.7550 c3        1 1DM      0.125150
     13 O23        -2.3450    7.9180    2.5390 os        1 1DM     -0.394100
     14 C27        -1.8990    6.9190    3.4440 c3        1 1DM      0.125150
     15 C28        -1.5110    5.6310    2.7050 c3        1 1DM      0.128050
     16 N18        -3.7680    2.6420    2.5440 n4        1 1DM     -0.670800
     17 C13        -3.9570    1.4880    3.5020 c         1 1DM      0.573700
     18 O17        -3.1260    1.3730    4.3900 o         1 1DM     -0.403100
     19 C11        -5.1570    0.6690    3.2730 ca        1 1DM     -0.184600
     20 C12        -5.9480    0.3500    4.3860 ca        1 1DM     -0.079000
     21 C10        -5.4810    0.2030    1.9970 ca        1 1DM     -0.076000
     22 C9         -6.6230   -0.5970    1.8400 ca        1 1DM     -0.158200
     23 N14        -6.9710   -1.0910    0.4730 no        1 1DM      0.317200
     24 O15        -6.2950   -0.7160   -0.4470 o         1 1DM     -0.177000
     25 O16        -7.9020   -1.8310    0.3480 o         1 1DM     -0.177000
     26 C8         -7.4330   -0.9380    2.9310 ca        1 1DM     -0.034000
     27 C7         -7.0830   -0.4530    4.2060 ca        1 1DM      0.125100
     28 O1         -7.9850   -0.7150    5.2130 os        1 1DM     -0.342900
     29 C1         -7.4600   -1.1700    6.4680 c3        1 1DM      0.307900
     30 O5         -6.8140   -0.0710    7.0540 os        1 1DM     -0.438600
     31 C5         -7.6680    1.0260    7.4140 c3        1 1DM      0.106100
     32 C6         -6.7330    2.0540    8.0620 c3        1 1DM      0.137400
     33 O6         -5.5430    2.1640    7.3040 oh        1 1DM     -0.615800
     34 C4         -8.8090    0.5980    8.3410 c3        1 1DM      0.126100
     35 O4         -8.2510    0.1740    9.5710 oh        1 1DM     -0.595800
     36 C3         -9.6030   -0.5360    7.6660 c3        1 1DM      0.115100
     37 O3        -10.5580   -0.9720    8.6120 oh        1 1DM     -0.597800
     38 C2         -8.6480   -1.6870    7.3030 c3        1 1DM      0.093100
     39 O2         -9.4100   -2.6360    6.5910 oh        1 1DM     -0.577800
     40 H211       -1.2380   -0.1060   -1.0160 h1        1 1DM      0.049075
     41 H212       -1.1990    1.6540   -1.5070 h1        1 1DM      0.049075
     42 H221        1.2470    1.7310   -1.3610 h1        1 1DM      0.067200
     43 H222        0.8080    0.1870   -2.2620 h1        1 1DM      0.067200
     44 H231        1.9690    1.3950    1.0010 h1        1 1DM      0.067200
     45 H232        1.9820   -0.3580    1.5620 h1        1 1DM      0.067200
     46 H241        0.0050    1.0760    2.4440 h1        1 1DM      0.049075
     47 H242       -0.4280   -0.4900    1.6120 h1        1 1DM      0.049075
     48 H201       -2.5530    0.5050    1.5380 h1        1 1DM      0.066450
     49 H202       -2.8940    1.5480    0.0790 h1        1 1DM      0.066450
     50 H19        -1.6590    2.6200    2.7530 hx        1 1DM      0.122700
     51 H301       -1.1020    3.9650    0.7890 h1        1 1DM      0.066450
     52 H302       -2.8010    3.8920    0.1370 h1        1 1DM      0.066450
     53 H251       -2.3650    6.4740    0.1590 h1        1 1DM      0.049075
     54 H252       -4.0400    5.8250    0.4790 h1        1 1DM      0.049075
     55 H261       -3.6390    8.3260    1.0430 h1        1 1DM      0.067200
     56 H262       -4.3390    7.3140    2.4110 h1        1 1DM      0.067200
     57 H271       -0.9940    7.3670    3.9340 h1        1 1DM      0.067200
     58 H272       -2.6920    6.7160    4.2100 h1        1 1DM      0.067200
     59 H281       -0.5630    5.8270    2.1240 h1        1 1DM      0.049075
     60 H282       -1.2950    4.8290    3.4640 h1        1 1DM      0.049075
     61 H18        -3.8760    3.5220    3.0750 hn        1 1DM      0.469300
     62 H12        -5.6860    0.7340    5.3930 ha        1 1DM      0.210000
     63 H10        -4.8470    0.4240    1.1190 ha        1 1DM      0.169000
     64 H8         -8.3360   -1.5660    2.8060 ha        1 1DM      0.211000
     65 H1         -6.6620   -1.9490    6.3210 h2        1 1DM      0.092700
     66 H5         -8.1150    1.4400    6.4670 h1        1 1DM      0.059700
     67 H61        -6.5150    1.7630    9.1230 h1        1 1DM      0.078200
     68 H62        -7.2090    3.0690    8.0270 h1        1 1DM      0.078200
     69 HO6        -4.9920    1.4060    7.5400 ho        1 1DM      0.415000
     70 H4         -9.4960    1.4720    8.5200 h1        1 1DM      0.071700
     71 HO4        -8.9850   -0.1590   10.1090 ho        1 1DM      0.436000
     72 H3        -10.1100   -0.1620    6.7340 h1        1 1DM      0.073700
     73 HO3       -11.0540   -1.6930    8.2000 ho        1 1DM      0.435000
     74 H2         -8.2190   -2.1250    8.2500 h1        1 1DM      0.089700
     75 HO2        -8.9070   -3.4600    6.5770 ho        1 1DM      0.416000
     76 H182       -4.4870    2.6160    1.8150 hn        1 1DM      0.469300
@<TRIPOS>BOND
     1    1    2 1   
     2    1    6 1   
     3    1   40 1   
     4    1   41 1   
     5    2    3 1   
     6    2   42 1   
     7    2   43 1   
     8    3    4 1   
     9    4    5 1   
    10    4   44 1   
    11    4   45 1   
    12    5    6 1   
    13    5   46 1   
    14    5   47 1   
    15    6    7 1   
    16    7    8 1   
    17    7   48 1   
    18    7   49 1   
    19    8    9 1   
    20    8   16 1   
    21    8   50 1   
    22    9   10 1   
    23    9   51 1   
    24    9   52 1   
    25   10   11 1   
    26   10   15 1   
    27   11   12 1   
    28   11   53 1   
    29   11   54 1   
    30   12   13 1   
    31   12   55 1   
    32   12   56 1   
    33   13   14 1   
    34   14   15 1   
    35   14   57 1   
    36   14   58 1   
    37   15   59 1   
    38   15   60 1   
    39   16   17 1   
    40   16   61 1   
    41   16   76 1   
    42   17   18 2   
    43   17   19 1   
    44   19   20 ar  
    45   19   21 ar  
    46   20   27 ar  
    47   20   62 1   
    48   21   22 ar  
    49   21   63 1   
    50   22   23 1   
    51   22   26 ar  
    52   23   24 1   
    53   23   25 1   
    54   26   27 ar  
    55   26   64 1   
    56   27   28 1   
    57   28   29 1   
    58   29   30 1   
    59   29   38 1   
    60   29   65 1   
    61   30   31 1   
    62   31   32 1   
    63   31   34 1   
    64   31   66 1   
    65   32   33 1   
    66   32   67 1   
    67   32   68 1   
    68   33   69 1   
    69   34   35 1   
    70   34   36 1   
    71   34   70 1   
    72   35   71 1   
    73   36   37 1   
    74   36   38 1   
    75   36   72 1   
    76   37   73 1   
    77   38   39 1   
    78   38   74 1   
    79   39   75 1   
@<TRIPOS>SUBSTRUCTURE
     1 1DM         1 TEMP              0 ****  ****    0 ROOT
