@<TRIPOS>MOLECULE
1DN
   47    51     1     0     0
SMALL
bcc


@<TRIPOS>ATOM
      1 N12        -0.0500    0.0570    0.1700 nv        1 1DN     -0.935500
      2 C3          1.3380   -0.0510    0.1220 ca        1 1DN      0.923900
      3 N2          2.0010   -0.0990    1.3580 nb        1 1DN     -0.828000
      4 N4          1.9400   -0.0680   -1.1080 nb        1 1DN     -0.800000
      5 C5          3.3100   -0.0550   -1.1200 ca        1 1DN      0.498600
      6 C10         3.9850   -0.0490   -2.3860 ca        1 1DN     -0.214300
      7 C9          5.3720   -0.0240   -2.4430 ca        1 1DN      0.049800
      8 C8          6.1360    0.0180   -1.2350 ca        1 1DN     -0.170000
      9 C7          5.5010    0.0100   -0.0180 ca        1 1DN     -0.061000
     10 C6          4.0940   -0.0420    0.0730 ca        1 1DN     -0.342600
     11 C1          3.3500   -0.0740    1.3320 ca        1 1DN      0.738200
     12 N11         4.0290   -0.0370    2.5370 nv        1 1DN     -0.949500
     13 N13         6.0400   -0.0240   -3.6840 na        1 1DN     -0.111400
     14 C17         6.0670   -1.0550   -4.6750 cc        1 1DN      0.378800
     15 C22         5.3080   -2.2930   -4.5450 cc        1 1DN      0.350100
     16 N26         5.7650   -3.4770   -4.9860 nd        1 1DN     -0.583000
     17 C25         4.8050   -4.4430   -4.7640 cd        1 1DN      0.324200
     18 C24         3.6350   -3.9890   -4.1610 cc        1 1DN     -0.273400
     19 S23         3.7300   -2.3570   -3.8600 ss        1 1DN     -0.015300
     20 N16         6.8760   -0.7530   -5.7120 nd        1 1DN     -0.506100
     21 C15         7.4300    0.5050   -5.4100 ca        1 1DN      0.064400
     22 C21         8.3340    1.2980   -6.1350 ca        1 1DN     -0.125000
     23 C20         8.7160    2.5160   -5.5930 ca        1 1DN      0.089100
     24 O29         9.5960    3.3970   -6.1930 os        1 1DN     -0.305900
     25 C30        10.1270    2.9850   -7.4470 c3        1 1DN      0.108700
     26 C19         8.2080    2.9660   -4.3290 ca        1 1DN      0.131100
     27 C18         7.3130    2.2010   -3.5920 ca        1 1DN     -0.192000
     28 C14         6.9270    0.9680   -4.1360 ca        1 1DN     -0.052200
     29 O27         8.6900    4.1950   -3.9290 os        1 1DN     -0.299900
     30 C28         8.1470    4.7160   -2.7210 c3        1 1DN      0.108700
     31 H1         -0.5000   -0.1500    1.0300 hn        1 1DN      0.434800
     32 H2         -0.5530   -0.1240   -0.6660 hn        1 1DN      0.434800
     33 H3          3.3700   -0.0110   -3.3040 ha        1 1DN      0.169000
     34 H4          7.2350    0.0570   -1.2910 ha        1 1DN      0.154000
     35 H5          6.1210    0.0540    0.8910 ha        1 1DN      0.131000
     36 H6          4.9740   -0.3340    2.5380 hn        1 1DN      0.430800
     37 H7          3.5160   -0.1670    3.3780 hn        1 1DN      0.430800
     38 H8          5.0190   -5.4740   -5.0690 h4        1 1DN      0.047100
     39 H9          2.7800   -4.6140   -3.9130 h4        1 1DN      0.182000
     40 H10         8.7150    0.9450   -7.1040 ha        1 1DN      0.161000
     41 H11         9.3120    2.8580   -8.2000 h1        1 1DN      0.045033
     42 H12        10.7100    2.0380   -7.3380 h1        1 1DN      0.045033
     43 H13        10.8000    3.8330   -7.7320 h1        1 1DN      0.045033
     44 H14         6.9170    2.5350   -2.6250 ha        1 1DN      0.151000
     45 H15         8.4130    4.0610   -1.8550 h1        1 1DN      0.045033
     46 H16         8.6420    5.7150   -2.6260 h1        1 1DN      0.045033
     47 H17         7.0380    4.8300   -2.8000 h1        1 1DN      0.045033
@<TRIPOS>BOND
     1    1    2 1   
     2    1   31 1   
     3    1   32 1   
     4    2    3 ar  
     5    2    4 ar  
     6    3   11 ar  
     7    4    5 ar  
     8    5    6 ar  
     9    5   10 ar  
    10    6    7 ar  
    11    6   33 1   
    12    7    8 ar  
    13    7   13 1   
    14    8    9 ar  
    15    8   34 1   
    16    9   10 ar  
    17    9   35 1   
    18   10   11 ar  
    19   11   12 1   
    20   12   36 1   
    21   12   37 1   
    22   13   14 1   
    23   13   28 1   
    24   14   15 1   
    25   14   20 2   
    26   15   16 2   
    27   15   19 1   
    28   16   17 1   
    29   17   18 2   
    30   17   38 1   
    31   18   19 1   
    32   18   39 1   
    33   20   21 1   
    34   21   22 ar  
    35   21   28 ar  
    36   22   23 ar  
    37   22   40 1   
    38   23   24 1   
    39   23   26 ar  
    40   24   25 1   
    41   25   41 1   
    42   25   42 1   
    43   25   43 1   
    44   26   27 ar  
    45   26   29 1   
    46   27   28 ar  
    47   27   44 1   
    48   29   30 1   
    49   30   45 1   
    50   30   46 1   
    51   30   47 1   
@<TRIPOS>SUBSTRUCTURE
     1 1DN         1 TEMP              0 ****  ****    0 ROOT
