@<TRIPOS>MOLECULE
1DN
   49    53     1     0     0
SMALL
bcc


@<TRIPOS>ATOM
      1 N12        -0.3430   -0.5060   -0.2100 n4        1 1DN     -0.811300
      2 C3          1.1250   -0.2410   -0.1710 ca        1 1DN      0.712900
      3 N2          1.6470    0.0380    1.0910 nb        1 1DN     -0.705000
      4 N4          1.7880   -0.3060   -1.3370 nb        1 1DN     -0.588000
      5 C5          3.1450   -0.0600   -1.3010 ca        1 1DN      0.464600
      6 C10         3.8970   -0.1280   -2.4940 ca        1 1DN     -0.159300
      7 C9          5.2870    0.1020   -2.4820 ca        1 1DN      0.162800
      8 C8          5.9050    0.4960   -1.2410 ca        1 1DN     -0.063000
      9 C7          5.1870    0.5680   -0.0740 ca        1 1DN     -0.125000
     10 C6          3.8050    0.2790   -0.0500 ca        1 1DN     -0.253600
     11 C1          2.9680    0.2870    1.1090 ca        1 1DN      0.566200
     12 N11         3.5710    0.5770    2.4300 n4        1 1DN     -0.832300
     13 N13         6.0540   -0.0160   -3.6210 na        1 1DN     -0.109400
     14 C17         6.0370   -1.0630   -4.6230 cc        1 1DN      0.397800
     15 C22         5.2820   -2.2990   -4.5030 cc        1 1DN      0.258100
     16 N26         4.6500   -2.7150   -3.3780 nd        1 1DN     -0.675000
     17 C25         4.1200   -3.9570   -3.6070 cd        1 1DN      0.325200
     18 C24         4.3510   -4.4680   -4.8920 cc        1 1DN     -0.287400
     19 S23         5.2260   -3.4080   -5.7920 ss        1 1DN      0.205700
     20 N16         6.9010   -0.8210   -5.6180 nd        1 1DN     -0.502100
     21 C15         7.5370    0.4020   -5.3110 ca        1 1DN      0.097400
     22 C21         8.5150    1.1070   -6.0270 ca        1 1DN     -0.120000
     23 C20         8.9770    2.3040   -5.4920 ca        1 1DN      0.129100
     24 O29         9.9310    3.1030   -6.0700 os        1 1DN     -0.287900
     25 C30        10.4840    2.6420   -7.3040 c3        1 1DN      0.101700
     26 C19         8.4630    2.8130   -4.2500 ca        1 1DN      0.154100
     27 C18         7.4910    2.1230   -3.5270 ca        1 1DN     -0.207000
     28 C14         7.0400    0.9100   -4.0580 ca        1 1DN     -0.085200
     29 O27         9.0190    4.0060   -3.8620 os        1 1DN     -0.275900
     30 C28         8.4960    4.6080   -2.6830 c3        1 1DN      0.106700
     31 H1         -0.6370   -0.7090   -1.1790 hn        1 1DN      0.493133
     32 H2         -0.5600   -1.3150    0.3890 hn        1 1DN      0.493133
     33 H3          3.3840   -0.3790   -3.4430 ha        1 1DN      0.208000
     34 H4          6.9920    0.7150   -1.2340 ha        1 1DN      0.199000
     35 H5          5.7200    0.8470    0.8490 ha        1 1DN      0.144000
     36 H6          4.3200   -0.1090    2.6060 hn        1 1DN      0.489800
     37 H7          3.9720    1.5250    2.4100 hn        1 1DN      0.489800
     38 H8          3.5790   -4.4720   -2.8050 h4        1 1DN      0.046100
     39 H9          4.0010   -5.4440   -5.2330 h4        1 1DN      0.207000
     40 H10         8.8930    0.7130   -6.9820 ha        1 1DN      0.182000
     41 H11        11.2250    3.4440   -7.5590 h1        1 1DN      0.061367
     42 H12        10.9950    1.6590   -7.1620 h1        1 1DN      0.061367
     43 H13         9.6910    2.5710   -8.0870 h1        1 1DN      0.061367
     44 H14         7.0910    2.5260   -2.5890 ha        1 1DN      0.135000
     45 H15         7.4040    4.8160   -2.7950 h1        1 1DN      0.050367
     46 H16         9.0770    5.5640   -2.6100 h1        1 1DN      0.050367
     47 H17         8.6870    3.9600   -1.7930 h1        1 1DN      0.050367
     48 H123       -0.8490    0.3220    0.1340 hn        1 1DN      0.493133
     49 H113        2.8750    0.5210    3.1900 hn        1 1DN      0.489800
@<TRIPOS>BOND
     1    1    2 1   
     2    1   31 1   
     3    1   32 1   
     4    1   48 1   
     5    2    3 ar  
     6    2    4 ar  
     7    3   11 ar  
     8    4    5 ar  
     9    5    6 ar  
    10    5   10 ar  
    11    6    7 ar  
    12    6   33 1   
    13    7    8 ar  
    14    7   13 1   
    15    8    9 ar  
    16    8   34 1   
    17    9   10 ar  
    18    9   35 1   
    19   10   11 ar  
    20   11   12 1   
    21   12   36 1   
    22   12   37 1   
    23   12   49 1   
    24   13   14 1   
    25   13   28 1   
    26   14   15 1   
    27   14   20 2   
    28   15   16 2   
    29   15   19 1   
    30   16   17 1   
    31   17   18 2   
    32   17   38 1   
    33   18   19 1   
    34   18   39 1   
    35   20   21 1   
    36   21   22 ar  
    37   21   28 ar  
    38   22   23 ar  
    39   22   40 1   
    40   23   24 1   
    41   23   26 ar  
    42   24   25 1   
    43   25   41 1   
    44   25   42 1   
    45   25   43 1   
    46   26   27 ar  
    47   26   29 1   
    48   27   28 ar  
    49   27   44 1   
    50   29   30 1   
    51   30   45 1   
    52   30   46 1   
    53   30   47 1   
@<TRIPOS>SUBSTRUCTURE
     1 1DN         1 TEMP              0 ****  ****    0 ROOT
