@<TRIPOS>MOLECULE
1DN
   47    51     1     0     0
SMALL
bcc


@<TRIPOS>ATOM
      1 N12        -0.0490   -0.2400    0.1680 nh        1 1DN     -0.930500
      2 C3          1.3400   -0.1100    0.1220 ca        1 1DN      0.919900
      3 N2          2.0010   -0.0770    1.3590 nb        1 1DN     -0.825000
      4 N4          1.9430   -0.0880   -1.1070 nb        1 1DN     -0.798000
      5 C5          3.3140   -0.0630   -1.1170 ca        1 1DN      0.497600
      6 C10         3.9890   -0.0560   -2.3830 ca        1 1DN     -0.214300
      7 C9          5.3760   -0.0290   -2.4390 ca        1 1DN      0.049800
      8 C8          6.1390    0.0160   -1.2310 ca        1 1DN     -0.169000
      9 C7          5.5030    0.0150   -0.0150 ca        1 1DN     -0.061000
     10 C6          4.0960   -0.0330    0.0770 ca        1 1DN     -0.340600
     11 C1          3.3500   -0.0330    1.3340 ca        1 1DN      0.735200
     12 N11         4.0250    0.0740    2.5390 nh        1 1DN     -0.947500
     13 N13         6.0450   -0.0320   -3.6800 na        1 1DN     -0.111400
     14 C17         6.0660   -1.0640   -4.6710 cc        1 1DN      0.379800
     15 C22         5.3120   -2.3040   -4.5340 cc        1 1DN      0.347100
     16 N26         5.7700   -3.4870   -4.9770 nd        1 1DN     -0.583000
     17 C25         4.8160   -4.4560   -4.7470 cd        1 1DN      0.323200
     18 C24         3.6490   -4.0060   -4.1350 cc        1 1DN     -0.271400
     19 S23         3.7400   -2.3740   -3.8380 ss        1 1DN     -0.012300
     20 N16         6.8700   -0.7610   -5.7130 nd        1 1DN     -0.507100
     21 C15         7.4230    0.4970   -5.4140 ca        1 1DN      0.064400
     22 C21         8.3220    1.2920   -6.1450 ca        1 1DN     -0.124000
     23 C20         8.7050    2.5100   -5.6060 ca        1 1DN      0.089100
     24 O29         9.5800    3.3930   -6.2110 os        1 1DN     -0.305900
     25 C30        10.1070    2.9790   -7.4670 c3        1 1DN      0.108700
     26 C19         8.2040    2.9610   -4.3390 ca        1 1DN      0.130100
     27 C18         7.3140    2.1940   -3.5970 ca        1 1DN     -0.192000
     28 C14         6.9260    0.9600   -4.1380 ca        1 1DN     -0.052200
     29 O27         8.6860    4.1910   -3.9420 os        1 1DN     -0.299900
     30 C28         8.1570    4.7060   -2.7260 c3        1 1DN      0.108700
     31 H1         -0.5480   -0.0390   -0.6670 hn        1 1DN      0.431800
     32 H2         -0.4980   -0.0150    1.0250 hn        1 1DN      0.431800
     33 H3          3.3740   -0.0240   -3.3010 ha        1 1DN      0.169000
     34 H4          7.2390    0.0500   -1.2860 ha        1 1DN      0.155000
     35 H5          6.1230    0.0570    0.8940 ha        1 1DN      0.131000
     36 H6          3.5120   -0.0460    3.3810 hn        1 1DN      0.429800
     37 H7          4.9740   -0.2090    2.5530 hn        1 1DN      0.429800
     38 H8          5.0310   -5.4870   -5.0510 h4        1 1DN      0.047100
     39 H9          2.7980   -4.6340   -3.8780 h4        1 1DN      0.183000
     40 H10         8.6980    0.9380   -7.1150 ha        1 1DN      0.161000
     41 H11        10.6910    2.0330   -7.3590 h1        1 1DN      0.045367
     42 H12        10.7770    3.8280   -7.7560 h1        1 1DN      0.045367
     43 H13         9.2880    2.8500   -8.2160 h1        1 1DN      0.045367
     44 H14         6.9230    2.5280   -2.6270 ha        1 1DN      0.151000
     45 H15         8.6540    5.7050   -2.6330 h1        1 1DN      0.044700
     46 H16         8.4320    4.0490   -1.8660 h1        1 1DN      0.044700
     47 H17         7.0480    4.8220   -2.7920 h1        1 1DN      0.044700
@<TRIPOS>BOND
     1    1    2 1   
     2    1   31 1   
     3    1   32 1   
     4    2    3 ar  
     5    2    4 ar  
     6    3   11 ar  
     7    4    5 ar  
     8    5    6 ar  
     9    5   10 ar  
    10    6    7 ar  
    11    6   33 1   
    12    7    8 ar  
    13    7   13 1   
    14    8    9 ar  
    15    8   34 1   
    16    9   10 ar  
    17    9   35 1   
    18   10   11 ar  
    19   11   12 1   
    20   12   36 1   
    21   12   37 1   
    22   13   14 1   
    23   13   28 1   
    24   14   15 1   
    25   14   20 2   
    26   15   16 2   
    27   15   19 1   
    28   16   17 1   
    29   17   18 2   
    30   17   38 1   
    31   18   19 1   
    32   18   39 1   
    33   20   21 1   
    34   21   22 ar  
    35   21   28 ar  
    36   22   23 ar  
    37   22   40 1   
    38   23   24 1   
    39   23   26 ar  
    40   24   25 1   
    41   25   41 1   
    42   25   42 1   
    43   25   43 1   
    44   26   27 ar  
    45   26   29 1   
    46   27   28 ar  
    47   27   44 1   
    48   29   30 1   
    49   30   45 1   
    50   30   46 1   
    51   30   47 1   
@<TRIPOS>SUBSTRUCTURE
     1 1DN         1 TEMP              0 ****  ****    0 ROOT
