@<TRIPOS>MOLECULE
1DO
   39    38     1     0     0
SMALL
bcc


@<TRIPOS>ATOM
      1 O2S        -7.2900    0.4090   -0.0000 oh        1 1DO     -0.601800
      2 C1         -6.1730   -0.4660    0.0000 c3        1 1DO      0.131400
      3 C2         -4.9260    0.4010   -0.0000 c3        1 1DO     -0.084400
      4 C3         -3.6810   -0.4570    0.0000 c3        1 1DO     -0.078400
      5 C4         -2.4310    0.3960   -0.0000 c3        1 1DO     -0.078400
      6 C5         -1.1820   -0.4590    0.0000 c3        1 1DO     -0.079400
      7 C6          0.0680    0.3940   -0.0000 c3        1 1DO     -0.079400
      8 C7          1.3170   -0.4620    0.0000 c3        1 1DO     -0.079400
      9 C8          2.5670    0.3920   -0.0000 c3        1 1DO     -0.079400
     10 C9          3.8160   -0.4630    0.0000 c3        1 1DO     -0.079400
     11 C10         5.0660    0.3900   -0.0000 c3        1 1DO     -0.079400
     12 C11         6.3160   -0.4640    0.0000 c3        1 1DO     -0.080400
     13 C12         7.5640    0.3810   -0.0000 c3        1 1DO     -0.092100
     14 H2S        -8.0760   -0.1480    0.0000 ho        1 1DO      0.398000
     15 H1C1       -6.2000   -1.1210   -0.9120 h1        1 1DO      0.019700
     16 H1C2       -6.2000   -1.1190    0.9140 h1        1 1DO      0.019700
     17 H2C1       -4.9390    1.0670    0.9010 hc        1 1DO      0.055700
     18 H2C2       -4.9390    1.0660   -0.9030 hc        1 1DO      0.055700
     19 H3C1       -3.6810   -1.1240   -0.9020 hc        1 1DO      0.039700
     20 H3C2       -3.6810   -1.1230    0.9040 hc        1 1DO      0.039700
     21 H4C1       -2.4300    1.0630    0.9020 hc        1 1DO      0.041700
     22 H4C2       -2.4300    1.0620   -0.9030 hc        1 1DO      0.041700
     23 H5C1       -1.1830   -1.1270   -0.9020 hc        1 1DO      0.039700
     24 H5C2       -1.1830   -1.1250    0.9030 hc        1 1DO      0.039700
     25 H6C1        0.0690    1.0610    0.9020 hc        1 1DO      0.039700
     26 H6C2        0.0690    1.0600   -0.9030 hc        1 1DO      0.039700
     27 H7C1        1.3170   -1.1290   -0.9020 hc        1 1DO      0.039700
     28 H7C2        1.3170   -1.1270    0.9030 hc        1 1DO      0.039700
     29 H8C1        2.5680    1.0590    0.9020 hc        1 1DO      0.039700
     30 H8C2        2.5680    1.0580   -0.9030 hc        1 1DO      0.039700
     31 H9C1        3.8160   -1.1310   -0.9020 hc        1 1DO      0.039700
     32 H9C2        3.8160   -1.1290    0.9030 hc        1 1DO      0.039700
     33 H101        5.0670    1.0570    0.9020 hc        1 1DO      0.039700
     34 H102        5.0670    1.0560   -0.9030 hc        1 1DO      0.039700
     35 H111        6.3130   -1.1320   -0.9020 hc        1 1DO      0.038700
     36 H112        6.3130   -1.1310    0.9030 hc        1 1DO      0.038700
     37 H121        7.5970    1.0360    0.9040 hc        1 1DO      0.032700
     38 H122        8.4730   -0.2680    0.0000 hc        1 1DO      0.032700
     39 H123        7.5970    1.0340   -0.9060 hc        1 1DO      0.032700
@<TRIPOS>BOND
     1    1    2 1   
     2    1   14 1   
     3    2    3 1   
     4    2   15 1   
     5    2   16 1   
     6    3    4 1   
     7    3   17 1   
     8    3   18 1   
     9    4    5 1   
    10    4   19 1   
    11    4   20 1   
    12    5    6 1   
    13    5   21 1   
    14    5   22 1   
    15    6    7 1   
    16    6   23 1   
    17    6   24 1   
    18    7    8 1   
    19    7   25 1   
    20    7   26 1   
    21    8    9 1   
    22    8   27 1   
    23    8   28 1   
    24    9   10 1   
    25    9   29 1   
    26    9   30 1   
    27   10   11 1   
    28   10   31 1   
    29   10   32 1   
    30   11   12 1   
    31   11   33 1   
    32   11   34 1   
    33   12   13 1   
    34   12   35 1   
    35   12   36 1   
    36   13   37 1   
    37   13   38 1   
    38   13   39 1   
@<TRIPOS>SUBSTRUCTURE
     1 1DO         1 TEMP              0 ****  ****    0 ROOT
