@<TRIPOS>MOLECULE
1DO
   39    38     1     0     0
SMALL
bcc


@<TRIPOS>ATOM
      1 O2S        -6.5150    0.0190   -4.1480 oh        1 1DO     -0.601800
      2 C1         -5.1040    0.0190   -4.1480 c3        1 1DO      0.131400
      3 C2         -4.6000    0.0190   -2.7210 c3        1 1DO     -0.084400
      4 C3         -3.0870    0.0200   -2.7210 c3        1 1DO     -0.078400
      5 C4         -2.5830    0.0100   -1.2950 c3        1 1DO     -0.078400
      6 C5         -1.0700    0.0200   -1.2950 c3        1 1DO     -0.079400
      7 C6         -0.5660   -0.0030    0.1310 c3        1 1DO     -0.079400
      8 C7          0.9470    0.0180    0.1320 c3        1 1DO     -0.079400
      9 C8          1.4510   -0.0200    1.5570 c3        1 1DO     -0.079400
     10 C9          2.9640    0.0130    1.5580 c3        1 1DO     -0.079400
     11 C10         3.4690   -0.0380    2.9830 c3        1 1DO     -0.079400
     12 C11         4.9810    0.0040    2.9840 c3        1 1DO     -0.080400
     13 C12         5.4860   -0.0560    4.4090 c3        1 1DO     -0.092100
     14 H2S        -6.8110    0.0190   -4.9850 ho        1 1DO      0.398000
     15 H1C1       -4.7790   -0.7780   -4.6080 h1        1 1DO      0.019700
     16 H1C2       -4.7790    0.8160   -4.6080 h1        1 1DO      0.019700
     17 H2C1       -4.9260    0.8160   -2.2610 hc        1 1DO      0.055700
     18 H2C2       -4.9250   -0.7780   -2.2620 hc        1 1DO      0.055700
     19 H3C1       -2.7630    0.8210   -3.1750 hc        1 1DO      0.039700
     20 H3C2       -2.7610   -0.7730   -3.1880 hc        1 1DO      0.039700
     21 H4C1       -2.9140    0.8000   -0.8270 hc        1 1DO      0.041700
     22 H4C2       -2.9030   -0.7940   -0.8430 hc        1 1DO      0.041700
     23 H5C1       -0.7500    0.8270   -1.7400 hc        1 1DO      0.039700
     24 H5C2       -0.7390   -0.7660   -1.7700 hc        1 1DO      0.039700
     25 H6C1       -0.9020    0.7800    0.6080 hc        1 1DO      0.039700
     26 H6C2       -0.8800   -0.8140    0.5750 hc        1 1DO      0.039700
     27 H7C1        1.2830   -0.7600   -0.3530 hc        1 1DO      0.039700
     28 H7C2        1.2610    0.8330   -0.3030 hc        1 1DO      0.039700
     29 H8C1        1.1090    0.7540    2.0440 hc        1 1DO      0.039700
     30 H8C2        1.1430   -0.8390    1.9900 hc        1 1DO      0.039700
     31 H9C1        3.3060   -0.7570    1.0640 hc        1 1DO      0.039700
     32 H9C2        3.2720    0.8360    1.1330 hc        1 1DO      0.039700
     33 H101        3.1660   -0.8640    3.4070 hc        1 1DO      0.039700
     34 H102        3.1220    0.7280    3.4790 hc        1 1DO      0.039700
     35 H111        5.3280   -0.7590    2.4840 hc        1 1DO      0.038700
     36 H112        5.2840    0.8320    2.5660 hc        1 1DO      0.038700
     37 H121        6.4620   -0.0250    4.4100 hc        1 1DO      0.032700
     38 H122        5.1370    0.7060    4.9100 hc        1 1DO      0.032700
     39 H123        5.1860   -0.8850    4.8260 hc        1 1DO      0.032700
@<TRIPOS>BOND
     1    1    2 1   
     2    1   14 1   
     3    2    3 1   
     4    2   15 1   
     5    2   16 1   
     6    3    4 1   
     7    3   17 1   
     8    3   18 1   
     9    4    5 1   
    10    4   19 1   
    11    4   20 1   
    12    5    6 1   
    13    5   21 1   
    14    5   22 1   
    15    6    7 1   
    16    6   23 1   
    17    6   24 1   
    18    7    8 1   
    19    7   25 1   
    20    7   26 1   
    21    8    9 1   
    22    8   27 1   
    23    8   28 1   
    24    9   10 1   
    25    9   29 1   
    26    9   30 1   
    27   10   11 1   
    28   10   31 1   
    29   10   32 1   
    30   11   12 1   
    31   11   33 1   
    32   11   34 1   
    33   12   13 1   
    34   12   35 1   
    35   12   36 1   
    36   13   37 1   
    37   13   38 1   
    38   13   39 1   
@<TRIPOS>SUBSTRUCTURE
     1 1DO         1 TEMP              0 ****  ****    0 ROOT
