@<TRIPOS>MOLECULE
1DP
   36    33     1     0     0
SMALL
bcc


@<TRIPOS>ATOM
      1 O3P         1.3040   -5.3770    3.5720 o         1 1DP     -0.929167
      2 P           1.5050   -5.1760    2.0540 p5        1 1DP      1.333900
      3 O1P         2.6230   -6.0960    1.5630 o         1 1DP     -0.929167
      4 O2P         0.2350   -5.5060    1.3340 o         1 1DP     -0.929167
      5 O5'         1.9090   -3.6190    1.7580 os        1 1DP     -0.554200
      6 C5'         0.9760   -2.5930    2.1290 c3        1 1DP      0.227400
      7 C4'         1.4630   -1.2540    1.6130 c3        1 1DP      0.050100
      8 O4'         1.1270   -1.0970    0.3710 os        1 1DP     -0.434600
      9 C1'         0.8420    0.4520    0.1850 c3        1 1DP      0.397300
     10 N9         -0.0020    0.6520   -0.8870 n3        1 1DP     -0.448800
     11 C4         -0.7600    1.6600   -1.3910 c1        1 1DP      0.086800
     12 N3         -1.2070    2.8460   -0.8410 n1        1 1DP     -0.474800
     13 C2         -1.9560    3.6830   -1.5660 c1        1 1DP      0.331300
     14 C1         -2.2880    3.3600   -2.8850 c1        1 1DP     -0.231500
     15 C6         -1.8520    2.2030   -3.4260 cg        1 1DP      0.124000
     16 N6         -2.2550    2.0010   -4.8460 n2        1 1DP     -0.730600
     17 C5         -1.0800    1.3420   -2.6740 cg        1 1DP     -0.164000
     18 N7         -0.5080    0.1170   -2.9620 n1        1 1DP     -0.506800
     19 C8          0.1500   -0.3030   -1.8700 c1        1 1DP      0.390600
     20 C2'         0.2470    0.8710    1.3270 c3        1 1DP      0.102100
     21 O2'         0.6610    2.2610    1.6330 oh        1 1DP     -0.615800
     22 C3'         0.7430   -0.0650    2.3920 c3        1 1DP      0.128100
     23 O3'         1.6250    0.5730    3.2110 oh        1 1DP     -0.682800
     24 H5'         0.0650   -2.8020    1.7250 h1        1 1DP     -0.002300
     25 H5'A        0.9010   -2.5570    3.1040 h1        1 1DP     -0.002300
     26 H4'         2.4720   -1.1820    1.7160 h1        1 1DP      0.079700
     27 H1'         1.7270    0.9580    0.0410 h2        1 1DP      0.089700
     28 H2         -2.3160    4.5180   -1.1490 ha        1 1DP      0.077500
     29 H1         -2.8540    3.9950   -3.4350 ha        1 1DP      0.063500
     30 HN6        -2.8210    2.6090   -5.2570 hn        1 1DP      0.388300
     31 HN6A       -1.9680    1.2610   -5.3030 hn        1 1DP      0.388300
     32 H8          0.5940   -1.2260   -1.7510 DU        1 1DP      0.252000
     33 H2'        -0.7330    0.8140    1.2460 h1        1 1DP      0.067700
     34 HO2'        0.1010    2.6150    2.2950 ho        1 1DP      0.429000
     35 H3'        -0.0320   -0.4210    2.9250 h1        1 1DP      0.114700
     36 HO3'        1.3640    0.4860    4.0490 ho        1 1DP      0.515000
@<TRIPOS>BOND
     1    1    2 1   
     2    2    3 1   
     3    2    4 1   
     4    2    5 1   
     5    5    6 1   
     6    6    7 1   
     7    6   24 1   
     8    6   25 1   
     9    7    8 1   
    10    7   22 1   
    11    7   26 1   
    12    8    9 1   
    13    9   10 1   
    14    9   20 1   
    15    9   27 1   
    16   10   11 1   
    17   10   19 1   
    18   11   17 3   
    19   12   13 3   
    20   13   28 1   
    21   14   15 3   
    22   14   29 1   
    23   15   17 1   
    24   16   30 1   
    25   16   31 1   
    26   18   19 3   
    27   20   21 1   
    28   20   22 1   
    29   20   33 1   
    30   21   34 1   
    31   22   23 1   
    32   22   35 1   
    33   23   36 1   
@<TRIPOS>SUBSTRUCTURE
     1 1DP         1 TEMP              0 ****  ****    0 ROOT
