@<TRIPOS>MOLECULE
1DP
   36    38     1     0     0
SMALL
bcc


@<TRIPOS>ATOM
      1 O3P        -3.9700    2.3520   -1.0020 o         1 1DP     -0.922167
      2 P          -3.8370    1.1800   -0.0820 p5        1 1DP      1.315900
      3 O1P        -4.2620    1.3520    1.3480 o         1 1DP     -0.922167
      4 O2P        -4.0860   -0.1970   -0.6510 o         1 1DP     -0.922167
      5 O5'        -2.0800    1.0180    0.1190 os        1 1DP     -0.554200
      6 C5'        -1.7640   -0.0920    0.8450 c3        1 1DP      0.224400
      7 C4'        -1.4790   -1.3180   -0.0560 c3        1 1DP      0.013100
      8 O4'        -0.4750   -1.0740   -1.0660 os        1 1DP     -0.387600
      9 C1'         0.8120   -1.4060   -0.5720 c3        1 1DP      0.218800
     10 N9          1.5520   -0.2010   -0.2420 na        1 1DP     -0.278000
     11 C4          2.9520   -0.1020   -0.1530 ca        1 1DP      0.409800
     12 N3          3.9160   -1.0640   -0.2370 nb        1 1DP     -0.675000
     13 C2          5.1670   -0.6000   -0.1220 ca        1 1DP      0.402200
     14 C1          5.5480    0.7440    0.0730 ca        1 1DP     -0.349300
     15 C6          4.5660    1.7480    0.1730 ca        1 1DP      0.192600
     16 N6          4.8900    3.0800    0.4550 nh        1 1DP     -0.810200
     17 C5          3.2220    1.3260    0.0380 ca        1 1DP     -0.079900
     18 N7          2.0140    2.0400    0.0300 nc        1 1DP     -0.620100
     19 C8          1.0500    1.1190   -0.1490 cd        1 1DP      0.486700
     20 C2'         0.5980   -2.4020    0.6250 c3        1 1DP      0.097100
     21 O2'         1.2160   -3.6360    0.3450 oh        1 1DP     -0.597800
     22 C3'        -0.9440   -2.4930    0.7720 c3        1 1DP      0.085100
     23 O3'        -1.3730   -3.7640    0.3020 oh        1 1DP     -0.637800
     24 H5'        -0.8360    0.0990    1.4650 h1        1 1DP     -0.005300
     25 H5'A       -2.6130   -0.3830    1.5310 h1        1 1DP     -0.005300
     26 H4'        -2.4320   -1.5060   -0.6500 h1        1 1DP      0.186700
     27 H1'         1.3630   -1.9240   -1.4130 h2        1 1DP      0.074700
     28 H2          5.9510   -1.3750   -0.1930 h4        1 1DP     -0.005900
     29 H1          6.6120    0.9920    0.1560 ha        1 1DP      0.118000
     30 HN6         5.7100    3.3920   -0.0170 hn        1 1DP      0.384800
     31 HN6A        4.1210    3.7080    0.3460 hn        1 1DP      0.384800
     32 H8         -0.0550    1.3220   -0.2280 h5        1 1DP      0.181800
     33 H2'         1.0750   -2.0390    1.5710 h1        1 1DP      0.085700
     34 HO2'        0.6310   -4.1250   -0.2510 ho        1 1DP      0.409000
     35 H3'        -1.2510   -2.4260    1.8480 h1        1 1DP      0.076700
     36 HO3'       -2.0030   -3.6050   -0.4130 ho        1 1DP      0.423000
@<TRIPOS>BOND
     1    1    2 1   
     2    2    3 1   
     3    2    4 1   
     4    2    5 1   
     5    5    6 1   
     6    6    7 1   
     7    6   24 1   
     8    6   25 1   
     9    7    8 1   
    10    7   22 1   
    11    7   26 1   
    12    8    9 1   
    13    9   10 1   
    14    9   20 1   
    15    9   27 1   
    16   10   11 1   
    17   10   19 1   
    18   11   12 ar  
    19   11   17 ar  
    20   12   13 ar  
    21   13   14 ar  
    22   13   28 1   
    23   14   15 ar  
    24   14   29 1   
    25   15   16 1   
    26   15   17 ar  
    27   16   30 1   
    28   16   31 1   
    29   17   18 1   
    30   18   19 2   
    31   19   32 1   
    32   20   21 1   
    33   20   22 1   
    34   20   33 1   
    35   21   34 1   
    36   22   23 1   
    37   22   35 1   
    38   23   36 1   
@<TRIPOS>SUBSTRUCTURE
     1 1DP         1 TEMP              0 ****  ****    0 ROOT
