@<TRIPOS>MOLECULE
1DQ
   12    12     1     0     0
SMALL
bcc


@<TRIPOS>ATOM
      1 FAA         0.0860    0.1160    0.4280 f         1 1DQ     -0.231967
      2 CAI         1.3820   -0.0030   -0.0170 c3        1 1DQ      0.730200
      3 FAB         2.0950   -0.4050    1.0820 f         1 1DQ     -0.231967
      4 FAC         1.3450   -1.1070   -0.8360 f         1 1DQ     -0.231967
      5 CAH         1.9200    1.2360   -0.6780 cc        1 1DQ     -0.333900
      6 CAE         3.0330    2.0380   -0.3490 cd        1 1DQ      0.382200
      7 NAG         3.1370    3.0840   -1.2550 nd        1 1DQ     -0.668000
      8 CAD         2.1080    2.9290   -2.1260 cc        1 1DQ      0.425400
      9 NAF         1.3360    1.8120   -1.8130 na        1 1DQ     -0.287900
     10 H1          3.7360    1.9050    0.4750 h4        1 1DQ      0.059100
     11 H3          1.8880    3.5840   -2.9760 h5        1 1DQ      0.072100
     12 H4          0.5360    1.4750   -2.2810 hn        1 1DQ      0.316700
@<TRIPOS>BOND
     1    1    2 1   
     2    2    3 1   
     3    2    4 1   
     4    2    5 1   
     5    5    6 2   
     6    5    9 1   
     7    6    7 1   
     8    6   10 1   
     9    7    8 2   
    10    8    9 1   
    11    8   11 1   
    12    9   12 1   
@<TRIPOS>SUBSTRUCTURE
     1 1DQ         1 TEMP              0 ****  ****    0 ROOT
