@<TRIPOS>MOLECULE
1DQ
   12    12     1     0     0
SMALL
bcc


@<TRIPOS>ATOM
      1 FAA         0.0540    0.1200    0.3840 f         1 1DQ     -0.231633
      2 CAI         1.3680    0.0080   -0.0070 c3        1 1DQ      0.730200
      3 FAB         2.0420   -0.3590    1.1280 f         1 1DQ     -0.231633
      4 FAC         1.3770   -1.1140   -0.8010 f         1 1DQ     -0.231633
      5 CAH         1.9160    1.2380   -0.6760 cc        1 1DQ     -0.333900
      6 CAE         3.0250    2.0450   -0.3390 cd        1 1DQ      0.382200
      7 NAG         3.1440    3.0780   -1.2570 nd        1 1DQ     -0.668000
      8 CAD         2.1290    2.9120   -2.1420 cc        1 1DQ      0.425400
      9 NAF         1.3520    1.7990   -1.8270 na        1 1DQ     -0.287900
     10 H1          3.7130    1.9230    0.4990 h4        1 1DQ      0.059100
     11 H3          1.9230    3.5550   -3.0050 h5        1 1DQ      0.072100
     12 H4          0.5580    1.4580   -2.3030 hn        1 1DQ      0.316700
@<TRIPOS>BOND
     1    1    2 1   
     2    2    3 1   
     3    2    4 1   
     4    2    5 1   
     5    5    6 2   
     6    5    9 1   
     7    6    7 1   
     8    6   10 1   
     9    7    8 2   
    10    8    9 1   
    11    8   11 1   
    12    9   12 1   
@<TRIPOS>SUBSTRUCTURE
     1 1DQ         1 TEMP              0 ****  ****    0 ROOT
