@<TRIPOS>MOLECULE
1DQ
   12     9     1     0     0
SMALL
bcc


@<TRIPOS>ATOM
      1 FAA        -1.8200    1.4120    0.8160 f         1 1DQ     -0.231967
      2 CAI        -0.4810    1.4120    0.8160 c3        1 1DQ      0.728100
      3 FAB        -0.0340    1.4120    2.0780 f         1 1DQ     -0.231967
      4 FAC        -0.0340    2.5060    0.1840 f         1 1DQ     -0.231967
      5 CAH         0.0240    0.1770    0.1020 ce        1 1DQ     -0.164700
      6 CAE         1.3360   -0.1600   -0.0920 c1        1 1DQ     -0.019900
      7 NAG         1.3700   -1.3170   -0.7600 n1        1 1DQ     -0.142000
      8 CAD         0.0920   -1.7070   -0.9860 c1        1 1DQ      0.157400
      9 NAF        -0.7330   -0.7760   -0.4480 ne        1 1DQ     -0.534000
     10 H1          2.1110    0.3540    0.2040 DU        1 1DQ      0.224000
     11 H3         -0.1860   -2.5180   -1.4540 DU        1 1DQ      0.224000
     12 H4         -1.6450   -0.7970   -0.4600 DU        1 1DQ      0.224000
@<TRIPOS>BOND
     1    1    2 1   
     2    2    3 1   
     3    2    4 1   
     4    2    5 1   
     5    5    6 2   
     6    5    9 1   
     7    6    7 2   
     8    7    8 2   
     9    8    9 2   
@<TRIPOS>SUBSTRUCTURE
     1 1DQ         1 TEMP              0 ****  ****    0 ROOT
