@<TRIPOS>MOLECULE
1DQ
   12    12     1     0     0
SMALL
bcc


@<TRIPOS>ATOM
      1 FAA        -1.6630    0.8310    0.9690 f         1 1DQ     -0.231967
      2 CAI        -1.1290    0.0220   -0.0060 c3        1 1DQ      0.730200
      3 FAB        -1.7570   -1.1850    0.1570 f         1 1DQ     -0.231967
      4 FAC        -1.6470    0.5330   -1.1730 f         1 1DQ     -0.231967
      5 CAH         0.3720   -0.0580    0.0170 cc        1 1DQ     -0.333900
      6 CAE         1.2260   -1.1710    0.1760 cd        1 1DQ      0.382200
      7 NAG         2.5480   -0.7530    0.1290 nd        1 1DQ     -0.668000
      8 CAD         2.5100    0.5910   -0.0560 cc        1 1DQ      0.425400
      9 NAF         1.2000    1.0610   -0.1300 na        1 1DQ     -0.287900
     10 H1          0.9460   -2.2160    0.3170 h4        1 1DQ      0.059100
     11 H3          3.3830    1.2480   -0.1390 h5        1 1DQ      0.072100
     12 H4          0.8940    1.9890   -0.2600 hn        1 1DQ      0.316700
@<TRIPOS>BOND
     1    1    2 1   
     2    2    3 1   
     3    2    4 1   
     4    2    5 1   
     5    5    6 2   
     6    5    9 1   
     7    6    7 1   
     8    6   10 1   
     9    7    8 2   
    10    8    9 1   
    11    8   11 1   
    12    9   12 1   
@<TRIPOS>SUBSTRUCTURE
     1 1DQ         1 TEMP              0 ****  ****    0 ROOT
