@<TRIPOS>MOLECULE
1DR
   28    16     1     0     0
SMALL
bcc


@<TRIPOS>ATOM
      1 CAA         2.3670   -0.0500   -0.0770 c1        1 1DR     -0.022750
      2 CAB         3.7720   -0.0560   -0.0520 c1        1 1DR     -0.121500
      3 CAC         4.4460   -0.0730    1.1610 c1        1 1DR     -0.121500
      4 CAD         3.7310   -0.0850    2.3520 c1        1 1DR     -0.121500
      5 CAE         2.3430   -0.0800    2.3290 c1        1 1DR     -0.121500
      6 CAF         1.6610   -0.0620    1.1010 c1        1 1DR     -0.022750
      7 CAG         0.3000   -0.0370    0.7870 c1        1 1DR     -0.037000
      8 CAH         0.1820   -0.0100   -0.5820 c1        1 1DR     -0.022750
      9 NAI         1.4580   -0.0180   -1.1220 DU        1 1DR     -0.195000
     10 CAJ        -0.8530   -0.0270    1.5930 c1        1 1DR     -0.100500
     11 CAK        -2.1100    0.0100    1.0050 c1        1 1DR     -0.100500
     12 CAL        -2.2320    0.0370   -0.3980 c1        1 1DR     -0.037000
     13 CAM        -1.1070    0.0280   -1.1840 c1        1 1DR     -0.022750
     14 CAN        -3.3300    0.0760   -1.2280 c1        1 1DR     -0.247000
     15 CAO        -2.8770    0.0910   -2.5330 c1        1 1DR     -0.018000
     16 NAP        -1.5100    0.0610   -2.5070 n1        1 1DR     -0.197000
     17 CAQ        -4.8250    0.1650   -1.0150 c1        1 1DR      0.253000
     18 OAR        -5.4590   -0.8320   -0.7240 o         1 1DR     -0.302000
     19 HAB         4.2750   -0.0470   -0.8890 ha        1 1DR      0.134750
     20 HAC         5.4220   -0.0770    1.1780 ha        1 1DR      0.134750
     21 HAD         4.2050   -0.0980    3.2060 ha        1 1DR      0.134750
     22 HAE         1.8410   -0.0880    3.1660 ha        1 1DR      0.134750
     23 HNAI        1.6630   -0.0000   -2.0110 DU        1 1DR      0.212667
     24 HAJ        -0.7690   -0.0270    2.5650 ha        1 1DR      0.151000
     25 HAK        -2.9110   -0.0010    1.5640 ha        1 1DR      0.151000
     26 HAO        -3.4350    0.1170   -3.3330 DU        1 1DR      0.212667
     27 HNAP       -0.9600    0.0630   -3.2340 DU        1 1DR      0.212667
     28 HAQ        -5.2840    1.0220   -1.1200 ha        1 1DR      0.079000
@<TRIPOS>BOND
     1    1    6 1   
     2    2    3 1   
     3    2   19 1   
     4    3   20 1   
     5    4    5 1   
     6    4   21 1   
     7    5   22 1   
     8    7   10 1   
     9    8   13 1   
    10   10   24 1   
    11   11   12 1   
    12   11   25 1   
    13   14   15 1   
    14   15   16 1   
    15   17   18 1   
    16   17   28 1   
@<TRIPOS>SUBSTRUCTURE
     1 1DR         1 TEMP              0 ****  ****    0 ROOT
