@<TRIPOS>MOLECULE
1DR
   28    31     1     0     0
SMALL
bcc


@<TRIPOS>ATOM
      1 CAA        -2.5410   -0.8500   -0.0210 ca        1 1DR     -0.038200
      2 CAB        -3.8450   -1.3490   -0.0130 ca        1 1DR     -0.145000
      3 CAC        -4.8950   -0.4320   -0.0050 ca        1 1DR     -0.107000
      4 CAD        -4.6620    0.9470   -0.0070 ca        1 1DR     -0.151000
      5 CAE        -3.3650    1.4590   -0.0130 ca        1 1DR     -0.082000
      6 CAF        -2.2960    0.5740   -0.0140 cp        1 1DR     -0.066000
      7 CAG        -0.8530    0.7480   -0.0090 cp        1 1DR     -0.064000
      8 CAH        -0.2930   -0.5770   -0.0180 ca        1 1DR     -0.036200
      9 NAI        -1.3120   -1.5560   -0.1100 na        1 1DR     -0.157300
     10 CAJ        -0.0380    1.8830    0.0030 ca        1 1DR     -0.089000
     11 CAK         1.3440    1.7500    0.0130 ca        1 1DR     -0.122000
     12 CAL         1.9240    0.4770    0.0010 ca        1 1DR     -0.032800
     13 CAM         1.0980   -0.7100   -0.0220 ca        1 1DR     -0.074200
     14 CAN         3.2940    0.0050   -0.0010 cc        1 1DR     -0.267400
     15 CAO         3.2510   -1.3970   -0.0310 cd        1 1DR     -0.014100
     16 NAP         1.9350   -1.8360   -0.0250 na        1 1DR     -0.178400
     17 CAQ         4.4840    0.8260    0.0250 c         1 1DR      0.605100
     18 OAR         5.6350    0.3740    0.0300 o         1 1DR     -0.556100
     19 HAB        -4.0420   -2.4300   -0.0190 ha        1 1DR      0.137000
     20 HAC        -5.9310   -0.8050    0.0030 ha        1 1DR      0.133000
     21 HAD        -5.5180    1.6380   -0.0040 ha        1 1DR      0.134000
     22 HAE        -3.1890    2.5450   -0.0190 ha        1 1DR      0.138000
     23 HNAI       -1.2120   -2.4120    0.3820 hn        1 1DR      0.268700
     24 HAJ        -0.5010    2.8800    0.0040 ha        1 1DR      0.139000
     25 HAK         1.9890    2.6400    0.0280 ha        1 1DR      0.138000
     26 HAO         4.0900   -2.1000   -0.0450 h4        1 1DR      0.185000
     27 HNAP        1.6320   -2.7660   -0.1450 hn        1 1DR      0.303700
     28 HAQ         4.2950    1.9240    0.0390 h4        1 1DR     -0.001800
@<TRIPOS>BOND
     1    1    2 ar  
     2    1    6 ar  
     3    1    9 1   
     4    2    3 ar  
     5    2   19 1   
     6    3    4 ar  
     7    3   20 1   
     8    4    5 ar  
     9    4   21 1   
    10    5    6 ar  
    11    5   22 1   
    12    6    7 1   
    13    7    8 ar  
    14    7   10 ar  
    15    8    9 1   
    16    8   13 ar  
    17    9   23 1   
    18   10   11 ar  
    19   10   24 1   
    20   11   12 ar  
    21   11   25 1   
    22   12   13 ar  
    23   12   14 1   
    24   13   16 1   
    25   14   15 2   
    26   14   17 1   
    27   15   16 1   
    28   15   26 1   
    29   16   27 1   
    30   17   18 2   
    31   17   28 1   
@<TRIPOS>SUBSTRUCTURE
     1 1DR         1 TEMP              0 ****  ****    0 ROOT
