@<TRIPOS>MOLECULE
1DS
   74    75     1     0     0
SMALL
bcc


@<TRIPOS>ATOM
      1 O6         -3.2360   -1.1420    3.8140 oh        1 1DS     -0.604800
      2 C6         -2.1840   -1.5140    2.9530 c3        1 1DS      0.133400
      3 C5         -2.6540   -1.5500    1.4930 c3        1 1DS      0.069100
      4 C4         -2.2740   -2.8720    0.8060 c3        1 1DS      0.127100
      5 C3         -2.7290   -2.8370   -0.6620 c3        1 1DS      0.109100
      6 C2         -2.1330   -1.6070   -1.3570 c3        1 1DS      0.094100
      7 C1         -2.3840   -0.3250   -0.5300 c3        1 1DS      0.319900
      8 O5         -2.0110   -0.4520    0.8350 os        1 1DS     -0.434600
      9 O1         -1.4510    0.6200   -1.0150 os        1 1DS     -0.400600
     10 C2'        -1.7740    1.9910   -0.9800 c3        1 1DS      0.331600
     11 C3'        -3.0310    2.4260   -1.7820 c3        1 1DS      0.057100
     12 C4'        -4.0300    2.9660   -0.7290 c3        1 1DS      0.087100
     13 C5'        -3.3060    2.8370    0.6220 c3        1 1DS      0.062100
     14 O2'        -1.9890    2.3110    0.3850 os        1 1DS     -0.411600
     15 C6'        -3.9860    1.9250    1.6440 c3        1 1DS      0.135400
     16 O6'        -3.1200    1.6690    2.7280 oh        1 1DS     -0.608800
     17 O4'        -5.2680    2.3020   -0.8100 oh        1 1DS     -0.581800
     18 O3'        -3.5590    1.3080   -2.4630 oh        1 1DS     -0.596800
     19 C1'        -0.5210    2.7310   -1.5020 c3        1 1DS      0.150400
     20 O1'         0.6140    2.4090   -0.7140 os        1 1DS     -0.419900
     21 O2         -2.7820   -1.5030   -2.6120 oh        1 1DS     -0.610800
     22 O3         -4.1480   -2.7950   -0.6560 oh        1 1DS     -0.615800
     23 O4         -2.8280   -3.9800    1.4770 oh        1 1DS     -0.581800
     24 C1N         1.4960    1.4650   -1.1850 c         1 1DS      0.645100
     25 C2N         2.5220    1.1030   -0.1580 c3        1 1DS     -0.126400
     26 O1N         1.3620    1.0560   -2.3380 o         1 1DS     -0.537000
     27 C3N         3.8470    0.7590   -0.8050 c3        1 1DS     -0.079400
     28 C4N         4.8350    0.2620    0.2290 c3        1 1DS     -0.079400
     29 C5N         6.1680   -0.0670   -0.4070 c3        1 1DS     -0.078400
     30 H1         -3.4280   -0.2060    3.6660 ho        1 1DS      0.418000
     31 H2         -1.3110   -0.8170    3.0580 h1        1 1DS      0.067200
     32 H3         -1.9000   -2.5510    3.2830 h1        1 1DS      0.067200
     33 H4         -3.7710   -1.4140    1.4400 h1        1 1DS      0.066700
     34 H5         -1.1610   -3.0300    0.8490 h1        1 1DS      0.090700
     35 H6         -2.3900   -3.7690   -1.1940 h1        1 1DS      0.067700
     36 H7         -1.0260   -1.7430   -1.5050 h1        1 1DS      0.076700
     37 H8         -3.4510    0.0160   -0.6180 h2        1 1DS      0.055700
     38 H9         -2.7600    3.2290   -2.5190 h1        1 1DS      0.067700
     39 H10        -4.2880    4.0430   -0.9320 h1        1 1DS      0.097700
     40 H11        -3.1420    3.8510    1.0810 h1        1 1DS      0.085700
     41 H12        -4.8860    2.4310    2.0810 h1        1 1DS      0.050200
     42 H13        -4.2840    0.9500    1.1700 h1        1 1DS      0.050200
     43 H14        -2.2980    1.3050    2.3570 ho        1 1DS      0.435000
     44 H15        -5.1120    1.3540   -0.6910 ho        1 1DS      0.416000
     45 H16        -4.3590    1.6100   -2.9180 ho        1 1DS      0.429000
     46 H17        -0.3650    2.4720   -2.5820 h1        1 1DS      0.081700
     47 H18        -0.6650    3.8340   -1.3510 h1        1 1DS      0.081700
     48 H19        -2.5340   -0.6460   -2.9870 ho        1 1DS      0.436000
     49 H20        -4.4260   -2.7110   -1.5780 ho        1 1DS      0.430000
     50 H21        -3.7910   -3.9040    1.4150 ho        1 1DS      0.422000
     51 H22         2.6430    1.9510    0.5680 hc        1 1DS      0.083700
     52 H23         2.1200    0.2220    0.4120 hc        1 1DS      0.083700
     53 H24         3.6870   -0.0240   -1.5920 hc        1 1DS      0.056700
     54 H25         4.2610    1.6660   -1.3200 hc        1 1DS      0.056700
     55 H26         4.9780    1.0440    1.0210 hc        1 1DS      0.042200
     56 H27         4.4240   -0.6510    0.7350 hc        1 1DS      0.042200
     57 H28         6.0240   -0.8450   -1.2020 hc        1 1DS      0.042200
     58 H29         6.5810    0.8470   -0.9110 hc        1 1DS      0.042200
     59 C7          7.1570   -0.5690    0.6230 c3        1 1DS     -0.079400
     60 C8          8.4920   -0.8970   -0.0120 c3        1 1DS     -0.079400
     61 C9          9.4810   -1.4000    1.0170 c3        1 1DS     -0.079400
     62 C10        10.8160   -1.7280    0.3830 c3        1 1DS     -0.080400
     63 C11        11.8040   -2.2290    1.4050 c3        1 1DS     -0.093100
     64 H30         7.3010    0.2090    1.4180 hc        1 1DS      0.040200
     65 H31         6.7450   -1.4830    1.1260 hc        1 1DS      0.040200
     66 H32         8.3480   -1.6750   -0.8070 hc        1 1DS      0.040200
     67 H33         8.9040    0.0170   -0.5150 hc        1 1DS      0.040200
     68 H34         9.6240   -0.6220    1.8130 hc        1 1DS      0.039700
     69 H35         9.0690   -2.3140    1.5200 hc        1 1DS      0.039700
     70 H36        10.6700   -2.5050   -0.4130 hc        1 1DS      0.038700
     71 H37        11.2260   -0.8130   -0.1200 hc        1 1DS      0.038700
     72 H38        12.7810   -2.4650    0.9170 hc        1 1DS      0.032700
     73 H39        11.9820   -1.4580    2.1930 hc        1 1DS      0.032700
     74 H40        11.4250   -3.1550    1.9000 hc        1 1DS      0.032700
@<TRIPOS>BOND
     1    1    2 1   
     2    1   30 1   
     3    2    3 1   
     4    2   31 1   
     5    2   32 1   
     6    3    4 1   
     7    3    8 1   
     8    3   33 1   
     9    4    5 1   
    10    4   23 1   
    11    4   34 1   
    12    5    6 1   
    13    5   22 1   
    14    5   35 1   
    15    6    7 1   
    16    6   21 1   
    17    6   36 1   
    18    7    8 1   
    19    7    9 1   
    20    7   37 1   
    21    9   10 1   
    22   10   11 1   
    23   10   14 1   
    24   10   19 1   
    25   11   12 1   
    26   11   18 1   
    27   11   38 1   
    28   12   13 1   
    29   12   17 1   
    30   12   39 1   
    31   13   14 1   
    32   13   15 1   
    33   13   40 1   
    34   15   16 1   
    35   15   41 1   
    36   15   42 1   
    37   16   43 1   
    38   17   44 1   
    39   18   45 1   
    40   19   20 1   
    41   19   46 1   
    42   19   47 1   
    43   20   24 1   
    44   21   48 1   
    45   22   49 1   
    46   23   50 1   
    47   24   25 1   
    48   24   26 2   
    49   25   27 1   
    50   25   51 1   
    51   25   52 1   
    52   27   28 1   
    53   27   53 1   
    54   27   54 1   
    55   28   29 1   
    56   28   55 1   
    57   28   56 1   
    58   29   57 1   
    59   29   58 1   
    60   29   59 1   
    61   59   60 1   
    62   59   64 1   
    63   59   65 1   
    64   60   61 1   
    65   60   66 1   
    66   60   67 1   
    67   61   62 1   
    68   61   68 1   
    69   61   69 1   
    70   62   63 1   
    71   62   70 1   
    72   62   71 1   
    73   63   72 1   
    74   63   73 1   
    75   63   74 1   
@<TRIPOS>SUBSTRUCTURE
     1 1DS         1 TEMP              0 ****  ****    0 ROOT
