@<TRIPOS>MOLECULE
1DS
   74    75     1     0     0
SMALL
bcc


@<TRIPOS>ATOM
      1 O6         -5.4610   -3.0910    3.1020 oh        1 1DS     -0.600800
      2 C6         -4.1240   -2.6740    2.9430 c3        1 1DS      0.109400
      3 C5         -3.7440   -2.2610    3.9120 c3        1 1DS      0.087100
      4 C4         -4.3980   -0.3930    4.1280 c3        1 1DS      0.112100
      5 C3         -4.1840   -0.1890    4.4920 c3        1 1DS      0.124100
      6 C2         -2.5850   -0.2910    4.3260 c3        1 1DS      0.093100
      7 C1         -1.9560   -2.2220    3.8040 c3        1 1DS      0.310900
      8 O5         -2.0530   -2.3780    3.9410 os        1 1DS     -0.425600
      9 O1         -2.4230   -2.5390    2.1730 os        1 1DS     -0.442600
     10 C2'        -1.3120   -3.0710    1.4550 c3        1 1DS      0.324600
     11 C3'        -1.5640   -4.5880    1.1030 c3        1 1DS      0.101100
     12 C4'        -0.3150   -5.3120    1.5250 c3        1 1DS      0.079100
     13 C5'         0.5690   -4.3530    1.7680 c3        1 1DS      0.076100
     14 O2'        -0.2710   -3.0650    2.1840 os        1 1DS     -0.428600
     15 C6'         1.3720   -4.0670    0.5350 c3        1 1DS      0.124400
     16 O6'         2.7260   -4.3910    0.7700 oh        1 1DS     -0.606800
     17 O4'         0.1700   -6.1950    0.4200 oh        1 1DS     -0.601800
     18 O3'        -1.7640   -4.7340   -0.2260 oh        1 1DS     -0.590800
     19 C1'        -1.0660   -2.2540    0.1610 c3        1 1DS      0.162400
     20 O1'        -0.2660   -1.1020    0.4670 os        1 1DS     -0.425900
     21 O2         -2.1110   -0.0020    5.2580 oh        1 1DS     -0.601800
     22 O3         -4.6690   -1.0540    6.0160 oh        1 1DS     -0.602800
     23 O4         -6.1970   -0.4310    4.4490 oh        1 1DS     -0.591800
     24 C1N        -0.1480   -0.1720   -0.6170 c         1 1DS      0.639100
     25 C2N         0.9380    0.9240   -0.5780 c3        1 1DS     -0.126400
     26 O1N        -0.8760   -0.2710   -1.5840 o         1 1DS     -0.539000
     27 C3N         0.7540    1.8720   -1.7770 c3        1 1DS     -0.080400
     28 C4N         1.9310    2.8570   -1.8360 c3        1 1DS     -0.078400
     29 C5N         1.9620    3.5340   -3.2110 c3        1 1DS     -0.079400
     30 H1         -5.8690   -3.0870    2.3110 ho        1 1DS      0.417000
     31 H2         -4.0780   -1.9790    2.2510 h1        1 1DS      0.061700
     32 H3         -3.5730   -3.4390    2.6750 h1        1 1DS      0.061700
     33 H4         -4.1060   -2.8030    4.6450 h1        1 1DS      0.087700
     34 H5         -4.2180    0.1190    3.3050 h1        1 1DS      0.113700
     35 H6         -4.4520    0.7570    4.5480 h1        1 1DS      0.058700
     36 H7         -2.3020    0.3310    3.6240 h1        1 1DS      0.068700
     37 H8         -0.9770   -2.2810    3.8830 h2        1 1DS      0.083700
     38 H9         -2.3370   -4.9280    1.6030 h1        1 1DS      0.095700
     39 H10        -0.4820   -5.8360    2.3350 h1        1 1DS      0.062700
     40 H11         1.1570   -4.6180    2.4980 h1        1 1DS      0.076700
     41 H12         1.2980   -3.1180    0.3100 h1        1 1DS      0.060200
     42 H13         1.0330   -4.6050   -0.2060 h1        1 1DS      0.060200
     43 H14         3.0450   -4.8480    0.0770 ho        1 1DS      0.413000
     44 H15        -0.0720   -7.0370    0.5850 ho        1 1DS      0.428000
     45 H16        -2.4070   -5.3280   -0.3650 ho        1 1DS      0.432000
     46 H17        -1.9240   -1.9650   -0.2120 h1        1 1DS      0.092200
     47 H18        -0.5960   -2.8130   -0.4950 h1        1 1DS      0.092200
     48 H19        -1.2760    0.2670    5.0970 ho        1 1DS      0.418000
     49 H20        -4.2920   -0.6560    6.7150 ho        1 1DS      0.431000
     50 H21        -6.3430   -0.3760    5.3210 ho        1 1DS      0.421000
     51 H22         1.8220    0.5090   -0.6230 hc        1 1DS      0.077700
     52 H23         0.8580    1.4320    0.2550 hc        1 1DS      0.077700
     53 H24        -0.0810    2.3690   -1.6740 hc        1 1DS      0.058200
     54 H25         0.7230    1.3490   -2.6050 hc        1 1DS      0.058200
     55 H26         2.7680    2.3730   -1.6930 hc        1 1DS      0.040200
     56 H27         1.8240    3.5370   -1.1400 hc        1 1DS      0.040200
     57 H28         1.9500    2.8510   -3.9120 hc        1 1DS      0.043700
     58 H29         1.1760    4.1140   -3.3070 hc        1 1DS      0.043700
     59 C7          3.2420    4.3790   -3.3400 c3        1 1DS     -0.078400
     60 C8          3.2590    5.0730   -4.7020 c3        1 1DS     -0.079400
     61 C9          4.6860    5.5370   -5.0220 c3        1 1DS     -0.079400
     62 C10         4.6720    6.3930   -6.2920 c3        1 1DS     -0.080400
     63 C11         6.1010    6.7330   -6.6910 c3        1 1DS     -0.092100
     64 H30         4.0250    3.7980   -3.2590 hc        1 1DS      0.039700
     65 H31         3.2610    5.0520   -2.6300 hc        1 1DS      0.039700
     66 H32         2.9580    4.4490   -5.3890 hc        1 1DS      0.040700
     67 H33         2.6620    5.8470   -4.6810 hc        1 1DS      0.040700
     68 H34         5.2600    4.7560   -5.1620 hc        1 1DS      0.039200
     69 H35         5.0330    6.0680   -4.2740 hc        1 1DS      0.039200
     70 H36         4.1740    7.2200   -6.1230 hc        1 1DS      0.038700
     71 H37         4.2420    5.8960   -7.0140 hc        1 1DS      0.038700
     72 H38         6.5330    7.2290   -5.9660 hc        1 1DS      0.032700
     73 H39         6.5980    5.9070   -6.8620 hc        1 1DS      0.032700
     74 H40         6.0910    7.2850   -7.5050 hc        1 1DS      0.032700
@<TRIPOS>BOND
     1    1    2 1   
     2    1   30 1   
     3    2    3 1   
     4    2   31 1   
     5    2   32 1   
     6    3    4 1   
     7    3    8 1   
     8    3   33 1   
     9    4    5 1   
    10    4   23 1   
    11    4   34 1   
    12    5    6 1   
    13    5   22 1   
    14    5   35 1   
    15    6    7 1   
    16    6   21 1   
    17    6   36 1   
    18    7    8 1   
    19    7    9 1   
    20    7   37 1   
    21    9   10 1   
    22   10   11 1   
    23   10   14 1   
    24   10   19 1   
    25   11   12 1   
    26   11   18 1   
    27   11   38 1   
    28   12   13 1   
    29   12   17 1   
    30   12   39 1   
    31   13   14 1   
    32   13   15 1   
    33   13   40 1   
    34   15   16 1   
    35   15   41 1   
    36   15   42 1   
    37   16   43 1   
    38   17   44 1   
    39   18   45 1   
    40   19   20 1   
    41   19   46 1   
    42   19   47 1   
    43   20   24 1   
    44   21   48 1   
    45   22   49 1   
    46   23   50 1   
    47   24   25 1   
    48   24   26 2   
    49   25   27 1   
    50   25   51 1   
    51   25   52 1   
    52   27   28 1   
    53   27   53 1   
    54   27   54 1   
    55   28   29 1   
    56   28   55 1   
    57   28   56 1   
    58   29   57 1   
    59   29   58 1   
    60   29   59 1   
    61   59   60 1   
    62   59   64 1   
    63   59   65 1   
    64   60   61 1   
    65   60   66 1   
    66   60   67 1   
    67   61   62 1   
    68   61   68 1   
    69   61   69 1   
    70   62   63 1   
    71   62   70 1   
    72   62   71 1   
    73   63   72 1   
    74   63   73 1   
    75   63   74 1   
@<TRIPOS>SUBSTRUCTURE
     1 1DS         1 TEMP              0 ****  ****    0 ROOT
