@<TRIPOS>MOLECULE
1DS
   74    61     1     0     0
SMALL
bcc


@<TRIPOS>ATOM
      1 O6         -0.3830    2.1090    1.7420 oh        1 1DS     -0.150000
      2 C6          0.5640    1.4560    1.0870 c1        1 1DS     -0.048000
      3 C5          1.4060    0.7850    0.5690 c1        1 1DS     -0.244000
      4 C4          2.4030   -0.0420   -0.0560 c3        1 1DS      0.093000
      5 C3          3.9120   -1.3530    3.4920 c1        1 1DS      0.026000
      6 C2          3.0100   -2.4860    3.0730 c3        1 1DS     -0.139000
      7 C1          1.5880   -2.2120    3.4450 c1        1 1DS     -0.067000
      8 O5          0.7370   -2.7760    1.2140 oh        1 1DS     -0.414000
      9 O1          0.8860   -3.2670    3.7910 os        1 1DS     -0.166000
     10 C2'        -0.5000   -3.0020    4.1530 c3        1 1DS      0.071000
     11 C3'        -0.5570   -2.3410    5.5590 c3        1 1DS      0.122000
     12 C4'        -1.8050   -1.6340    5.7280 c1        1 1DS     -0.119000
     13 C5'        -2.8550   -1.0630    5.8650 c1        1 1DS     -0.232000
     14 O2'        -1.0140   -2.2330    3.1050 oh        1 1DS     -0.329000
     15 C6'        -4.0150   -0.3110    6.1760 c1        1 1DS      0.163000
     16 O6'        -5.0660   -0.3510    5.4260 oh        1 1DS     -0.150000
     17 O4'         2.0020    0.8360    5.3700 oh        1 1DS     -0.414000
     18 O3'         0.5730   -1.5210    5.7740 oh        1 1DS     -0.309000
     19 C1'        -1.2320   -4.3610    4.1850 c1        1 1DS      0.152000
     20 O1'        -0.8890   -5.0710    3.1260 os        1 1DS     -0.256000
     21 O2          3.4760   -3.7390    3.5420 oh        1 1DS     -0.311000
     22 O3          3.4400   -0.1600    3.6050 oh        1 1DS     -0.175000
     23 O4          3.7280    0.3090    0.2980 oh        1 1DS     -0.319000
     24 C1N        -1.4280   -6.3650    2.9380 c2        1 1DS      0.282000
     25 C2N         1.3340   -7.8280    1.3370 c2        1 1DS     -0.229000
     26 O1N        -2.5860   -6.5420    3.2560 o         1 1DS     -0.237000
     27 C3N         0.5660   -8.9140    1.2870 c2        1 1DS     -0.181000
     28 C4N         0.5430   -9.9610    2.3380 c3        1 1DS     -0.142000
     29 C5N         0.6830  -11.3490    1.7270 c3        1 1DS     -0.057000
     30 H1         -0.4750    2.9750    1.2980 ho        1 1DS      0.235000
     31 H2          0.7760   -2.0070   -1.2680 ha        1 1DS      0.001625
     32 H3          0.5660   -2.6480   -1.2020 ha        1 1DS      0.001625
     33 H4          0.1780   -3.4800    1.5630 ho        1 1DS      0.209500
     34 H5          2.3730    0.0770   -1.1770 h1        1 1DS      0.112000
     35 H6          2.2050   -1.1230    0.2100 h1        1 1DS      0.112000
     36 H7          3.0120   -2.5140    1.9310 h1        1 1DS      0.157000
     37 H8          0.1480   -2.0170    1.1610 ho        1 1DS      0.209500
     38 H9         -0.4660   -3.1580    6.3390 h1        1 1DS      0.171000
     39 H10         2.7600    1.4220    5.2720 ho        1 1DS      0.209500
     40 H11        -0.7050   -1.3190    3.2210 ho        1 1DS      0.242000
     41 H12         0.4060    0.4990    3.4730 ha        1 1DS      0.001625
     42 H13         0.2040    1.0060    3.8790 ha        1 1DS      0.001625
     43 H14        -5.0340   -0.9270    4.6310 ho        1 1DS      0.180000
     44 H15         2.2390    0.2760    6.1160 ho        1 1DS      0.209500
     45 H16         0.5650   -0.8110    5.1100 ho        1 1DS      0.234000
     46 H17        -3.2560   -1.0520    3.3440 ha        1 1DS      0.001625
     47 H18        -3.3170   -1.1690    2.6790 ha        1 1DS      0.001625
     48 H19         4.4160   -3.6370    3.7490 ho        1 1DS      0.219000
     49 H20         2.4630   -0.0510    3.4810 ho        1 1DS      0.223000
     50 H21         3.7930    0.2940    1.2620 ho        1 1DS      0.205000
     51 H22         1.3590   -5.2960    2.1980 ha        1 1DS      0.001625
     52 H23        -0.6680   -7.0050    2.4440 h5        1 1DS      0.215000
     53 H24         1.8450   -4.8250    2.2680 ha        1 1DS      0.001625
     54 H25         1.3280   -7.0660    0.5450 ha        1 1DS      0.123500
     55 H26         2.0320   -7.6250    2.1620 ha        1 1DS      0.123500
     56 H27        -0.4300   -9.9000    2.8970 hc        1 1DS      0.098000
     57 H28         1.3650   -9.7990    3.0850 hc        1 1DS      0.098000
     58 H29        -0.1120   -9.0950    0.4350 ha        1 1DS      0.122000
     59 C7          0.6440  -12.3890    2.7000 c1        1 1DS     -0.116000
     60 C8          0.6080  -13.2770    3.5310 c1        1 1DS     -0.155000
     61 C9          0.5620  -14.1090    4.5910 c1        1 1DS      0.027000
     62 C10         0.5260  -15.5170    4.5800 c2        1 1DS     -0.485000
     63 C11         0.4840  -16.2370    5.6960 c1        1 1DS      0.366000
     64 H30         1.6590  -11.4160    1.1640 hc        1 1DS      0.115500
     65 H31        -0.1420  -11.5210    0.9750 hc        1 1DS      0.115500
     66 H32        -1.2720  -13.4220    0.0150 ha        1 1DS      0.001625
     67 H33        -1.7770  -12.9820   -0.0890 ha        1 1DS      0.001625
     68 H34         1.1110  -13.9440   -0.3800 ha        1 1DS      0.001625
     69 H35         1.0270  -13.4620    0.0890 ha        1 1DS      0.001625
     70 H36        -0.3510  -15.2910    0.9310 ha        1 1DS      0.001625
     71 H37        -0.4010  -15.7930    1.3840 ha        1 1DS      0.001625
     72 H38         0.5300  -16.0800    3.6140 ha        1 1DS      0.181000
     73 H39         1.2030  -17.8800    2.2680 ha        1 1DS      0.001625
     74 H40         0.9570  -17.4450    1.8110 ha        1 1DS      0.001625
@<TRIPOS>BOND
     1    1    2 1   
     2    1   30 1   
     3    2    3 1   
     4    3    4 1   
     5    4   23 1   
     6    4   34 1   
     7    4   35 1   
     8    5    6 1   
     9    5   22 1   
    10    6    7 1   
    11    6   21 1   
    12    6   36 1   
    13    7    9 1   
    14    8   33 1   
    15    8   37 1   
    16    9   10 1   
    17   10   11 1   
    18   10   14 1   
    19   10   19 1   
    20   11   12 1   
    21   11   18 1   
    22   11   38 1   
    23   12   13 1   
    24   13   15 1   
    25   14   40 1   
    26   15   16 1   
    27   16   43 1   
    28   17   39 1   
    29   17   44 1   
    30   18   45 1   
    31   19   20 1   
    32   20   24 1   
    33   21   48 1   
    34   22   49 1   
    35   23   50 1   
    36   24   26 1   
    37   24   52 1   
    38   25   27 1   
    39   25   54 1   
    40   25   55 1   
    41   27   28 1   
    42   27   58 1   
    43   28   29 1   
    44   28   56 1   
    45   28   57 1   
    46   29   59 1   
    47   29   64 1   
    48   29   65 1   
    49   31   32 1   
    50   41   42 1   
    51   46   47 1   
    52   51   53 1   
    53   59   60 1   
    54   60   61 1   
    55   61   62 1   
    56   62   63 1   
    57   62   72 1   
    58   66   67 1   
    59   68   69 1   
    60   70   71 1   
    61   73   74 1   
@<TRIPOS>SUBSTRUCTURE
     1 1DS         1 TEMP              0 ****  ****    0 ROOT
