@<TRIPOS>MOLECULE
1DT
   42    35     1     0     0
SMALL
bcc


@<TRIPOS>ATOM
      1 C1          2.2370   -0.2570   -0.9060 c1        1 1DT     -0.178000
      2 C2          3.6180   -0.3560   -0.9390 c1        1 1DT     -0.006000
      3 N3          4.0530   -0.6350    0.3310 n2        1 1DT     -0.181000
      4 C4          1.8240   -0.4770    0.3950 c1        1 1DT     -0.012000
      5 C5          2.9420   -0.7110    1.1600 c1        1 1DT     -0.058000
      6 N6          2.8150   -0.9510    2.4980 n1        1 1DT     -0.078000
      7 C7          1.5960   -0.9600    3.0680 c1        1 1DT     -0.112500
      8 C8          0.4630   -0.7240    2.2930 c1        1 1DT      0.058500
      9 N9          0.5870   -0.4870    0.9740 n1        1 1DT     -0.120000
     10 C10         1.8240    0.7810   -1.9470 c1        1 1DT      0.384000
     11 N11         0.4330    1.0360   -2.1920 n2        1 1DT     -0.363000
     12 O12         2.6720    1.3430   -2.6150 o         1 1DT     -0.380000
     13 C13        -0.4100    0.1210   -3.3660 c3        1 1DT      0.062000
     14 C14        -0.0910    0.2980   -4.1460 cx        1 1DT     -0.188000
     15 C15        -2.1470    0.5650   -3.3250 c3        1 1DT     -0.225000
     16 C16        -0.5070   -0.1890   -4.9130 cx        1 1DT     -0.206000
     17 C17         0.4070   -0.4430   -4.5990 cx        1 1DT     -0.206000
     18 O18        -0.9420   -0.9100    2.2550 os        1 1DT     -0.149000
     19 C19        -1.5320   -0.3050    3.3980 c1        1 1DT      0.058500
     20 C20        -2.9070   -0.0980    3.4420 c1        1 1DT     -0.125250
     21 C21        -3.4980    0.4060    4.5950 c1        1 1DT     -0.125250
     22 C22        -2.7150    0.7020    5.7050 c1        1 1DT     -0.125250
     23 C23        -1.3410    0.4960    5.6610 c1        1 1DT     -0.125250
     24 C24        -0.7500   -0.0080    4.5080 c1        1 1DT     -0.112500
     25 H1          4.1840   -0.2680   -1.7360 DU        1 1DT      0.228500
     26 H2          4.9260   -0.7510    0.5880 DU        1 1DT      0.228500
     27 H3          1.5060   -1.1330    4.0290 ha        1 1DT      0.170000
     28 H4          0.0060    1.7140   -1.7470 hn        1 1DT      0.231000
     29 H5         -0.3080   -0.8400   -3.1750 h1        1 1DT      0.108000
     30 H6          0.2300    1.2110   -4.3450 hc        1 1DT      0.121000
     31 H7         -2.4920    0.4510   -2.4110 hc        1 1DT      0.085333
     32 H8         -2.6480   -0.0150   -3.9390 hc        1 1DT      0.085333
     33 H9         -2.2520    1.5040   -3.6000 hc        1 1DT      0.085333
     34 H10        -0.5430    0.3080   -5.7670 hc        1 1DT      0.110250
     35 H11        -1.2290   -0.8180   -4.6800 hc        1 1DT      0.110250
     36 H12         0.4670   -1.2900   -4.0950 hc        1 1DT      0.110250
     37 H13         1.1540   -0.1640   -5.1820 hc        1 1DT      0.110250
     38 H14        -3.4600   -0.3070    2.6580 ha        1 1DT      0.139000
     39 H15        -4.4670    0.5510    4.6260 ha        1 1DT      0.139000
     40 H16        -3.1320    1.0570    6.5180 ha        1 1DT      0.139000
     41 H17        -0.7890    0.7050    6.4440 ha        1 1DT      0.139000
     42 H18         0.2170   -0.1530    4.4780 ha        1 1DT      0.170000
@<TRIPOS>BOND
     1    1    2 1   
     2    1    4 1   
     3    2    3 1   
     4    3    5 1   
     5    4    9 1   
     6    5    6 1   
     7    7    8 1   
     8    7   27 1   
     9    8   18 1   
    10   10   12 1   
    11   11   13 1   
    12   11   28 1   
    13   13   14 1   
    14   13   15 1   
    15   13   29 1   
    16   14   16 1   
    17   14   17 1   
    18   14   30 1   
    19   15   31 1   
    20   15   32 1   
    21   15   33 1   
    22   16   17 1   
    23   16   34 1   
    24   16   35 1   
    25   17   36 1   
    26   17   37 1   
    27   18   19 1   
    28   19   24 1   
    29   20   21 1   
    30   20   38 1   
    31   21   39 1   
    32   22   23 1   
    33   22   40 1   
    34   23   41 1   
    35   24   42 1   
@<TRIPOS>SUBSTRUCTURE
     1 1DT         1 TEMP              0 ****  ****    0 ROOT
