@<TRIPOS>MOLECULE
1DT
   43    46     1     0     0
SMALL
bcc


@<TRIPOS>ATOM
      1 C1          0.0680   -0.5390   -0.2100 cc        1 1DT     -0.404000
      2 C2          1.4800   -0.4250   -0.1990 cd        1 1DT     -0.017100
      3 N3          1.9150    0.0790    0.9990 na        1 1DT     -0.202100
      4 C4         -0.3990   -0.0680    1.0810 ca        1 1DT      0.397800
      5 C5          0.7950    0.3170    1.8210 ca        1 1DT      0.250500
      6 N6          0.7510    0.8180    3.1000 nb        1 1DT     -0.572000
      7 C7         -0.4710    0.9270    3.6010 ca        1 1DT      0.321900
      8 C8         -1.6700    0.5510    2.8530 ca        1 1DT      0.550300
      9 N9         -1.6490    0.0580    1.5970 nb        1 1DT     -0.662000
     10 C10        -0.8030   -1.0640   -1.2160 c         1 1DT      0.614300
     11 N11        -0.3050   -0.9150   -2.6550 ny        1 1DT     -0.690800
     12 O12        -1.8890   -1.6130   -1.1090 o         1 1DT     -0.413100
     13 C13        -1.2970   -0.1620   -3.5220 c3        1 1DT      0.174500
     14 C14        -0.9420   -0.3870   -4.9700 cx        1 1DT     -0.208700
     15 C15        -1.3690    1.3030   -3.1210 c3        1 1DT     -0.130100
     16 C16        -1.0100    0.7280   -5.9850 cx        1 1DT     -0.103900
     17 C17         0.3210    0.1860   -5.5700 cx        1 1DT     -0.103900
     18 O18        -2.8270    0.7620    3.5590 os        1 1DT     -0.341400
     19 C19        -4.0510    0.4370    2.9490 ca        1 1DT      0.069100
     20 C20        -4.4000   -0.8950    2.7100 ca        1 1DT     -0.116500
     21 C21        -5.6850   -1.1720    2.2450 ca        1 1DT     -0.118000
     22 C22        -6.5930   -0.1350    2.0260 ca        1 1DT     -0.117000
     23 C23        -6.2250    1.1900    2.2670 ca        1 1DT     -0.118000
     24 C24        -4.9440    1.4920    2.7270 ca        1 1DT     -0.116500
     25 H1          2.1990   -0.7050   -0.9770 h4        1 1DT      0.180000
     26 H2          2.8580    0.2280    1.2730 hn        1 1DT      0.342700
     27 H3         -0.5750    1.3210    4.6300 h4        1 1DT      0.077100
     28 H4          0.5880   -0.4210   -2.6720 hn        1 1DT      0.445300
     29 H5         -2.3060   -0.6430   -3.3170 hx        1 1DT      0.125700
     30 H6         -1.2650   -1.3930   -5.3170 hc        1 1DT      0.105700
     31 H7         -2.2230    1.7740   -3.6720 hc        1 1DT      0.076700
     32 H8         -1.5660    1.4140   -2.0260 hc        1 1DT      0.076700
     33 H9         -0.4320    1.8490   -3.3840 hc        1 1DT      0.076700
     34 H10        -1.4050    0.4830   -6.9900 hc        1 1DT      0.091450
     35 H11        -1.3020    1.7450   -5.6700 hc        1 1DT      0.091450
     36 H12         0.9790    0.8160   -4.9450 hc        1 1DT      0.091450
     37 H13         0.8980   -0.4360   -6.2790 hc        1 1DT      0.091450
     38 H14        -3.6760   -1.7030    2.8880 ha        1 1DT      0.150000
     39 H15        -5.9830   -2.2140    2.0570 ha        1 1DT      0.146000
     40 H16        -7.6080   -0.3630    1.6650 ha        1 1DT      0.145000
     41 H17        -6.9480    2.0030    2.0980 ha        1 1DT      0.146000
     42 H18        -4.6420    2.5290    2.9330 ha        1 1DT      0.150000
     43 H112       -0.1770   -1.8480   -3.0590 hn        1 1DT      0.445300
@<TRIPOS>BOND
     1    1    2 2   
     2    1    4 1   
     3    1   10 1   
     4    2    3 1   
     5    2   25 1   
     6    3    5 1   
     7    3   26 1   
     8    4    5 ar  
     9    4    9 ar  
    10    5    6 ar  
    11    6    7 ar  
    12    7    8 ar  
    13    7   27 1   
    14    8    9 ar  
    15    8   18 1   
    16   10   11 1   
    17   10   12 2   
    18   11   13 1   
    19   11   28 1   
    20   11   43 1   
    21   13   14 1   
    22   13   15 1   
    23   13   29 1   
    24   14   16 1   
    25   14   17 1   
    26   14   30 1   
    27   15   31 1   
    28   15   32 1   
    29   15   33 1   
    30   16   17 1   
    31   16   34 1   
    32   16   35 1   
    33   17   36 1   
    34   17   37 1   
    35   18   19 1   
    36   19   20 ar  
    37   19   24 ar  
    38   20   21 ar  
    39   20   38 1   
    40   21   22 ar  
    41   21   39 1   
    42   22   23 ar  
    43   22   40 1   
    44   23   24 ar  
    45   23   41 1   
    46   24   42 1   
@<TRIPOS>SUBSTRUCTURE
     1 1DT         1 TEMP              0 ****  ****    0 ROOT
