@<TRIPOS>MOLECULE
1DT
   42    45     1     0     0
SMALL
bcc


@<TRIPOS>ATOM
      1 C1          1.0790    2.3700    1.0430 cc        1 1DT     -0.328000
      2 C2          1.0860    3.7150    1.4520 cd        1 1DT     -0.007100
      3 N3         -0.1320    4.3190    1.1950 na        1 1DT     -0.265100
      4 C4         -0.2310    2.1060    0.4920 ca        1 1DT      0.367800
      5 C5         -0.9780    3.3680    0.6030 ca        1 1DT      0.263500
      6 N6         -2.2710    3.5100    0.1790 nb        1 1DT     -0.600000
      7 C7         -2.8040    2.4080   -0.3430 ca        1 1DT      0.295900
      8 C8         -2.0690    1.1630   -0.4520 ca        1 1DT      0.507300
      9 N9         -0.7970    0.9960   -0.0440 nb        1 1DT     -0.666000
     10 C10         2.2520    1.5000    1.2000 c         1 1DT      0.707300
     11 N11         2.1710    0.2000    0.7590 n         1 1DT     -0.554900
     12 O12         3.2920    1.9450    1.7430 o         1 1DT     -0.642100
     13 C13         3.3000   -0.7080    0.8210 c3        1 1DT      0.129700
     14 C14         3.8800   -0.9840   -0.5570 cx        1 1DT     -0.140700
     15 C15         2.9310   -1.9960    1.5620 c3        1 1DT     -0.106100
     16 C16         5.0240   -1.9480   -0.7220 cx        1 1DT     -0.130900
     17 C17         3.6750   -2.2850   -1.2840 cx        1 1DT     -0.130900
     18 O18        -2.8040    0.1510   -1.0480 os        1 1DT     -0.363400
     19 C19        -2.2440   -1.1300   -1.0870 ca        1 1DT      0.096100
     20 C20        -1.9940   -1.8480    0.0870 ca        1 1DT     -0.125500
     21 C21        -1.5710   -3.1730   -0.0160 ca        1 1DT     -0.120500
     22 C22        -1.4040   -3.7640   -1.2680 ca        1 1DT     -0.132000
     23 C23        -1.6540   -3.0330   -2.4310 ca        1 1DT     -0.120500
     24 C24        -2.0710   -1.7060   -2.3520 ca        1 1DT     -0.125500
     25 H1          1.9170    4.2600    1.9170 h4        1 1DT      0.200000
     26 H2         -0.3800    5.2560    1.3880 hn        1 1DT      0.319700
     27 H3         -3.8450    2.4630   -0.7030 h4        1 1DT      0.053100
     28 H4          1.3640   -0.1210    0.2820 hn        1 1DT      0.332500
     29 H5          4.1200   -0.1920    1.4160 h1        1 1DT      0.091700
     30 H6          3.9150   -0.0640   -1.1790 hc        1 1DT      0.085700
     31 H7          2.0720   -2.5170    1.0730 hc        1 1DT      0.041033
     32 H8          3.8090   -2.6830    1.5690 hc        1 1DT      0.041033
     33 H9          2.6500   -1.7660    2.6180 hc        1 1DT      0.041033
     34 H10         5.8430   -1.6790   -1.4120 hc        1 1DT      0.069950
     35 H11         5.3980   -2.5040    0.1560 hc        1 1DT      0.069950
     36 H12         3.0830   -3.0880   -0.8110 hc        1 1DT      0.069950
     37 H13         3.5270   -2.2600   -2.3780 hc        1 1DT      0.069950
     38 H14        -2.1230   -1.3700    1.0690 ha        1 1DT      0.149000
     39 H15        -1.3720   -3.7530    0.8980 ha        1 1DT      0.137000
     40 H16        -1.0730   -4.8110   -1.3410 ha        1 1DT      0.135000
     41 H17        -1.5190   -3.5030   -3.4160 ha        1 1DT      0.137000
     42 H18        -2.2730   -1.1170   -3.2580 ha        1 1DT      0.149000
@<TRIPOS>BOND
     1    1    2 2   
     2    1    4 1   
     3    1   10 1   
     4    2    3 1   
     5    2   25 1   
     6    3    5 1   
     7    3   26 1   
     8    4    5 ar  
     9    4    9 ar  
    10    5    6 ar  
    11    6    7 ar  
    12    7    8 ar  
    13    7   27 1   
    14    8    9 ar  
    15    8   18 1   
    16   10   11 1   
    17   10   12 2   
    18   11   13 1   
    19   11   28 1   
    20   13   14 1   
    21   13   15 1   
    22   13   29 1   
    23   14   16 1   
    24   14   17 1   
    25   14   30 1   
    26   15   31 1   
    27   15   32 1   
    28   15   33 1   
    29   16   17 1   
    30   16   34 1   
    31   16   35 1   
    32   17   36 1   
    33   17   37 1   
    34   18   19 1   
    35   19   20 ar  
    36   19   24 ar  
    37   20   21 ar  
    38   20   38 1   
    39   21   22 ar  
    40   21   39 1   
    41   22   23 ar  
    42   22   40 1   
    43   23   24 ar  
    44   23   41 1   
    45   24   42 1   
@<TRIPOS>SUBSTRUCTURE
     1 1DT         1 TEMP              0 ****  ****    0 ROOT
