@<TRIPOS>MOLECULE
1DT
   43    46     1     0     0
SMALL
bcc


@<TRIPOS>ATOM
      1 C1          0.0700   -0.5390   -0.2070 cc        1 1DT     -0.405000
      2 C2          1.4820   -0.4230   -0.1950 cd        1 1DT     -0.017100
      3 N3          1.9140    0.0830    1.0020 na        1 1DT     -0.202100
      4 C4         -0.3990   -0.0660    1.0820 ca        1 1DT      0.396800
      5 C5          0.7930    0.3200    1.8240 ca        1 1DT      0.250500
      6 N6          0.7480    0.8240    3.1010 nb        1 1DT     -0.572000
      7 C7         -0.4750    0.9310    3.6010 ca        1 1DT      0.321900
      8 C8         -1.6730    0.5540    2.8520 ca        1 1DT      0.550300
      9 N9         -1.6490    0.0590    1.5970 nb        1 1DT     -0.662000
     10 C10        -0.7990   -1.0660   -1.2140 c         1 1DT      0.614300
     11 N11        -0.3010   -0.9160   -2.6520 n4        1 1DT     -0.690800
     12 O12        -1.8850   -1.6180   -1.1080 o         1 1DT     -0.413100
     13 C13        -1.2940   -0.1650   -3.5200 c3        1 1DT      0.174500
     14 C14        -0.9370   -0.3880   -4.9680 cx        1 1DT     -0.208700
     15 C15        -1.3720    1.2990   -3.1190 c3        1 1DT     -0.130100
     16 C16        -1.0090    0.7260   -5.9830 cx        1 1DT     -0.103900
     17 C17         0.3230    0.1900   -5.5670 cx        1 1DT     -0.103900
     18 O18        -2.8310    0.7640    3.5560 os        1 1DT     -0.341400
     19 C19        -4.0540    0.4380    2.9450 ca        1 1DT      0.069100
     20 C20        -4.4010   -0.8950    2.7070 ca        1 1DT     -0.116500
     21 C21        -5.6850   -1.1740    2.2400 ca        1 1DT     -0.118000
     22 C22        -6.5940   -0.1380    2.0190 ca        1 1DT     -0.117000
     23 C23        -6.2280    1.1870    2.2590 ca        1 1DT     -0.118000
     24 C24        -4.9470    1.4910    2.7200 ca        1 1DT     -0.116500
     25 H1          2.2020   -0.7030   -0.9720 h4        1 1DT      0.180000
     26 H2          2.8570    0.2330    1.2780 hn        1 1DT      0.342700
     27 H3         -0.5800    1.3270    4.6290 h4        1 1DT      0.077100
     28 H4         -0.1700   -1.8480   -3.0570 hn        1 1DT      0.445800
     29 H5         -2.3020   -0.6490   -3.3160 hx        1 1DT      0.125700
     30 H6         -1.2560   -1.3950   -5.3160 hc        1 1DT      0.105700
     31 H7         -2.2270    1.7680   -3.6700 hc        1 1DT      0.076700
     32 H8         -0.4360    1.8490   -3.3810 hc        1 1DT      0.076700
     33 H9         -1.5700    1.4100   -2.0240 hc        1 1DT      0.076700
     34 H10        -1.4030    0.4800   -6.9880 hc        1 1DT      0.091450
     35 H11        -1.3060    1.7430   -5.6680 hc        1 1DT      0.091450
     36 H12         0.9030   -0.4300   -6.2760 hc        1 1DT      0.091450
     37 H13         0.9780    0.8220   -4.9410 hc        1 1DT      0.091450
     38 H14        -3.6770   -1.7020    2.8870 ha        1 1DT      0.150000
     39 H15        -5.9820   -2.2170    2.0540 ha        1 1DT      0.146000
     40 H16        -7.6080   -0.3680    1.6570 ha        1 1DT      0.145000
     41 H17        -6.9510    1.9990    2.0880 ha        1 1DT      0.146000
     42 H18        -4.6470    2.5290    2.9250 ha        1 1DT      0.150000
     43 H112        0.5910   -0.4180   -2.6690 hn        1 1DT      0.445800
@<TRIPOS>BOND
     1    1    2 2   
     2    1    4 1   
     3    1   10 1   
     4    2    3 1   
     5    2   25 1   
     6    3    5 1   
     7    3   26 1   
     8    4    5 ar  
     9    4    9 ar  
    10    5    6 ar  
    11    6    7 ar  
    12    7    8 ar  
    13    7   27 1   
    14    8    9 ar  
    15    8   18 1   
    16   10   11 1   
    17   10   12 2   
    18   11   13 1   
    19   11   28 1   
    20   11   43 1   
    21   13   14 1   
    22   13   15 1   
    23   13   29 1   
    24   14   16 1   
    25   14   17 1   
    26   14   30 1   
    27   15   31 1   
    28   15   32 1   
    29   15   33 1   
    30   16   17 1   
    31   16   34 1   
    32   16   35 1   
    33   17   36 1   
    34   17   37 1   
    35   18   19 1   
    36   19   20 ar  
    37   19   24 ar  
    38   20   21 ar  
    39   20   38 1   
    40   21   22 ar  
    41   21   39 1   
    42   22   23 ar  
    43   22   40 1   
    44   23   24 ar  
    45   23   41 1   
    46   24   42 1   
@<TRIPOS>SUBSTRUCTURE
     1 1DT         1 TEMP              0 ****  ****    0 ROOT
