@<TRIPOS>MOLECULE
1DT
   43    46     1     0     0
SMALL
bcc


@<TRIPOS>ATOM
      1 C1          0.0700   -0.5320   -0.2060 cc        1 1DT     -0.404000
      2 C2          1.4820   -0.4140   -0.1950 cd        1 1DT     -0.017100
      3 N3          1.9140    0.0980    1.0000 na        1 1DT     -0.202100
      4 C4         -0.4000   -0.0560    1.0830 ca        1 1DT      0.397800
      5 C5          0.7930    0.3360    1.8220 ca        1 1DT      0.250500
      6 N6          0.7470    0.8430    3.0980 nb        1 1DT     -0.572000
      7 C7         -0.4750    0.9500    3.5980 ca        1 1DT      0.321900
      8 C8         -1.6730    0.5680    2.8500 ca        1 1DT      0.550300
      9 N9         -1.6490    0.0680    1.5970 nb        1 1DT     -0.662000
     10 C10        -0.7990   -1.0650   -1.2100 c         1 1DT      0.614300
     11 N11        -0.3010   -0.9210   -2.6490 n4        1 1DT     -0.690800
     12 O12        -1.8840   -1.6170   -1.1010 o         1 1DT     -0.413100
     13 C13        -1.2940   -0.1740   -3.5200 c3        1 1DT      0.174500
     14 C14        -0.9380   -0.4040   -4.9670 cx        1 1DT     -0.208700
     15 C15        -1.3710    1.2920   -3.1260 c3        1 1DT     -0.130100
     16 C16        -1.0090    0.7050   -5.9880 cx        1 1DT     -0.103900
     17 C17         0.3220    0.1690   -5.5690 cx        1 1DT     -0.103900
     18 O18        -2.8310    0.7780    3.5550 os        1 1DT     -0.341400
     19 C19        -4.0540    0.4470    2.9470 ca        1 1DT      0.069100
     20 C20        -4.3980   -0.8880    2.7140 ca        1 1DT     -0.116500
     21 C21        -5.6830   -1.1710    2.2490 ca        1 1DT     -0.118000
     22 C22        -6.5940   -0.1380    2.0250 ca        1 1DT     -0.117000
     23 C23        -6.2300    1.1890    2.2600 ca        1 1DT     -0.118000
     24 C24        -4.9500    1.4980    2.7190 ca        1 1DT     -0.116500
     25 H1          2.2020   -0.6950   -0.9720 h4        1 1DT      0.180000
     26 H2          2.8570    0.2510    1.2740 hn        1 1DT      0.342700
     27 H3         -0.5810    1.3490    4.6240 h4        1 1DT      0.077100
     28 H4          0.5910   -0.4240   -2.6690 hn        1 1DT      0.445300
     29 H5         -2.3030   -0.6560   -3.3130 hx        1 1DT      0.125700
     30 H6         -1.2580   -1.4130   -5.3090 hc        1 1DT      0.105700
     31 H7         -1.5670    1.4090   -2.0310 hc        1 1DT      0.076700
     32 H8         -2.2250    1.7590   -3.6790 hc        1 1DT      0.076700
     33 H9         -0.4340    1.8400   -3.3920 hc        1 1DT      0.076700
     34 H10        -1.3050    1.7230   -5.6770 hc        1 1DT      0.091450
     35 H11        -1.4050    0.4540   -6.9910 hc        1 1DT      0.091450
     36 H12         0.9010   -0.4550   -6.2760 hc        1 1DT      0.091450
     37 H13         0.9790    0.8040   -4.9470 hc        1 1DT      0.091450
     38 H14        -3.6720   -1.6920    2.8960 ha        1 1DT      0.150000
     39 H15        -5.9770   -2.2150    2.0670 ha        1 1DT      0.146000
     40 H16        -7.6070   -0.3710    1.6640 ha        1 1DT      0.145000
     41 H17        -6.9550    1.9990    2.0860 ha        1 1DT      0.146000
     42 H18        -4.6510    2.5360    2.9190 ha        1 1DT      0.150000
     43 H112       -0.1700   -1.8550   -3.0500 hn        1 1DT      0.445300
@<TRIPOS>BOND
     1    1    2 2   
     2    1    4 1   
     3    1   10 1   
     4    2    3 1   
     5    2   25 1   
     6    3    5 1   
     7    3   26 1   
     8    4    5 ar  
     9    4    9 ar  
    10    5    6 ar  
    11    6    7 ar  
    12    7    8 ar  
    13    7   27 1   
    14    8    9 ar  
    15    8   18 1   
    16   10   11 1   
    17   10   12 2   
    18   11   13 1   
    19   11   28 1   
    20   11   43 1   
    21   13   14 1   
    22   13   15 1   
    23   13   29 1   
    24   14   16 1   
    25   14   17 1   
    26   14   30 1   
    27   15   31 1   
    28   15   32 1   
    29   15   33 1   
    30   16   17 1   
    31   16   34 1   
    32   16   35 1   
    33   17   36 1   
    34   17   37 1   
    35   18   19 1   
    36   19   20 ar  
    37   19   24 ar  
    38   20   21 ar  
    39   20   38 1   
    40   21   22 ar  
    41   21   39 1   
    42   22   23 ar  
    43   22   40 1   
    44   23   24 ar  
    45   23   41 1   
    46   24   42 1   
@<TRIPOS>SUBSTRUCTURE
     1 1DT         1 TEMP              0 ****  ****    0 ROOT
