@<TRIPOS>MOLECULE
1DU
   16    16     1     0     0
SMALL
bcc


@<TRIPOS>ATOM
      1 CAD         1.2950   -1.1520    0.1830 cc        1 1DU     -0.143300
      2 CAB         2.5250   -0.5060    0.3560 cd        1 1DU     -0.300300
      3 CAC         2.2680    0.8710   -0.0030 cd        1 1DU      0.293200
      4 NAG         0.9700    1.0310   -0.3650 nc        1 1DU     -0.514800
      5 NAH         0.3900   -0.1770   -0.2670 na        1 1DU      0.079400
      6 CAF        -1.0120   -0.4230   -0.5320 c3        1 1DU      0.053300
      7 CAE        -1.9550    0.3300    0.4200 c3        1 1DU      0.113400
      8 OAA        -3.2550   -0.1450    0.1070 oh        1 1DU     -0.604800
      9 H1          1.0020   -2.1910    0.3270 h4        1 1DU      0.175000
     10 H2          3.4660   -0.9310    0.6810 ha        1 1DU      0.165000
     11 H3          2.9730    1.7020   -0.0040 h4        1 1DU      0.042100
     12 H4         -1.2490   -0.1140   -1.5890 h1        1 1DU      0.074700
     13 H5         -1.1960   -1.5300   -0.4330 h1        1 1DU      0.074700
     14 H6         -1.7180    0.1010    1.4940 h1        1 1DU      0.041200
     15 H7         -1.8870    1.4370    0.2530 h1        1 1DU      0.041200
     16 H8         -3.8740    0.4130    0.5920 ho        1 1DU      0.409000
@<TRIPOS>BOND
     1    1    2 2   
     2    1    5 1   
     3    1    9 1   
     4    2    3 1   
     5    2   10 1   
     6    3    4 2   
     7    3   11 1   
     8    4    5 1   
     9    5    6 1   
    10    6    7 1   
    11    6   12 1   
    12    6   13 1   
    13    7    8 1   
    14    7   14 1   
    15    7   15 1   
    16    8   16 1   
@<TRIPOS>SUBSTRUCTURE
     1 1DU         1 TEMP              0 ****  ****    0 ROOT
