@<TRIPOS>MOLECULE
1DU
   16    16     1     0     0
SMALL
bcc


@<TRIPOS>ATOM
      1 CAD        -0.0200   -0.0470   -0.0270 cc        1 1DU     -0.143300
      2 CAB         1.3790   -0.0230   -0.0860 cd        1 1DU     -0.300300
      3 CAC         1.8010    0.0640    1.2940 cd        1 1DU      0.293200
      4 NAG         0.7230    0.0900    2.1180 nc        1 1DU     -0.514800
      5 NAH        -0.3650    0.0360    1.3310 na        1 1DU      0.079400
      6 CAF        -1.7230    0.0030    1.8330 c3        1 1DU      0.053300
      7 CAE        -2.0300   -1.2390    2.6850 c3        1 1DU      0.113400
      8 OAA        -3.4210   -1.1680    2.9560 oh        1 1DU     -0.604800
      9 H1         -0.7720   -0.1030   -0.8130 h4        1 1DU      0.175000
     10 H2          2.0140   -0.0570   -0.9630 ha        1 1DU      0.165000
     11 H3          2.8200    0.1070    1.6780 h4        1 1DU      0.042100
     12 H4         -1.9090    0.9220    2.4590 h1        1 1DU      0.074700
     13 H5         -2.4210    0.0250    0.9500 h1        1 1DU      0.074700
     14 H6         -1.4390   -1.2200    3.6390 h1        1 1DU      0.041200
     15 H7         -1.8010   -2.1840    2.1250 h1        1 1DU      0.041200
     16 H8         -3.6090   -1.8580    3.6030 ho        1 1DU      0.409000
@<TRIPOS>BOND
     1    1    2 2   
     2    1    5 1   
     3    1    9 1   
     4    2    3 1   
     5    2   10 1   
     6    3    4 2   
     7    3   11 1   
     8    4    5 1   
     9    5    6 1   
    10    6    7 1   
    11    6   12 1   
    12    6   13 1   
    13    7    8 1   
    14    7   14 1   
    15    7   15 1   
    16    8   16 1   
@<TRIPOS>SUBSTRUCTURE
     1 1DU         1 TEMP              0 ****  ****    0 ROOT
