@<TRIPOS>MOLECULE
1DU
   16    12     1     0     0
SMALL
bcc


@<TRIPOS>ATOM
      1 CAD         0.9710   -1.0960   -0.8840 c1        1 1DU     -0.145500
      2 CAB         2.3410   -0.7810   -0.8850 c1        1 1DU     -0.235000
      3 CAC         2.5660    0.1090    0.1110 c1        1 1DU     -0.145500
      4 NAG         1.3680    0.3590    0.7350 n2        1 1DU     -0.108000
      5 NAH         0.3850   -0.4000    0.1020 n2        1 1DU     -0.108000
      6 CAF        -1.0940   -0.4380    0.4670 c2        1 1DU     -0.006000
      7 CAE        -1.7040    0.9160    0.2110 c3        1 1DU     -0.037000
      8 OAA        -2.9100    1.0380    0.9260 oh        1 1DU     -0.332000
      9 H1          0.4900   -1.7590   -1.5390 DU        1 1DU      0.173000
     10 H2          3.0830   -1.1780   -1.5590 DU        1 1DU      0.173000
     11 H3          3.4580    0.5170    0.3490 DU        1 1DU      0.173000
     12 H4         -1.5270   -1.0800   -0.0570 ha        1 1DU      0.114000
     13 H5         -1.2040   -0.6900    1.5030 ha        1 1DU      0.114000
     14 H6         -1.0970    1.5920    0.4960 h1        1 1DU      0.080500
     15 H7         -1.8920    1.0250   -0.7960 h1        1 1DU      0.080500
     16 H8         -3.2350    1.8670    0.8210 ho        1 1DU      0.208000
@<TRIPOS>BOND
     1    1    2 1   
     2    1    5 1   
     3    2    3 1   
     4    3    4 1   
     5    4    5 1   
     6    6    7 1   
     7    6   12 1   
     8    6   13 1   
     9    7    8 1   
    10    7   14 1   
    11    7   15 1   
    12    8   16 1   
@<TRIPOS>SUBSTRUCTURE
     1 1DU         1 TEMP              0 ****  ****    0 ROOT
