@<TRIPOS>MOLECULE
1DV
   15    12     1     0     0
SMALL
bcc


@<TRIPOS>ATOM
      1 FAB        -0.6170    1.6640    3.0140 f         1 1DV     -0.160333
      2 CAJ        -0.7710    1.8410    1.6960 c3        1 1DV      0.513000
      3 FAC        -0.0640    2.9080    1.3030 f         1 1DV     -0.160333
      4 FAD        -2.0670    2.0370    1.4200 f         1 1DV     -0.160333
      5 CAI        -0.2790    0.6130    0.9620 c2        1 1DV     -0.218000
      6 CAE        -0.2290    0.4550   -0.3930 c1        1 1DV     -0.175000
      7 CAH         0.3030   -0.7750   -0.6530 c1        1 1DV     -0.067000
      8 CAA         0.5770   -1.3540   -2.0240 c2        1 1DV     -0.164000
      9 NAG         0.5770   -1.3690    0.5270 n2        1 1DV     -0.147000
     10 NAF         0.2150   -0.5060    1.5310 n2        1 1DV     -0.019000
     11 H1         -0.4900    1.1190   -1.0580 DU        1 1DV      0.230500
     12 H2          0.4340   -2.3230   -2.0040 ha        1 1DV      0.099000
     13 H3          1.5040   -1.1650   -2.2790 ha        1 1DV      0.099000
     14 H4         -0.0310   -0.9470   -2.6780 ha        1 1DV      0.099000
     15 H5          0.9390   -2.1980    0.6380 DU        1 1DV      0.230500
@<TRIPOS>BOND
     1    1    2 1   
     2    2    3 1   
     3    2    4 1   
     4    2    5 1   
     5    5    6 1   
     6    5   10 1   
     7    6    7 1   
     8    7    9 1   
     9    8   12 1   
    10    8   13 1   
    11    8   14 1   
    12    9   10 1   
@<TRIPOS>SUBSTRUCTURE
     1 1DV         1 TEMP              0 ****  ****    0 ROOT
