@<TRIPOS>MOLECULE
1DV
   15    15     1     0     0
SMALL
bcc


@<TRIPOS>ATOM
      1 FAB         0.2180   -0.4150   -0.5900 f         1 1DV     -0.231633
      2 CAJ         1.3630    0.0390    0.0170 c3        1 1DV      0.632600
      3 FAC         1.0120    0.2010    1.3340 f         1 1DV     -0.231633
      4 FAD         2.2030   -1.0480    0.0190 f         1 1DV     -0.231633
      5 CAI         1.9630    1.2680   -0.6240 cc        1 1DV      0.204600
      6 CAE         3.2820    1.3700   -1.2000 cc        1 1DV     -0.240300
      7 CAH         3.3650    2.6960   -1.6600 cd        1 1DV     -0.098600
      8 CAA         4.4690    3.3920   -2.3370 c3        1 1DV     -0.038800
      9 NAG         2.1290    3.2910   -1.3410 na        1 1DV     -0.002600
     10 NAF         1.2990    2.4580   -0.7320 nd        1 1DV     -0.451800
     11 H1          4.0280    0.5850   -1.2560 ha        1 1DV      0.182000
     12 H2          4.1530    3.7520   -3.3490 hc        1 1DV      0.059367
     13 H3          5.3280    2.6870   -2.4630 hc        1 1DV      0.059367
     14 H4          4.8150    4.2720   -1.7390 hc        1 1DV      0.059367
     15 H5          1.8540    4.2280   -1.5270 hn        1 1DV      0.328700
@<TRIPOS>BOND
     1    1    2 1   
     2    2    3 1   
     3    2    4 1   
     4    2    5 1   
     5    5    6 1   
     6    5   10 2   
     7    6    7 2   
     8    6   11 1   
     9    7    8 1   
    10    7    9 1   
    11    8   12 1   
    12    8   13 1   
    13    8   14 1   
    14    9   10 1   
    15    9   15 1   
@<TRIPOS>SUBSTRUCTURE
     1 1DV         1 TEMP              0 ****  ****    0 ROOT
