@<TRIPOS>MOLECULE
1DV
   15    15     1     0     0
SMALL
bcc


@<TRIPOS>ATOM
      1 FAB         0.2470   -0.4640   -0.6680 f         1 1DV     -0.231633
      2 CAJ         1.3570    0.0190   -0.0220 c3        1 1DV      0.632600
      3 FAC         0.9530    0.1830    1.2790 f         1 1DV     -0.231633
      4 FAD         2.2190   -1.0510    0.0200 f         1 1DV     -0.231633
      5 CAI         1.9570    1.2550   -0.6500 cc        1 1DV      0.204600
      6 CAE         3.2940    1.3810   -1.1770 cc        1 1DV     -0.240300
      7 CAH         3.3680    2.7050   -1.6430 cd        1 1DV     -0.098600
      8 CAA         4.4810    3.4180   -2.2830 c3        1 1DV     -0.038800
      9 NAG         2.1080    3.2760   -1.3750 na        1 1DV     -0.002600
     10 NAF         1.2730    2.4310   -0.7920 nd        1 1DV     -0.451800
     11 H1          4.0570    0.6110   -1.1980 ha        1 1DV      0.182000
     12 H2          4.1970    3.7680   -3.3080 hc        1 1DV      0.059700
     13 H3          5.3580    2.7300   -2.3740 hc        1 1DV      0.059700
     14 H4          4.7890    4.3080   -1.6780 hc        1 1DV      0.059700
     15 H5          1.8210    4.2060   -1.5790 hn        1 1DV      0.328700
@<TRIPOS>BOND
     1    1    2 1   
     2    2    3 1   
     3    2    4 1   
     4    2    5 1   
     5    5    6 1   
     6    5   10 2   
     7    6    7 2   
     8    6   11 1   
     9    7    8 1   
    10    7    9 1   
    11    8   12 1   
    12    8   13 1   
    13    8   14 1   
    14    9   10 1   
    15    9   15 1   
@<TRIPOS>SUBSTRUCTURE
     1 1DV         1 TEMP              0 ****  ****    0 ROOT
