@<TRIPOS>MOLECULE
1DV
   15    15     1     0     0
SMALL
bcc


@<TRIPOS>ATOM
      1 FAB        -2.1540   -0.6220    0.9480 f         1 1DV     -0.231633
      2 CAJ        -1.5030    0.0680   -0.0440 c3        1 1DV      0.632600
      3 FAC        -2.1310   -0.3210   -1.2010 f         1 1DV     -0.231633
      4 FAD        -1.8950    1.3730    0.1350 f         1 1DV     -0.231633
      5 CAI        -0.0040   -0.1180   -0.0540 cc        1 1DV      0.204600
      6 CAE         0.9850    0.9200    0.1020 cc        1 1DV     -0.240300
      7 CAH         2.2180    0.2500    0.0210 cd        1 1DV     -0.098600
      8 CAA         3.5860    0.7790    0.1090 c3        1 1DV     -0.038800
      9 NAG         1.9030   -1.1090   -0.1730 na        1 1DV     -0.002600
     10 NAF         0.5990   -1.3340   -0.2180 nd        1 1DV     -0.451800
     11 H1          0.7960    1.9780    0.2480 ha        1 1DV      0.182000
     12 H2          4.1380    0.3190    0.9680 hc        1 1DV      0.059700
     13 H3          4.1570    0.5720   -0.8310 hc        1 1DV      0.059700
     14 H4          3.5460    1.8860    0.2640 hc        1 1DV      0.059700
     15 H5          2.5460   -1.8610   -0.2720 hn        1 1DV      0.328700
@<TRIPOS>BOND
     1    1    2 1   
     2    2    3 1   
     3    2    4 1   
     4    2    5 1   
     5    5    6 1   
     6    5   10 2   
     7    6    7 2   
     8    6   11 1   
     9    7    8 1   
    10    7    9 1   
    11    8   12 1   
    12    8   13 1   
    13    8   14 1   
    14    9   10 1   
    15    9   15 1   
@<TRIPOS>SUBSTRUCTURE
     1 1DV         1 TEMP              0 ****  ****    0 ROOT
