@<TRIPOS>MOLECULE
1DW
   15    11     1     0     0
SMALL
bcc


@<TRIPOS>ATOM
      1 OAA        -2.5800   -0.0470   -2.0860 o         1 1DW     -0.276000
      2 CAD        -1.3630   -0.0470   -2.0860 c1        1 1DW      0.216000
      3 CAJ        -0.6070   -0.0470   -0.7760 c1        1 1DW     -0.115000
      4 CAI        -1.3000   -0.0470    0.4250 c1        1 1DW     -0.167000
      5 BR1        -3.2110   -0.1070    0.4250 br        1 1DW      0.060000
      6 CAF        -0.6070   -0.0470    1.6250 c2        1 1DW     -0.079000
      7 CAE         0.7790   -0.0470    1.6250 c1        1 1DW     -0.190000
      8 CAH         1.4720   -0.0470    0.4250 c1        1 1DW      0.081000
      9 OAB         2.8790   -0.0800    0.4250 o         1 1DW     -0.241000
     10 CAG         0.7790   -0.0470   -0.7760 c2        1 1DW     -0.101000
     11 H1         -0.8750   -0.0470   -2.9310 ha        1 1DW      0.115000
     12 H2         -1.0950   -0.0470    2.4700 ha        1 1DW      0.152000
     13 H3          1.2670   -0.0470    2.4710 ha        1 1DW      0.143000
     14 H4          3.1940    0.7490    0.3860 ho        1 1DW      0.223000
     15 H5          1.2670   -0.0470   -1.6210 ha        1 1DW      0.179000
@<TRIPOS>BOND
     1    1    2 1   
     2    2   11 1   
     3    3    4 1   
     4    3   10 1   
     5    4    6 1   
     6    6    7 1   
     7    6   12 1   
     8    7   13 1   
     9    8   10 1   
    10    9   14 1   
    11   10   15 1   
@<TRIPOS>SUBSTRUCTURE
     1 1DW         1 TEMP              0 ****  ****    0 ROOT
