@<TRIPOS>MOLECULE
1DW
   15    15     1     0     0
SMALL
bcc


@<TRIPOS>ATOM
      1 OAA         1.6230    0.2270   -1.1050 o         1 1DW     -0.515100
      2 CAD         1.1220   -0.0650   -0.0170 c         1 1DW      0.568500
      3 CAJ         1.8850   -0.0220    1.2510 ca        1 1DW     -0.135600
      4 CAI         1.3010   -0.3570    2.4850 ca        1 1DW     -0.026900
      5 BR1        -0.4930   -0.8900    2.6350 br        1 1DW     -0.080100
      6 CAF         2.0640   -0.3000    3.6540 ca        1 1DW     -0.079000
      7 CAE         3.4010    0.0870    3.6140 ca        1 1DW     -0.190000
      8 CAH         3.9800    0.4210    2.3830 ca        1 1DW      0.126100
      9 OAB         5.2910    0.8120    2.2550 oh        1 1DW     -0.487100
     10 CAG         3.2250    0.3680    1.2000 ca        1 1DW     -0.101000
     11 H1          0.0580   -0.3800    0.0660 h4        1 1DW      0.022200
     12 H2          1.6130   -0.5620    4.6250 ha        1 1DW      0.152000
     13 H3          3.9930    0.1290    4.5400 ha        1 1DW      0.143000
     14 H4          5.6940    0.8060    3.1360 ho        1 1DW      0.424000
     15 H5          3.6880    0.6320    0.2350 ha        1 1DW      0.179000
@<TRIPOS>BOND
     1    1    2 2   
     2    2    3 1   
     3    2   11 1   
     4    3    4 ar  
     5    3   10 ar  
     6    4    5 1   
     7    4    6 ar  
     8    6    7 ar  
     9    6   12 1   
    10    7    8 ar  
    11    7   13 1   
    12    8    9 1   
    13    8   10 ar  
    14    9   14 1   
    15   10   15 1   
@<TRIPOS>SUBSTRUCTURE
     1 1DW         1 TEMP              0 ****  ****    0 ROOT
