@<TRIPOS>MOLECULE
1DW
   15    15     1     0     0
SMALL
bcc


@<TRIPOS>ATOM
      1 OAA         0.0880   -3.2610    0.1600 o         1 1DW     -0.515100
      2 CAD        -0.3290   -2.1280   -0.0890 c         1 1DW      0.568500
      3 CAJ         0.5350   -0.9280   -0.0350 ca        1 1DW     -0.135600
      4 CAI         0.0450    0.3580   -0.3220 ca        1 1DW     -0.026900
      5 BR1        -1.7430    0.6680   -0.7990 br        1 1DW     -0.080100
      6 CAF         0.9030    1.4590   -0.2560 ca        1 1DW     -0.079000
      7 CAE         2.2420    1.3000    0.0910 ca        1 1DW     -0.190000
      8 CAH         2.7270    0.0180    0.3770 ca        1 1DW      0.126100
      9 OAB         4.0330   -0.2270    0.7280 oh        1 1DW     -0.487100
     10 CAG         1.8770   -1.0980    0.3150 ca        1 1DW     -0.101000
     11 H1         -1.3910   -1.9510   -0.3710 h4        1 1DW      0.022200
     12 H2          0.5260    2.4710   -0.4800 ha        1 1DW      0.152000
     13 H3          2.9080    2.1740    0.1400 ha        1 1DW      0.143000
     14 H4          4.5070    0.6180    0.7330 ho        1 1DW      0.424000
     15 H5          2.2670   -2.1040    0.5410 ha        1 1DW      0.179000
@<TRIPOS>BOND
     1    1    2 2   
     2    2    3 1   
     3    2   11 1   
     4    3    4 ar  
     5    3   10 ar  
     6    4    5 1   
     7    4    6 ar  
     8    6    7 ar  
     9    6   12 1   
    10    7    8 ar  
    11    7   13 1   
    12    8    9 1   
    13    8   10 ar  
    14    9   14 1   
    15   10   15 1   
@<TRIPOS>SUBSTRUCTURE
     1 1DW         1 TEMP              0 ****  ****    0 ROOT
