@<TRIPOS>MOLECULE
1DX
   77    80     1     0     0
SMALL
bcc


@<TRIPOS>ATOM
      1 FAA         0.0410    0.4350   -0.9590 f         1 1DX     -0.137900
      2 OAA         2.9210    1.4750   -9.1030 o         1 1DX     -0.836300
      3 CAB         1.7730    0.3460    0.6880 ca        1 1DX     -0.119000
      4 OAB        11.6320   -3.1320   -1.0510 o         1 1DX     -0.816800
      5 CAC         1.3590    0.3400   -0.6560 ca        1 1DX      0.089900
      6 OAC         3.9810    0.9300  -10.9980 o         1 1DX     -0.836300
      7 CAD         2.3080    0.2360   -1.6870 ca        1 1DX     -0.129000
      8 OAD        10.2230   -3.9320    0.4840 o         1 1DX     -0.816800
      9 CAE         3.1250    0.2500    0.9940 ca        1 1DX     -0.183000
     10 FAE        16.3460   -0.7430    3.3970 f         1 1DX     -0.244967
     11 CAG        13.6580    0.9460    2.7700 ca        1 1DX     -0.088500
     12 CAH        14.3950   -0.0450    2.1150 ca        1 1DX     -0.176300
     13 CAI        15.9060   -0.0780    2.2760 c3        1 1DX      0.687200
     14 CAJ        12.2750    0.9750    2.6390 ca        1 1DX     -0.117500
     15 FAJ        16.4990    1.1600    2.3850 f         1 1DX     -0.244967
     16 CAK        12.3590   -0.9790    1.2080 ca        1 1DX     -0.117500
     17 FAK        16.5910   -0.6780    1.2480 f         1 1DX     -0.244967
     18 CAN         9.4790    1.2880    1.6990 ca        1 1DX     -0.117000
     19 CAO         9.4140   -1.1310    1.6430 ca        1 1DX     -0.117000
     20 CAP         8.0910    1.3310    1.6090 ca        1 1DX     -0.112000
     21 CAQ         8.0230   -1.0830    1.5600 ca        1 1DX     -0.112000
     22 CAR         7.0460   -3.9090   -2.2700 ca        1 1DX     -0.130000
     23 CAS         8.4580   -2.6350   -3.7780 ca        1 1DX     -0.130000
     24 CAT         8.1190   -4.0530   -1.3950 ca        1 1DX     -0.103000
     25 CAU         9.5250   -2.7820   -2.8980 ca        1 1DX     -0.103000
     26 CAV         4.3060   -0.4940   -7.7230 c3        1 1DX     -0.071400
     27 CAW         5.3340   -0.8260   -6.6570 c3        1 1DX     -0.103400
     28 CAX         4.9300    0.1530   -8.9320 c3        1 1DX     -0.208400
     29 CBB         4.5920   -1.2670   -5.4020 c3        1 1DX      0.100800
     30 CBC         4.7720   -1.4180   -2.9430 c3        1 1DX      0.104800
     31 CBD         5.8640    0.1870    1.5480 c3        1 1DX      0.181700
     32 CBE         6.0570   -2.9780   -4.3740 c3        1 1DX      0.186100
     33 CBG         3.8530    0.9110   -9.7450 c         1 1DX      0.913600
     34 CBH        10.4930   -3.5310   -0.6830 c         1 1DX      0.902200
     35 CBI        11.6110    0.0150    1.8550 cp        1 1DX     -0.021000
     36 CBJ        10.1550    0.0570    1.7290 cp        1 1DX     -0.025000
     37 CBK         7.3530    0.1440    1.5560 ca        1 1DX     -0.120300
     38 CBL         7.2080   -3.1820   -3.4570 ca        1 1DX     -0.204300
     39 CBM         9.3560   -3.4710   -1.6910 ca        1 1DX     -0.087600
     40 CBN         3.6660    0.1340   -1.3850 ca        1 1DX     -0.111300
     41 CBO         4.0750    0.1440   -0.0330 ca        1 1DX      0.137100
     42 NBP         5.4910   -1.5830   -4.2450 n4        1 1DX     -0.690400
     43 CZD        13.7480   -1.0060    1.3370 ca        1 1DX     -0.088500
     44 HAB         1.0230    0.4290    1.4880 ha        1 1DX      0.152000
     45 HAD         1.9710    0.2470   -2.7350 ha        1 1DX      0.153000
     46 HAE         3.4340    0.2560    2.0490 ha        1 1DX      0.149000
     47 HAG        14.1770    1.6990    3.3820 ha        1 1DX      0.150500
     48 HAJ        11.6970    1.7500    3.1630 ha        1 1DX      0.176000
     49 HAK        11.8640   -1.7580    0.5840 ha        1 1DX      0.176000
     50 HAN        10.0510    2.2270    1.7340 ha        1 1DX      0.170000
     51 HAO         9.9270   -2.1150    1.6160 ha        1 1DX      0.170000
     52 HAP         7.5740    2.3010    1.5810 ha        1 1DX      0.132500
     53 HAQ         7.4550   -2.0230    1.4930 ha        1 1DX      0.132500
     54 HAR         6.0750   -4.3650   -2.0310 ha        1 1DX      0.117000
     55 HAS         8.5940   -2.0940   -4.7260 ha        1 1DX      0.117000
     56 HAT         8.0150   -4.6080   -0.4480 ha        1 1DX      0.169000
     57 HAU        10.5190   -2.3600   -3.1250 ha        1 1DX      0.169000
     58 HAV         3.7690   -1.4300   -8.0290 hc        1 1DX      0.058700
     59 HAVA        3.5360    0.2170   -7.3090 hc        1 1DX      0.058700
     60 HAW         6.0180   -1.6340   -7.0240 hc        1 1DX      0.052200
     61 HAWA        5.9580    0.0810   -6.4420 hc        1 1DX      0.052200
     62 HAX         5.7040    0.9010   -8.6250 hc        1 1DX      0.028700
     63 HAXA        5.4230   -0.6080   -9.5850 hc        1 1DX      0.028700
     64 HBA         5.6630    0.4000   -2.1320 hc        1 1DX      0.081200
     65 HBAA        4.3360    0.7030   -3.3360 hc        1 1DX      0.081200
     66 HBB         3.8930   -0.4390   -5.0850 hx        1 1DX      0.091700
     67 HBBA        3.9750   -2.1840   -5.6200 hx        1 1DX      0.091700
     68 HBC         5.3410   -1.9990   -2.1570 hx        1 1DX      0.103200
     69 HBCA        3.7470   -1.8700   -3.0580 hx        1 1DX      0.103200
     70 HBD         5.4850    1.1680    1.9410 h1        1 1DX      0.044700
     71 HBDA        5.4390   -0.6590    2.1520 h1        1 1DX      0.044700
     72 HBE         6.3800   -3.1000   -5.4480 hx        1 1DX      0.091200
     73 HBEA        5.2230   -3.7030   -4.1570 hx        1 1DX      0.091200
     74 HZD        14.3260   -1.7870    0.8170 ha        1 1DX      0.150500
     75 CBA         4.6590    0.0390   -2.4890 c3        1 1DX     -0.047100
     76 OBF         5.4310    0.0330    0.1800 os        1 1DX     -0.324900
     77 HBP1        6.2850   -0.9280   -4.2570 hn        1 1DX      0.447800
@<TRIPOS>BOND
     1    1    5 1   
     2    2   33 1   
     3    3    5 ar  
     4    3    9 ar  
     5    3   44 1   
     6    4   34 1   
     7    5    7 ar  
     8    6   33 1   
     9    7   40 ar  
    10    7   45 1   
    11    8   34 1   
    12    9   41 ar  
    13    9   46 1   
    14   10   13 1   
    15   11   12 ar  
    16   11   14 ar  
    17   11   47 1   
    18   12   13 1   
    19   12   43 ar  
    20   13   15 1   
    21   13   17 1   
    22   14   35 ar  
    23   14   48 1   
    24   16   35 ar  
    25   16   43 ar  
    26   16   49 1   
    27   18   20 ar  
    28   18   36 ar  
    29   18   50 1   
    30   19   21 ar  
    31   19   36 ar  
    32   19   51 1   
    33   20   37 ar  
    34   20   52 1   
    35   21   37 ar  
    36   21   53 1   
    37   22   24 ar  
    38   22   38 ar  
    39   22   54 1   
    40   23   25 ar  
    41   23   38 ar  
    42   23   55 1   
    43   24   39 ar  
    44   24   56 1   
    45   25   39 ar  
    46   25   57 1   
    47   26   27 1   
    48   26   28 1   
    49   26   58 1   
    50   26   59 1   
    51   27   29 1   
    52   27   60 1   
    53   27   61 1   
    54   28   33 1   
    55   28   62 1   
    56   28   63 1   
    57   29   42 1   
    58   29   66 1   
    59   29   67 1   
    60   30   42 1   
    61   30   68 1   
    62   30   69 1   
    63   30   75 1   
    64   31   37 1   
    65   31   70 1   
    66   31   71 1   
    67   31   76 1   
    68   32   38 1   
    69   32   42 1   
    70   32   72 1   
    71   32   73 1   
    72   34   39 1   
    73   35   36 1   
    74   40   41 ar  
    75   40   75 1   
    76   41   76 1   
    77   42   77 1   
    78   43   74 1   
    79   64   75 1   
    80   65   75 1   
@<TRIPOS>SUBSTRUCTURE
     1 1DX         1 TEMP              0 ****  ****    0 ROOT
