@<TRIPOS>MOLECULE
1DX
   76    79     1     0     0
SMALL
bcc


@<TRIPOS>ATOM
      1 FAA        -6.4690   -4.1200    1.3260 f         1 1DX     -0.152900
      2 OAA        -9.8750    3.7460   -0.9780 o         1 1DX     -0.858300
      3 CAB        -4.1590   -4.6910    1.5320 ca        1 1DX     -0.149000
      4 OAB         3.3430    2.0860   -1.2260 o         1 1DX     -0.847800
      5 CAC        -5.1650   -3.7420    1.3050 ca        1 1DX      0.081900
      6 OAC        -9.7270    5.2330    0.6750 o         1 1DX     -0.858300
      7 CAD        -4.8280   -2.3980    1.0580 ca        1 1DX     -0.136000
      8 OAD         3.1350    0.3430   -2.5790 o         1 1DX     -0.847800
      9 CAE        -2.8240   -4.2970    1.5090 ca        1 1DX     -0.194000
     10 FAE         9.6150    0.8790    1.2400 f         1 1DX     -0.251300
     11 CAG         6.6470    0.3230   -0.2270 ca        1 1DX     -0.093000
     12 CAH         7.7190   -0.3650    0.3420 ca        1 1DX     -0.186300
     13 CAI         9.1400    0.1440    0.1770 c3        1 1DX      0.688200
     14 CAJ         5.3430   -0.1440   -0.0520 ca        1 1DX     -0.116500
     15 FAJ         9.3550    0.9650   -0.9040 f         1 1DX     -0.251300
     16 CAK         6.1980   -1.9950    1.2570 ca        1 1DX     -0.116500
     17 FAK        10.0930   -0.8400    0.0280 f         1 1DX     -0.251300
     18 CAN         3.4090   -2.4690    2.0950 ca        1 1DX     -0.115500
     19 CAO         2.7680   -1.6380   -0.0850 ca        1 1DX     -0.115500
     20 CAP         2.1290   -2.9800    2.2810 ca        1 1DX     -0.118500
     21 CAQ         1.4850   -2.1510    0.1060 ca        1 1DX     -0.118500
     22 CAR        -1.0280    0.9720   -2.9220 ca        1 1DX     -0.145500
     23 CAS        -0.8770    2.4840   -1.0440 ca        1 1DX     -0.145500
     24 CAT         0.3600    0.8480   -2.9320 ca        1 1DX     -0.111500
     25 CAU         0.5110    2.3610   -1.0600 ca        1 1DX     -0.111500
     26 CAV        -7.1660    2.9770   -0.3430 c3        1 1DX     -0.066400
     27 CAW        -5.6720    2.9180   -0.5970 c3        1 1DX     -0.081400
     28 CAX        -7.6670    4.3970   -0.2410 c3        1 1DX     -0.190400
     29 CBB        -5.2280    1.4650   -0.7490 c3        1 1DX      0.172800
     30 CBC        -3.4500   -0.1610   -0.6630 c3        1 1DX      0.177800
     31 CBD        -0.1710   -3.4850    1.4480 c3        1 1DX      0.178700
     32 CBE        -3.1520    1.9010   -1.9410 c3        1 1DX      0.224100
     33 CBG        -9.2020    4.4540   -0.1740 c         1 1DX      0.906600
     34 CBH         2.6320    1.3200   -1.9410 c         1 1DX      0.900200
     35 CBI         5.1070   -1.3040    0.7000 cp        1 1DX     -0.008000
     36 CBJ         3.7480   -1.8070    0.9040 cp        1 1DX     -0.040000
     37 CBK         1.1630   -2.8400    1.2780 ca        1 1DX     -0.102300
     38 CBL        -1.6560    1.7800   -1.9680 ca        1 1DX     -0.103300
     39 CBM         1.1390    1.5290   -1.9920 ca        1 1DX     -0.127600
     40 CBN        -3.4940   -1.9930    1.0320 ca        1 1DX     -0.059300
     41 CBO        -2.4860   -2.9620    1.2560 ca        1 1DX      0.118100
     42 NBP        -3.7850    1.2510   -0.8000 n3        1 1DX     -0.740600
     43 CZD         7.4960   -1.5300    1.0820 ca        1 1DX     -0.093000
     44 HAB        -4.4270   -5.7380    1.7270 ha        1 1DX      0.133000
     45 HAD        -5.6260   -1.6590    0.8830 ha        1 1DX      0.161000
     46 HAE        -2.0500   -5.0550    1.6910 ha        1 1DX      0.132000
     47 HAG         6.8180    1.2350   -0.8230 ha        1 1DX      0.144000
     48 HAJ         4.5060    0.4210   -0.5310 ha        1 1DX      0.183000
     49 HAK         6.0290   -2.9190    1.8280 ha        1 1DX      0.183000
     50 HAN         4.1550   -2.5730    2.8970 ha        1 1DX      0.168500
     51 HAO         3.0020   -1.0820   -1.0200 ha        1 1DX      0.168500
     52 HAP         1.8770   -3.4910    3.2220 ha        1 1DX      0.135000
     53 HAQ         0.7150   -1.9990   -0.6670 ha        1 1DX      0.135000
     54 HAR        -1.6330    0.4260   -3.6600 ha        1 1DX      0.117500
     55 HAS        -1.3690    3.1220   -0.2960 ha        1 1DX      0.117500
     56 HAT         0.8670    0.2010   -3.6650 ha        1 1DX      0.144500
     57 HAU         1.1380    2.9060   -0.3360 ha        1 1DX      0.144500
     58 HAV        -7.7200    2.4590   -1.1710 hc        1 1DX      0.041700
     59 HAVA       -7.4070    2.4290    0.6060 hc        1 1DX      0.041700
     60 HAW        -5.4330    3.4930   -1.5290 hc        1 1DX      0.036200
     61 HAWA       -5.1220    3.4060    0.2490 hc        1 1DX      0.036200
     62 HAX        -7.2370    4.8960    0.6630 hc        1 1DX      0.020200
     63 HAXA       -7.3440    4.9800   -1.1410 hc        1 1DX      0.020200
     64 HBA        -2.0990   -0.3500    1.0330 hc        1 1DX      0.072700
     65 HBAA       -3.7980    0.0630    1.4970 hc        1 1DX      0.072700
     66 HBB        -5.6100    0.8890    0.1440 h1        1 1DX      0.021700
     67 HBBA       -5.7350    1.0370   -1.6650 h1        1 1DX      0.021700
     68 HBC        -2.5230   -0.3950   -1.2620 h1        1 1DX      0.036200
     69 HBCA       -4.2780   -0.8170   -1.0660 h1        1 1DX      0.036200
     70 HBD        -0.2980   -3.8930    2.4860 h1        1 1DX      0.035700
     71 HBDA       -0.2830   -4.3170    0.6990 h1        1 1DX      0.035700
     72 HBE        -3.4140    2.9970   -1.8760 h1        1 1DX      0.031200
     73 HBEA       -3.5700    1.5100   -2.9170 h1        1 1DX      0.031200
     74 HZD         8.3470   -2.0750    1.5140 ha        1 1DX      0.144000
     75 CBA        -3.1760   -0.5580    0.7960 c3        1 1DX     -0.044100
     76 OBF        -1.1860   -2.4970    1.2090 os        1 1DX     -0.304900
@<TRIPOS>BOND
     1    1    5 1   
     2    2   33 1   
     3    3    5 ar  
     4    3    9 ar  
     5    3   44 1   
     6    4   34 1   
     7    5    7 ar  
     8    6   33 1   
     9    7   40 ar  
    10    7   45 1   
    11    8   34 1   
    12    9   41 ar  
    13    9   46 1   
    14   10   13 1   
    15   11   12 ar  
    16   11   14 ar  
    17   11   47 1   
    18   12   13 1   
    19   12   43 ar  
    20   13   15 1   
    21   13   17 1   
    22   14   35 ar  
    23   14   48 1   
    24   16   35 ar  
    25   16   43 ar  
    26   16   49 1   
    27   18   20 ar  
    28   18   36 ar  
    29   18   50 1   
    30   19   21 ar  
    31   19   36 ar  
    32   19   51 1   
    33   20   37 ar  
    34   20   52 1   
    35   21   37 ar  
    36   21   53 1   
    37   22   24 ar  
    38   22   38 ar  
    39   22   54 1   
    40   23   25 ar  
    41   23   38 ar  
    42   23   55 1   
    43   24   39 ar  
    44   24   56 1   
    45   25   39 ar  
    46   25   57 1   
    47   26   27 1   
    48   26   28 1   
    49   26   58 1   
    50   26   59 1   
    51   27   29 1   
    52   27   60 1   
    53   27   61 1   
    54   28   33 1   
    55   28   62 1   
    56   28   63 1   
    57   29   42 1   
    58   29   66 1   
    59   29   67 1   
    60   30   42 1   
    61   30   68 1   
    62   30   69 1   
    63   30   75 1   
    64   31   37 1   
    65   31   70 1   
    66   31   71 1   
    67   31   76 1   
    68   32   38 1   
    69   32   42 1   
    70   32   72 1   
    71   32   73 1   
    72   34   39 1   
    73   35   36 1   
    74   40   41 ar  
    75   40   75 1   
    76   41   76 1   
    77   43   74 1   
    78   64   75 1   
    79   65   75 1   
@<TRIPOS>SUBSTRUCTURE
     1 1DX         1 TEMP              0 ****  ****    0 ROOT
