@<TRIPOS>MOLECULE
1DX
   76    67     1     0     0
SMALL
bcc


@<TRIPOS>ATOM
      1 FAA        -0.7180   -3.7550    5.3390 f         1 1DX     -0.120100
      2 OAA        -2.0960    1.0600   -4.1280 o         1 1DX     -0.862800
      3 CAB        -0.0970   -1.5410    5.6210 c1        1 1DX     -0.085375
      4 OAB        -5.0250   -4.4640    1.2360 o         1 1DX     -0.838300
      5 CAC         0.0530   -2.7410    4.9140 c1        1 1DX      0.053100
      6 OAC        -0.4490    2.4280   -4.2850 o         1 1DX     -0.862800
      7 CAD         0.7210   -2.7540    3.7000 c1        1 1DX     -0.077500
      8 OAD        -4.1790   -6.0720    2.4160 o         1 1DX     -0.838300
      9 CAE         0.4200   -0.3710    5.1090 c1        1 1DX     -0.085375
     10 FAE         0.1220    6.3980   -6.0570 f         1 1DX     -0.251633
     11 CAG        -1.6260    5.2480   -3.0990 c1        1 1DX     -0.085375
     12 CAH        -0.6070    5.5440   -4.0110 c1        1 1DX     -0.153100
     13 CAI        -0.9660    6.1400   -5.3960 c3        1 1DX      0.655000
     14 CAJ        -1.3110    4.7720   -1.8400 c1        1 1DX     -0.085375
     15 FAJ        -1.6730    7.2890   -5.2230 f         1 1DX     -0.251633
     16 CAK         1.0230    4.8710   -2.3590 c1        1 1DX     -0.039500
     17 FAK        -1.7130    5.2500   -6.0900 f         1 1DX     -0.251633
     18 CAN         1.0200    2.7260   -0.0390 c1        1 1DX     -0.039500
     19 CAO         0.0360    4.6290    1.0670 c1        1 1DX     -0.085375
     20 CAP         1.3550    2.1780    1.1990 c1        1 1DX     -0.043500
     21 CAQ         0.3690    4.0840    2.3040 c1        1 1DX     -0.085375
     22 CAR        -1.3090   -4.1620   -0.9130 c1        1 1DX     -0.088500
     23 CAS        -0.3490   -4.9800    1.1260 c1        1 1DX     -0.085375
     24 CAT        -2.5870   -4.4900   -0.4300 c1        1 1DX     -0.054500
     25 CAU        -1.6160   -5.3040    1.6020 c1        1 1DX     -0.085375
     26 CAV        -0.1280   -0.4440   -2.3750 c3        1 1DX     -0.069400
     27 CAW         1.0110   -1.3640   -1.9740 c3        1 1DX     -0.081400
     28 CAX         0.1260    0.1120   -3.8070 c3        1 1DX     -0.181400
     29 CBA         2.0350   -1.5990    1.8790 c3        1 1DX     -0.081300
     30 CBB         0.8260   -1.8120   -0.4970 c3        1 1DX      0.174800
     31 CBC         1.9760   -3.0050    1.2620 c3        1 1DX      0.190800
     32 CBD         0.9310    2.0210    3.6630 c3        1 1DX      0.145500
     33 CBE         1.2120   -4.1910   -0.7180 c3        1 1DX      0.200900
     34 OBF         1.7630    0.8880    3.5500 os        1 1DX     -0.297400
     35 CBG        -0.8740    1.2830   -4.0920 c         1 1DX      0.903600
     36 CBH        -4.0380   -5.1920    1.5630 c         1 1DX      0.854800
     37 CBI         0.0240    4.5830   -1.4730 cg        1 1DX     -0.025500
     38 CBJ         0.3600    3.9520   -0.1020 cg        1 1DX     -0.025500
     39 CBK         1.0290    2.8590    2.3720 c1        1 1DX     -0.066100
     40 CBL        -0.2010   -4.4070   -0.1380 c1        1 1DX     -0.113100
     41 CBM        -2.7290   -5.0590    0.8280 cg        1 1DX     -0.069200
     42 CBN         1.2420   -1.5780    3.1820 c1        1 1DX     -0.023100
     43 CBO         1.0920   -0.3800    3.8880 c1        1 1DX      0.102600
     44 NBP         1.7670   -2.9000   -0.2040 n3        1 1DX     -0.759600
     45 CZD         0.7000    5.3620   -3.6570 c1        1 1DX     -0.012500
     46 HAB        -0.5660   -1.5350    6.4730 ha        1 1DX      0.066875
     47 HAD         0.9130   -3.5770    3.2790 ha        1 1DX      0.098500
     48 HAE         0.3090    0.5180    5.6340 ha        1 1DX      0.066875
     49 HAG        -2.5230    5.2660   -3.3790 ha        1 1DX      0.066875
     50 HAJ        -2.1220    4.5990   -1.2660 ha        1 1DX      0.066875
     51 HAK         2.0350    4.6120   -2.5060 ha        1 1DX      0.174500
     52 HAN         1.2460    2.2500   -0.8630 ha        1 1DX      0.174500
     53 HAO        -0.4270    5.4890    1.0200 ha        1 1DX      0.066875
     54 HAP         1.8300    1.2970    1.2470 ha        1 1DX      0.101500
     55 HAQ         0.1260    4.5920    3.1770 ha        1 1DX      0.066875
     56 HAR        -1.2030   -3.7440   -1.8360 ha        1 1DX      0.055500
     57 HAS         0.4400   -5.1540    1.6800 ha        1 1DX      0.066875
     58 HAT        -3.3290   -4.3260   -0.9450 ha        1 1DX      0.090500
     59 HAU        -1.7120   -5.6850    2.4420 ha        1 1DX      0.066875
     60 HAV        -0.1820    0.2740   -1.7630 hc        1 1DX      0.038700
     61 HAVA       -0.9720   -0.9440   -2.3660 hc        1 1DX      0.038700
     62 HAW         1.8830   -0.8770   -2.0690 hc        1 1DX      0.036700
     63 HAWA        1.0140   -2.1560   -2.5550 hc        1 1DX      0.036700
     64 HAX        -0.0120   -0.6030   -4.4650 hc        1 1DX      0.028200
     65 HAXA        1.0280    0.4380   -3.8690 hc        1 1DX      0.028200
     66 HBA         1.6710   -0.9870    1.2880 hc        1 1DX      0.067200
     67 HBAA        2.9730   -1.3610    2.0650 hc        1 1DX      0.067200
     68 HBB        -0.1260   -2.1420   -0.3570 h1        1 1DX      0.031200
     69 HBBA        1.0030   -1.0450    0.1100 h1        1 1DX      0.031200
     70 HBC         2.8110   -3.4680    1.4360 h1        1 1DX      0.038700
     71 HBCA        1.2710   -3.4840    1.6420 h1        1 1DX      0.038700
     72 HBD         0.0180    1.7390    3.7940 h1        1 1DX      0.038700
     73 HBDA        1.2190    2.5610    4.4250 h1        1 1DX      0.038700
     74 HBE         1.7810   -4.9140   -0.4440 h1        1 1DX      0.041200
     75 HBEA        1.1640   -4.1640   -1.7240 h1        1 1DX      0.041200
     76 HZD         1.5140    5.4190   -4.2190 ha        1 1DX      0.110500
@<TRIPOS>BOND
     1    1    5 1   
     2    2   35 1   
     3    3    9 3   
     4    3   46 1   
     5    4   36 1   
     6    5    7 3   
     7    6   35 1   
     8    7   47 1   
     9    8   36 1   
    10    9   48 1   
    11   10   13 1   
    12   11   14 3   
    13   11   49 1   
    14   12   13 1   
    15   12   45 3   
    16   13   15 1   
    17   13   17 1   
    18   14   50 1   
    19   16   37 3   
    20   16   51 1   
    21   18   38 3   
    22   18   52 1   
    23   19   21 3   
    24   19   53 1   
    25   20   39 3   
    26   20   54 1   
    27   21   55 1   
    28   22   40 3   
    29   22   56 1   
    30   23   25 3   
    31   23   57 1   
    32   24   41 3   
    33   24   58 1   
    34   25   59 1   
    35   26   27 1   
    36   26   28 1   
    37   26   60 1   
    38   26   61 1   
    39   27   30 1   
    40   27   62 1   
    41   27   63 1   
    42   28   35 1   
    43   28   64 1   
    44   28   65 1   
    45   29   31 1   
    46   29   42 1   
    47   29   66 1   
    48   29   67 1   
    49   30   44 1   
    50   30   68 1   
    51   30   69 1   
    52   31   44 1   
    53   31   70 1   
    54   31   71 1   
    55   32   34 1   
    56   32   39 1   
    57   32   72 1   
    58   32   73 1   
    59   33   40 1   
    60   33   44 1   
    61   33   74 1   
    62   33   75 1   
    63   34   43 1   
    64   36   41 1   
    65   37   38 1   
    66   42   43 3   
    67   45   76 1   
@<TRIPOS>SUBSTRUCTURE
     1 1DX         1 TEMP              0 ****  ****    0 ROOT
