@<TRIPOS>MOLECULE
1DY
   55    58     1     0     0
SMALL
bcc


@<TRIPOS>ATOM
      1 N1          0.2200   -0.1070    0.1060 n         1 1DY     -0.498400
      2 C1          1.6240   -0.0640    0.1560 c         1 1DY      0.709100
      3 O1          2.2640   -0.1530   -0.9060 o         1 1DY     -0.618500
      4 C2          2.2160    0.0870    1.4980 ca        1 1DY     -0.188600
      5 C3          3.6070    0.1400    1.6540 ca        1 1DY     -0.058000
      6 C4          4.1530    0.2810    2.9220 ca        1 1DY     -0.152000
      7 C5          3.3130    0.3710    4.0400 ca        1 1DY     -0.093000
      8 C6          1.9350    0.3200    3.9070 ca        1 1DY     -0.125000
      9 C7          1.3530    0.1760    2.6230 ca        1 1DY      0.184400
     10 N2         -0.0400    0.1250    2.4860 nc        1 1DY     -0.637100
     11 C8         -0.5480   -0.0100    1.2740 cd        1 1DY      0.494900
     12 C9         -2.0510   -0.0710    1.0630 c3        1 1DY     -0.113700
     13 C10        -2.8450    0.0330    2.3470 c3        1 1DY     -0.144400
     14 C11        -4.3350   -0.0340    2.0380 c         1 1DY      0.663100
     15 O2         -4.7530   -0.1480    0.8730 o         1 1DY     -0.589100
     16 N3         -5.1730    0.0440    3.1440 n         1 1DY     -0.471100
     17 C12        -6.5740    0.0070    3.1630 ca        1 1DY      0.093600
     18 C13        -7.3610   -0.1930    2.0070 ca        1 1DY     -0.181500
     19 C14        -8.7480   -0.2210    2.1030 ca        1 1DY     -0.062000
     20 C15        -7.2320    0.1700    4.4090 ca        1 1DY     -0.181500
     21 C16        -8.6180    0.1460    4.4860 ca        1 1DY     -0.062000
     22 C17        -9.3870   -0.0420    3.3340 ca        1 1DY     -0.176600
     23 C18       -10.8780   -0.0980    3.3710 c         1 1DY      0.683700
     24 O3        -11.5070   -0.9080    2.6630 o         1 1DY     -0.591100
     25 N4        -11.4960    0.8010    4.2280 n         1 1DY     -0.459100
     26 C19       -12.8760    0.9840    4.4120 ca        1 1DY      0.053600
     27 C20       -13.8410    0.0650    3.9560 ca        1 1DY     -0.134000
     28 C21       -15.1990    0.2840    4.1820 ca        1 1DY     -0.132000
     29 C22       -15.6350    1.4100    4.8700 ca        1 1DY     -0.127000
     30 C23       -14.7070    2.3370    5.3420 ca        1 1DY     -0.173000
     31 C24       -13.3450    2.1360    5.1190 ca        1 1DY      0.069100
     32 O4        -12.3670    3.0010    5.5930 os        1 1DY     -0.350900
     33 C25       -12.8120    4.2980    5.9710 c3        1 1DY      0.120700
     34 H1         -0.2300   -0.2080   -0.7760 hn        1 1DY      0.339500
     35 H2          4.2480    0.0670    0.7600 ha        1 1DY      0.160000
     36 H3          5.2440    0.3230    3.0510 ha        1 1DY      0.141000
     37 H4          3.7580    0.4830    5.0420 ha        1 1DY      0.138000
     38 H5          1.2870    0.3920    4.7940 ha        1 1DY      0.150000
     39 H6         -2.3050   -1.0390    0.5480 hc        1 1DY      0.084700
     40 H7         -2.3530    0.7640    0.3720 hc        1 1DY      0.084700
     41 H8         -2.5700   -0.8050    3.0410 hc        1 1DY      0.086200
     42 H9         -2.6160    1.0010    2.8670 hc        1 1DY      0.086200
     43 H10        -4.7350    0.1450    4.0340 hn        1 1DY      0.320500
     44 H11        -6.8900   -0.3320    1.0200 ha        1 1DY      0.156500
     45 H12        -9.3570   -0.3970    1.2000 ha        1 1DY      0.150000
     46 H13        -6.6500    0.3140    5.3330 ha        1 1DY      0.156500
     47 H14        -9.0980    0.2590    5.4710 ha        1 1DY      0.150000
     48 H15       -10.9160    1.4820    4.6710 hn        1 1DY      0.332500
     49 H16       -13.5290   -0.8390    3.4060 ha        1 1DY      0.176000
     50 H17       -15.9280   -0.4510    3.8080 ha        1 1DY      0.137000
     51 H18       -16.7080    1.5750    5.0450 ha        1 1DY      0.133000
     52 H19       -15.0560    3.2240    5.8900 ha        1 1DY      0.137000
     53 H20       -13.4210    4.7670    5.1610 h1        1 1DY      0.044033
     54 H21       -11.8600    4.8650    6.1310 h1        1 1DY      0.044033
     55 H22       -13.3990    4.2430    6.9210 h1        1 1DY      0.044033
@<TRIPOS>BOND
     1    1    2 1   
     2    1   11 1   
     3    1   34 1   
     4    2    3 2   
     5    2    4 1   
     6    4    5 ar  
     7    4    9 ar  
     8    5    6 ar  
     9    5   35 1   
    10    6    7 ar  
    11    6   36 1   
    12    7    8 ar  
    13    7   37 1   
    14    8    9 ar  
    15    8   38 1   
    16    9   10 1   
    17   10   11 2   
    18   11   12 1   
    19   12   13 1   
    20   12   39 1   
    21   12   40 1   
    22   13   14 1   
    23   13   41 1   
    24   13   42 1   
    25   14   15 2   
    26   14   16 1   
    27   16   17 1   
    28   16   43 1   
    29   17   18 ar  
    30   17   20 ar  
    31   18   19 ar  
    32   18   44 1   
    33   19   22 ar  
    34   19   45 1   
    35   20   21 ar  
    36   20   46 1   
    37   21   22 ar  
    38   21   47 1   
    39   22   23 1   
    40   23   24 2   
    41   23   25 1   
    42   25   26 1   
    43   25   48 1   
    44   26   27 ar  
    45   26   31 ar  
    46   27   28 ar  
    47   27   49 1   
    48   28   29 ar  
    49   28   50 1   
    50   29   30 ar  
    51   29   51 1   
    52   30   31 ar  
    53   30   52 1   
    54   31   32 1   
    55   32   33 1   
    56   33   53 1   
    57   33   54 1   
    58   33   55 1   
@<TRIPOS>SUBSTRUCTURE
     1 1DY         1 TEMP              0 ****  ****    0 ROOT
