@<TRIPOS>MOLECULE
1DY
   55    58     1     0     0
SMALL
bcc


@<TRIPOS>ATOM
      1 N1          0.2190   -0.1060    0.1080 ns        1 1DY     -0.498400
      2 C1          1.6230   -0.0610    0.1580 c         1 1DY      0.709100
      3 O1          2.2630   -0.1450   -0.9050 o         1 1DY     -0.618500
      4 C2          2.2160    0.0860    1.4990 ca        1 1DY     -0.188600
      5 C3          3.6070    0.1410    1.6550 ca        1 1DY     -0.058000
      6 C4          4.1530    0.2790    2.9230 ca        1 1DY     -0.152000
      7 C5          3.3140    0.3640    4.0420 ca        1 1DY     -0.093000
      8 C6          1.9360    0.3120    3.9090 ca        1 1DY     -0.125000
      9 C7          1.3540    0.1710    2.6250 ca        1 1DY      0.184400
     10 N2         -0.0390    0.1190    2.4890 nc        1 1DY     -0.637100
     11 C8         -0.5480   -0.0140    1.2770 cd        1 1DY      0.494900
     12 C9         -2.0510   -0.0770    1.0660 c3        1 1DY     -0.113700
     13 C10        -2.8450    0.0280    2.3500 c3        1 1DY     -0.144400
     14 C11        -4.3350   -0.0400    2.0430 c         1 1DY      0.663100
     15 O2         -4.7530   -0.1580    0.8780 o         1 1DY     -0.589100
     16 N3         -5.1730    0.0410    3.1480 ns        1 1DY     -0.471100
     17 C12        -6.5740    0.0040    3.1670 ca        1 1DY      0.093600
     18 C13        -7.3610   -0.2020    2.0130 ca        1 1DY     -0.181500
     19 C14        -8.7480   -0.2300    2.1090 ca        1 1DY     -0.062000
     20 C15        -7.2310    0.1740    4.4130 ca        1 1DY     -0.181500
     21 C16        -8.6170    0.1500    4.4900 ca        1 1DY     -0.062000
     22 C17        -9.3870   -0.0440    3.3390 ca        1 1DY     -0.176600
     23 C18       -10.8770   -0.1010    3.3760 c         1 1DY      0.683700
     24 O3        -11.5060   -0.9140    2.6730 o         1 1DY     -0.591100
     25 N4        -11.4960    0.8040    4.2280 ns        1 1DY     -0.459100
     26 C19       -12.8760    0.9870    4.4100 ca        1 1DY      0.053600
     27 C20       -13.8410    0.0660    3.9600 ca        1 1DY     -0.134000
     28 C21       -15.1990    0.2850    4.1840 ca        1 1DY     -0.132000
     29 C22       -15.6350    1.4160    4.8650 ca        1 1DY     -0.127000
     30 C23       -14.7070    2.3460    5.3320 ca        1 1DY     -0.173000
     31 C24       -13.3450    2.1440    5.1110 ca        1 1DY      0.069100
     32 O4        -12.3670    3.0120    5.5790 os        1 1DY     -0.350900
     33 C25       -12.8130    4.3110    5.9500 c3        1 1DY      0.120700
     34 H1         -0.2310   -0.2050   -0.7740 hn        1 1DY      0.339500
     35 H2          4.2470    0.0720    0.7600 ha        1 1DY      0.160000
     36 H3          5.2450    0.3220    3.0520 ha        1 1DY      0.141000
     37 H4          3.7590    0.4730    5.0440 ha        1 1DY      0.138000
     38 H5          1.2880    0.3800    4.7970 ha        1 1DY      0.150000
     39 H6         -2.3550    0.7570    0.3750 hc        1 1DY      0.084700
     40 H7         -2.3040   -1.0460    0.5540 hc        1 1DY      0.084700
     41 H8         -2.6160    0.9960    2.8700 hc        1 1DY      0.086200
     42 H9         -2.5700   -0.8090    3.0460 hc        1 1DY      0.086200
     43 H10        -4.7350    0.1460    4.0370 hn        1 1DY      0.320500
     44 H11        -6.8900   -0.3470    1.0260 ha        1 1DY      0.156500
     45 H12        -9.3560   -0.4110    1.2070 ha        1 1DY      0.150000
     46 H13        -6.6500    0.3240    5.3360 ha        1 1DY      0.156500
     47 H14        -9.0980    0.2700    5.4740 ha        1 1DY      0.150000
     48 H15       -10.9160    1.4870    4.6670 hn        1 1DY      0.332500
     49 H16       -13.5290   -0.8410    3.4150 ha        1 1DY      0.176000
     50 H17       -15.9280   -0.4510    3.8140 ha        1 1DY      0.137000
     51 H18       -16.7080    1.5830    5.0390 ha        1 1DY      0.133000
     52 H19       -15.0570    3.2360    5.8740 ha        1 1DY      0.137000
     53 H20       -11.8610    4.8790    6.1070 h1        1 1DY      0.044033
     54 H21       -13.4220    4.7750    5.1380 h1        1 1DY      0.044033
     55 H22       -13.3990    4.2610    6.9000 h1        1 1DY      0.044033
@<TRIPOS>BOND
     1    1    2 1   
     2    1   11 1   
     3    1   34 1   
     4    2    3 2   
     5    2    4 1   
     6    4    5 ar  
     7    4    9 ar  
     8    5    6 ar  
     9    5   35 1   
    10    6    7 ar  
    11    6   36 1   
    12    7    8 ar  
    13    7   37 1   
    14    8    9 ar  
    15    8   38 1   
    16    9   10 1   
    17   10   11 2   
    18   11   12 1   
    19   12   13 1   
    20   12   39 1   
    21   12   40 1   
    22   13   14 1   
    23   13   41 1   
    24   13   42 1   
    25   14   15 2   
    26   14   16 1   
    27   16   17 1   
    28   16   43 1   
    29   17   18 ar  
    30   17   20 ar  
    31   18   19 ar  
    32   18   44 1   
    33   19   22 ar  
    34   19   45 1   
    35   20   21 ar  
    36   20   46 1   
    37   21   22 ar  
    38   21   47 1   
    39   22   23 1   
    40   23   24 2   
    41   23   25 1   
    42   25   26 1   
    43   25   48 1   
    44   26   27 ar  
    45   26   31 ar  
    46   27   28 ar  
    47   27   49 1   
    48   28   29 ar  
    49   28   50 1   
    50   29   30 ar  
    51   29   51 1   
    52   30   31 ar  
    53   30   52 1   
    54   31   32 1   
    55   32   33 1   
    56   33   53 1   
    57   33   54 1   
    58   33   55 1   
@<TRIPOS>SUBSTRUCTURE
     1 1DY         1 TEMP              0 ****  ****    0 ROOT
