@<TRIPOS>MOLECULE
1DY
   55    45     1     0     0
SMALL
bcc


@<TRIPOS>ATOM
      1 N1          6.2080   -1.9470   -0.9340 n         1 1DY     -0.338000
      2 C1          7.6150   -1.9500   -0.8820 c2        1 1DY      0.346000
      3 O1          8.2730   -2.4970   -1.7940 o         1 1DY     -0.343000
      4 C2          8.3290   -1.3220    0.2960 c2        1 1DY     -0.168000
      5 C3          9.7400   -1.2990    0.3400 c2        1 1DY     -0.058000
      6 C4         10.3960   -0.6950    1.4170 c1        1 1DY     -0.152000
      7 C5          9.6560   -0.1150    2.4470 c1        1 1DY     -0.121250
      8 C6          8.2650   -0.1370    2.4050 c1        1 1DY     -0.121250
      9 C7          7.5990   -0.7480    1.3150 c1        1 1DY      0.045000
     10 N2          6.1360   -0.7470    1.2560 n1        1 1DY     -0.210000
     11 C8          5.4520   -1.3500    0.1260 c1        1 1DY      0.125000
     12 C9          3.9060   -1.4130    0.1040 c2        1 1DY     -0.117000
     13 C10         3.3460   -0.1100   -0.5190 c3        1 1DY     -0.173000
     14 C11         1.8020   -0.1350   -0.4670 c1        1 1DY      0.307000
     15 O2          1.2330   -1.0340    0.0930 o         1 1DY     -0.349000
     16 N3          1.0650    0.8540   -1.1250 n2        1 1DY     -0.325000
     17 C12        -0.3670    0.7950   -1.1310 c1        1 1DY      0.102000
     18 C13        -1.0210   -0.1760   -1.8900 c1        1 1DY     -0.121250
     19 C14        -2.4000   -0.2520   -1.8730 c1        1 1DY     -0.121250
     20 C15        -1.0980    1.6780   -0.3640 c1        1 1DY     -0.196000
     21 C16        -2.4890    1.6000   -0.3470 c1        1 1DY     -0.073000
     22 C17        -3.1370    0.6380   -1.0990 c1        1 1DY     -0.158000
     23 C18        -4.6520    0.5010   -1.0220 c1        1 1DY      0.359000
     24 O3         -5.2230   -0.3230   -1.7170 o         1 1DY     -0.350000
     25 N4         -5.4200    1.4190   -0.2220 n2        1 1DY     -0.318000
     26 C19        -6.8690    1.3580   -0.2500 c1        1 1DY      0.076000
     27 C20        -7.5700    1.9470   -1.3070 c1        1 1DY     -0.121250
     28 C21        -8.9560    1.9920   -1.2790 c1        1 1DY     -0.121250
     29 C22        -9.6540    1.4460   -0.1910 c1        1 1DY     -0.121250
     30 C23        -8.9530    0.8580    0.8640 c1        1 1DY     -0.121250
     31 C24        -7.5680    0.8120    0.8370 c1        1 1DY     -0.011000
     32 O4         -6.8760    0.1800    1.8610 os        1 1DY     -0.238000
     33 C25        -7.2810   -1.1650    2.0820 c3        1 1DY     -0.073000
     34 H1          5.7850   -2.3210   -1.6330 hn        1 1DY      0.253000
     35 H2         10.2700   -1.7150   -0.4000 ha        1 1DY      0.160000
     36 H3         11.3530   -0.6800    1.4480 ha        1 1DY      0.141000
     37 H4         10.1270    0.3190    3.2200 ha        1 1DY      0.151625
     38 H5          7.7480    0.2700    3.1280 ha        1 1DY      0.151625
     39 H6          3.6150   -2.1920   -0.4400 ha        1 1DY      0.124000
     40 H7          3.5580   -1.5120    1.0520 ha        1 1DY      0.124000
     41 H8          3.6790    0.6690   -0.0090 hc        1 1DY      0.125500
     42 H9          3.6480   -0.0390   -1.4770 hc        1 1DY      0.125500
     43 H10         1.4830    1.4940   -1.5720 hn        1 1DY      0.234000
     44 H11        -0.5110   -0.7930   -2.4250 ha        1 1DY      0.151625
     45 H12        -2.8710   -0.9520   -2.4190 ha        1 1DY      0.151625
     46 H13        -0.6420    2.3570    0.1660 ha        1 1DY      0.135000
     47 H14        -2.9970    2.2130    0.1860 ha        1 1DY      0.141000
     48 H15        -5.0060    1.9410    0.3850 hn        1 1DY      0.246000
     49 H16        -7.0760    2.3330   -2.0770 ha        1 1DY      0.151625
     50 H17        -9.4630    2.4180   -2.0420 ha        1 1DY      0.151625
     51 H18       -10.6040    1.4760   -0.1720 ha        1 1DY      0.151625
     52 H19        -9.4410    0.4760    1.6250 ha        1 1DY      0.151625
     53 H20        -8.2190   -1.1770    2.4560 h1        1 1DY      0.080000
     54 H21        -6.6630   -1.5940    2.7280 h1        1 1DY      0.080000
     55 H22        -7.2600   -1.6540    1.2370 h1        1 1DY      0.080000
@<TRIPOS>BOND
     1    1    2 1   
     2    1   11 1   
     3    1   34 1   
     4    2    3 1   
     5    2    4 1   
     6    4    5 1   
     7    4    9 1   
     8    5    6 1   
     9    5   35 1   
    10    6   36 1   
    11    7    8 1   
    12    7   37 1   
    13    8   38 1   
    14   10   11 1   
    15   12   13 1   
    16   12   39 1   
    17   12   40 1   
    18   13   14 1   
    19   13   41 1   
    20   13   42 1   
    21   14   15 1   
    22   16   17 1   
    23   16   43 1   
    24   17   20 1   
    25   18   19 1   
    26   18   44 1   
    27   19   45 1   
    28   20   46 1   
    29   21   22 1   
    30   21   47 1   
    31   23   24 1   
    32   25   26 1   
    33   25   48 1   
    34   26   31 1   
    35   27   28 1   
    36   27   49 1   
    37   28   50 1   
    38   29   30 1   
    39   29   51 1   
    40   30   52 1   
    41   31   32 1   
    42   32   33 1   
    43   33   53 1   
    44   33   54 1   
    45   33   55 1   
@<TRIPOS>SUBSTRUCTURE
     1 1DY         1 TEMP              0 ****  ****    0 ROOT
