@<TRIPOS>MOLECULE
1DY
   55    58     1     0     0
SMALL
bcc


@<TRIPOS>ATOM
      1 N1         -6.5190    1.4310   -0.7740 n         1 1DY     -0.498400
      2 C1         -7.8760    1.0640   -0.7770 c         1 1DY      0.709100
      3 O1         -8.7150    1.8750   -1.2060 o         1 1DY     -0.618500
      4 C2         -8.1800   -0.2820   -0.2600 ca        1 1DY     -0.188600
      5 C3         -9.5030   -0.7420   -0.2210 ca        1 1DY     -0.058000
      6 C4         -9.7770   -2.0110    0.2690 ca        1 1DY     -0.152000
      7 C5         -8.7330   -2.8280    0.7220 ca        1 1DY     -0.093000
      8 C6         -7.4170   -2.3920    0.6920 ca        1 1DY     -0.125000
      9 C7         -7.1120   -1.1000    0.1970 ca        1 1DY      0.184400
     10 N2         -5.7840   -0.6570    0.1660 nc        1 1DY     -0.637100
     11 C8         -5.5340    0.5530   -0.3020 cd        1 1DY      0.494900
     12 C9         -4.1140    1.0890   -0.3600 c3        1 1DY     -0.113700
     13 C10        -3.0810    0.1130    0.1580 c3        1 1DY     -0.144400
     14 C11        -1.6920    0.7310    0.0590 c         1 1DY      0.663100
     15 O2         -1.5210    1.8740   -0.4010 o         1 1DY     -0.589100
     16 N3         -0.6520   -0.0710    0.5130 n         1 1DY     -0.471100
     17 C12         0.7160    0.2350    0.5450 ca        1 1DY      0.093600
     18 C13         1.2400    1.4890    0.1640 ca        1 1DY     -0.181500
     19 C14         2.6100    1.7210    0.2260 ca        1 1DY     -0.062000
     20 C15         1.6150   -0.7670    0.9910 ca        1 1DY     -0.181500
     21 C16         2.9800   -0.5210    1.0400 ca        1 1DY     -0.062000
     22 C17         3.4900    0.7210    0.6510 ca        1 1DY     -0.176600
     23 C18         4.9460    1.0400    0.7090 c         1 1DY      0.683700
     24 O3          5.3430    2.1620    1.0790 o         1 1DY     -0.592100
     25 N4          5.8050    0.0200    0.3230 n         1 1DY     -0.459100
     26 C19         7.2050    0.0770    0.2410 ca        1 1DY      0.053600
     27 C20         7.9680    1.1060    0.8250 ca        1 1DY     -0.134000
     28 C21         9.3590    1.1060    0.7320 ca        1 1DY     -0.132000
     29 C22        10.0290    0.0850    0.0670 ca        1 1DY     -0.127000
     30 C23         9.3050   -0.9550   -0.5160 ca        1 1DY     -0.173000
     31 C24         7.9130   -0.9660   -0.4370 ca        1 1DY      0.069100
     32 O4          7.1350   -1.9880   -0.9650 os        1 1DY     -0.350900
     33 C25         7.7710   -2.8220   -1.9260 c3        1 1DY      0.120700
     34 H1         -6.2610    2.3310   -1.1120 hn        1 1DY      0.339500
     35 H2        -10.3080   -0.0820   -0.5830 ha        1 1DY      0.160000
     36 H3        -10.8130   -2.3780    0.3020 ha        1 1DY      0.141000
     37 H4         -8.9620   -3.8330    1.1090 ha        1 1DY      0.138000
     38 H5         -6.6070   -3.0430    1.0520 ha        1 1DY      0.150000
     39 H6         -3.8710    1.3530   -1.4260 hc        1 1DY      0.084700
     40 H7         -4.0610    2.0380    0.2410 hc        1 1DY      0.084700
     41 H8         -3.2960   -0.1480    1.2280 hc        1 1DY      0.086200
     42 H9         -3.1090   -0.8370   -0.4410 hc        1 1DY      0.086200
     43 H10        -0.8970   -0.9760    0.8520 hn        1 1DY      0.320500
     44 H11         0.5750    2.2980   -0.1810 ha        1 1DY      0.156500
     45 H12         3.0110    2.7100   -0.0550 ha        1 1DY      0.150000
     46 H13         1.2410   -1.7530    1.3080 ha        1 1DY      0.156500
     47 H14         3.6510   -1.3140    1.4060 ha        1 1DY      0.150000
     48 H15         5.3910   -0.8040   -0.0600 hn        1 1DY      0.332500
     49 H16         7.4680    1.9330    1.3580 ha        1 1DY      0.176000
     50 H17         9.9260    1.9280    1.1940 ha        1 1DY      0.137000
     51 H18        11.1260    0.0910   -0.0010 ha        1 1DY      0.133000
     52 H19         9.8400   -1.7620   -1.0360 ha        1 1DY      0.137000
     53 H20         6.9290   -3.4310   -2.3410 h1        1 1DY      0.044033
     54 H21         8.2540   -2.2150   -2.7290 h1        1 1DY      0.044033
     55 H22         8.5220   -3.4830   -1.4270 h1        1 1DY      0.044033
@<TRIPOS>BOND
     1    1    2 1   
     2    1   11 1   
     3    1   34 1   
     4    2    3 2   
     5    2    4 1   
     6    4    5 ar  
     7    4    9 ar  
     8    5    6 ar  
     9    5   35 1   
    10    6    7 ar  
    11    6   36 1   
    12    7    8 ar  
    13    7   37 1   
    14    8    9 ar  
    15    8   38 1   
    16    9   10 1   
    17   10   11 2   
    18   11   12 1   
    19   12   13 1   
    20   12   39 1   
    21   12   40 1   
    22   13   14 1   
    23   13   41 1   
    24   13   42 1   
    25   14   15 2   
    26   14   16 1   
    27   16   17 1   
    28   16   43 1   
    29   17   18 ar  
    30   17   20 ar  
    31   18   19 ar  
    32   18   44 1   
    33   19   22 ar  
    34   19   45 1   
    35   20   21 ar  
    36   20   46 1   
    37   21   22 ar  
    38   21   47 1   
    39   22   23 1   
    40   23   24 2   
    41   23   25 1   
    42   25   26 1   
    43   25   48 1   
    44   26   27 ar  
    45   26   31 ar  
    46   27   28 ar  
    47   27   49 1   
    48   28   29 ar  
    49   28   50 1   
    50   29   30 ar  
    51   29   51 1   
    52   30   31 ar  
    53   30   52 1   
    54   31   32 1   
    55   32   33 1   
    56   33   53 1   
    57   33   54 1   
    58   33   55 1   
@<TRIPOS>SUBSTRUCTURE
     1 1DY         1 TEMP              0 ****  ****    0 ROOT
