@<TRIPOS>MOLECULE
1DY
   57    60     1     0     0
SMALL
bcc


@<TRIPOS>ATOM
      1 N1         -0.3270    0.2820    0.1240 n         1 1DY     -0.498400
      2 C1          1.0020    0.6760    0.4060 c         1 1DY      0.711100
      3 O1          1.7110    1.0510   -0.5380 o         1 1DY     -0.573500
      4 C2          1.4100    0.5980    1.8200 ca        1 1DY     -0.173600
      5 C3          2.7090    0.9580    2.1950 ca        1 1DY     -0.051000
      6 C4          3.0880    0.8780    3.5300 ca        1 1DY     -0.126000
      7 C5          2.1730    0.4380    4.4930 ca        1 1DY     -0.085000
      8 C6          0.8780    0.0770    4.1400 ca        1 1DY     -0.122000
      9 C7          0.4710    0.1510    2.7880 ca        1 1DY      0.161400
     10 N2         -0.8340   -0.2150    2.4240 nc        1 1DY     -0.655100
     11 C8         -1.1710   -0.1430    1.1500 cd        1 1DY      0.474900
     12 C9         -2.5760   -0.5390    0.7160 c3        1 1DY     -0.119700
     13 C10        -3.4130   -1.0130    1.8920 c3        1 1DY     -0.136400
     14 C11        -4.7890   -1.3800    1.4350 c         1 1DY      0.563100
     15 O2         -5.2970   -1.3790    0.3310 o         1 1DY     -0.389100
     16 N3         -5.7280   -1.8710    2.5660 n4        1 1DY     -0.578200
     17 C12        -6.7180   -0.8600    2.9400 ca        1 1DY      0.002600
     18 C13        -7.6990   -0.4710    2.0090 ca        1 1DY     -0.095000
     19 C14        -8.6340    0.5010    2.3610 ca        1 1DY     -0.057000
     20 C15        -6.6870   -0.2840    4.2240 ca        1 1DY     -0.095000
     21 C16        -7.6330    0.6820    4.5670 ca        1 1DY     -0.057000
     22 C17        -8.6020    1.0770    3.6390 ca        1 1DY     -0.135600
     23 C18        -9.5500    2.1770    3.9220 c         1 1DY      0.549700
     24 O3         -9.7630    3.1410    3.2060 o         1 1DY     -0.358100
     25 N4        -10.3210    2.1030    5.2210 n4        1 1DY     -0.513200
     26 C19       -11.6580    1.5370    5.0340 ca        1 1DY     -0.132400
     27 C20       -11.8450    0.1380    5.0490 ca        1 1DY     -0.083000
     28 C21       -13.1160   -0.3890    4.8980 ca        1 1DY     -0.135000
     29 C22       -14.2220    0.4600    4.7340 ca        1 1DY     -0.020000
     30 C23       -14.0600    1.8380    4.7270 ca        1 1DY     -0.180000
     31 C24       -12.7790    2.3950    4.8810 ca        1 1DY      0.197100
     32 O4        -12.5120    3.7380    4.9100 os        1 1DY     -0.355900
     33 C25       -13.6270    4.6330    4.7850 c3        1 1DY      0.115700
     34 H1         -0.6450    0.3010   -0.8190 hn        1 1DY      0.341500
     35 H2          3.4180    1.3000    1.4210 ha        1 1DY      0.174000
     36 H3          4.1100    1.1580    3.8310 ha        1 1DY      0.160000
     37 H4          2.4840    0.3760    5.5480 ha        1 1DY      0.151000
     38 H5          0.1740   -0.2680    4.9110 ha        1 1DY      0.142000
     39 H6         -2.5020   -1.3580   -0.0510 hc        1 1DY      0.090700
     40 H7         -3.0680    0.3470    0.2310 hc        1 1DY      0.090700
     41 H8         -3.4820   -0.2020    2.6710 hc        1 1DY      0.127200
     42 H9         -2.9250   -1.9110    2.3700 hc        1 1DY      0.127200
     43 H10        -5.1640   -2.1250    3.3860 hn        1 1DY      0.470800
     44 H11        -7.7310   -0.9070    0.9910 ha        1 1DY      0.189500
     45 H12        -9.3890    0.8250    1.6200 ha        1 1DY      0.183500
     46 H13        -5.9250   -0.5730    4.9700 ha        1 1DY      0.189500
     47 H14        -7.5730    1.1420    5.5690 ha        1 1DY      0.183500
     48 H15        -9.8120    1.5350    5.9050 hn        1 1DY      0.473300
     49 H16       -10.9890   -0.5400    5.1920 ha        1 1DY      0.141000
     50 H17       -13.2650   -1.4810    4.9160 ha        1 1DY      0.175000
     51 H18       -15.2310    0.0250    4.6160 ha        1 1DY      0.182000
     52 H19       -14.9350    2.4980    4.6050 ha        1 1DY      0.183000
     53 H20       -13.1390    5.6410    4.8460 h1        1 1DY      0.076700
     54 H21       -14.3410    4.4800    5.6300 h1        1 1DY      0.076700
     55 H22       -14.1240    4.4900    3.7960 h1        1 1DY      0.076700
     56 H32        -6.2300   -2.7080    2.2360 hn        1 1DY      0.470800
     57 H42       -10.4380    3.0660    5.5870 hn        1 1DY      0.473300
@<TRIPOS>BOND
     1    1    2 1   
     2    1   11 1   
     3    1   34 1   
     4    2    3 2   
     5    2    4 1   
     6    4    5 ar  
     7    4    9 ar  
     8    5    6 ar  
     9    5   35 1   
    10    6    7 ar  
    11    6   36 1   
    12    7    8 ar  
    13    7   37 1   
    14    8    9 ar  
    15    8   38 1   
    16    9   10 1   
    17   10   11 2   
    18   11   12 1   
    19   12   13 1   
    20   12   39 1   
    21   12   40 1   
    22   13   14 1   
    23   13   41 1   
    24   13   42 1   
    25   14   15 2   
    26   14   16 1   
    27   16   17 1   
    28   16   43 1   
    29   16   56 1   
    30   17   18 ar  
    31   17   20 ar  
    32   18   19 ar  
    33   18   44 1   
    34   19   22 ar  
    35   19   45 1   
    36   20   21 ar  
    37   20   46 1   
    38   21   22 ar  
    39   21   47 1   
    40   22   23 1   
    41   23   24 2   
    42   23   25 1   
    43   25   26 1   
    44   25   48 1   
    45   25   57 1   
    46   26   27 ar  
    47   26   31 ar  
    48   27   28 ar  
    49   27   49 1   
    50   28   29 ar  
    51   28   50 1   
    52   29   30 ar  
    53   29   51 1   
    54   30   31 ar  
    55   30   52 1   
    56   31   32 1   
    57   32   33 1   
    58   33   53 1   
    59   33   54 1   
    60   33   55 1   
@<TRIPOS>SUBSTRUCTURE
     1 1DY         1 TEMP              0 ****  ****    0 ROOT
