@<TRIPOS>MOLECULE
1DZ
   34    36     1     0     0
SMALL
bcc


@<TRIPOS>ATOM
      1 C01        -0.0580   -0.0570   -0.0710 cc        1 1DZ     -0.108300
      2 N02         1.3540   -0.2610   -0.0920 na        1 1DZ      0.116300
      3 N03         1.8560   -0.3050    1.1740 nc        1 1DZ     -0.485800
      4 C04         0.8210   -0.1790    2.0280 cd        1 1DZ      0.295800
      5 C05        -0.4190   -0.0110    1.2790 cd        1 1DZ     -0.231300
      6 C06        -0.9520   -0.0290   -1.2090 ca        1 1DZ      0.014000
      7 C07         2.2020   -0.1230   -1.2180 ca        1 1DZ      0.061800
      8 C08        -0.7750   -0.8760   -2.3140 ca        1 1DZ     -0.123000
      9 C09        -1.6900   -0.8610   -3.3650 ca        1 1DZ     -0.136500
     10 C10        -2.7910   -0.0050   -3.3280 ca        1 1DZ     -0.148000
     11 C11        -2.9750    0.8370   -2.2320 ca        1 1DZ     -0.136500
     12 C12        -2.0650    0.8280   -1.1770 ca        1 1DZ     -0.123000
     13 C13         1.8560    0.7110   -2.3040 ca        1 1DZ     -0.164000
     14 C14         2.7030    0.8100   -3.4020 ca        1 1DZ     -0.120000
     15 C15         3.9060    0.1100   -3.4430 ca        1 1DZ     -0.162000
     16 C16         4.2730   -0.7040   -2.3660 ca        1 1DZ     -0.075300
     17 C17         3.4280   -0.8240   -1.2610 ca        1 1DZ     -0.130000
     18 C18         5.5630   -1.4340   -2.3830 c3        1 1DZ     -0.048800
     19 C19         0.8700   -0.2040    3.5550 c         1 1DZ      0.834100
     20 O20         0.0020    0.5000    4.1400 o         1 1DZ     -0.808300
     21 O21         1.7300   -0.9270    4.1170 o         1 1DZ     -0.808300
     22 H051       -1.4010    0.1100    1.7220 ha        1 1DZ      0.172000
     23 H081        0.0910   -1.5540   -2.3460 ha        1 1DZ      0.144500
     24 H091       -1.5430   -1.5300   -4.2240 ha        1 1DZ      0.121500
     25 H101       -3.5110    0.0030   -4.1570 ha        1 1DZ      0.118000
     26 H111       -3.8430    1.5110   -2.1960 ha        1 1DZ      0.121500
     27 H121       -2.2120    1.4860   -0.3070 ha        1 1DZ      0.144500
     28 H131        0.9160    1.2830   -2.2850 ha        1 1DZ      0.146000
     29 H141        2.4190    1.4590   -4.2440 ha        1 1DZ      0.121000
     30 H151        4.5680    0.2000   -4.3150 ha        1 1DZ      0.119000
     31 H171        3.7320   -1.4600   -0.4140 ha        1 1DZ      0.163000
     32 H181        6.3230   -0.8750   -1.7810 hc        1 1DZ      0.038700
     33 H183        5.4470   -2.4530   -1.9370 hc        1 1DZ      0.038700
     34 H182        5.9510   -1.5440   -3.4250 hc        1 1DZ      0.038700
@<TRIPOS>BOND
     1    1    2 1   
     2    1    5 2   
     3    1    6 1   
     4    2    3 1   
     5    2    7 1   
     6    3    4 2   
     7    4    5 1   
     8    4   19 1   
     9    5   22 1   
    10    6    8 ar  
    11    6   12 ar  
    12    7   13 ar  
    13    7   17 ar  
    14    8    9 ar  
    15    8   23 1   
    16    9   10 ar  
    17    9   24 1   
    18   10   11 ar  
    19   10   25 1   
    20   11   12 ar  
    21   11   26 1   
    22   12   27 1   
    23   13   14 ar  
    24   13   28 1   
    25   14   15 ar  
    26   14   29 1   
    27   15   16 ar  
    28   15   30 1   
    29   16   17 ar  
    30   16   18 1   
    31   17   31 1   
    32   18   32 1   
    33   18   33 1   
    34   18   34 1   
    35   19   20 1   
    36   19   21 1   
@<TRIPOS>SUBSTRUCTURE
     1 1DZ         1 TEMP              0 ****  ****    0 ROOT
