@<TRIPOS>MOLECULE
1DZ
   34    36     1     0     0
SMALL
bcc


@<TRIPOS>ATOM
      1 C01         0.5980    0.9380    0.0880 cc        1 1DZ     -0.108300
      2 N02         0.3940   -0.4740    0.1160 na        1 1DZ      0.116300
      3 N03         1.5860   -1.1350    0.1200 nc        1 1DZ     -0.485800
      4 C04         2.5660   -0.2090    0.1360 cd        1 1DZ      0.295800
      5 C05         1.9820    1.1280    0.1090 cd        1 1DZ     -0.231300
      6 C06        -0.4190    1.9670    0.1500 ca        1 1DZ      0.014000
      7 C07        -0.8230   -1.1490   -0.1430 ca        1 1DZ      0.061800
      8 C08        -1.5630    1.8330    0.9510 ca        1 1DZ     -0.123000
      9 C09        -2.4910    2.8690    1.0310 ca        1 1DZ     -0.136500
     10 C10        -2.2900    4.0500    0.3170 ca        1 1DZ     -0.148000
     11 C11        -1.1530    4.1930   -0.4780 ca        1 1DZ     -0.136500
     12 C12        -0.2220    3.1610   -0.5630 ca        1 1DZ     -0.123000
     13 C13        -1.8300   -0.5700   -0.9460 ca        1 1DZ     -0.164000
     14 C14        -3.0220   -1.2520   -1.1660 ca        1 1DZ     -0.120000
     15 C15        -3.2350   -2.5150   -0.6190 ca        1 1DZ     -0.162000
     16 C16        -2.2390   -3.1110    0.1620 ca        1 1DZ     -0.075300
     17 C17        -1.0410   -2.4340    0.4020 ca        1 1DZ     -0.130000
     18 C18        -2.4380   -4.4660    0.7280 c3        1 1DZ     -0.048800
     19 C19         4.0740   -0.4550    0.1800 c         1 1DZ      0.834100
     20 O20         4.7840    0.4090   -0.4030 o         1 1DZ     -0.808300
     21 O21         4.5010   -1.4590    0.8010 o         1 1DZ     -0.808300
     22 H051        2.5490    2.0520    0.1160 ha        1 1DZ      0.172000
     23 H081       -1.7250    0.9030    1.5170 ha        1 1DZ      0.144500
     24 H091       -3.3830    2.7540    1.6630 ha        1 1DZ      0.121500
     25 H101       -3.0230    4.8660    0.3830 ha        1 1DZ      0.118000
     26 H111       -0.9890    5.1240   -1.0400 ha        1 1DZ      0.121500
     27 H121        0.6810    3.2740   -1.1840 ha        1 1DZ      0.144500
     28 H131       -1.6770    0.4220   -1.3980 ha        1 1DZ      0.146000
     29 H141       -3.8010   -0.7880   -1.7890 ha        1 1DZ      0.121000
     30 H151       -4.1790   -3.0450   -0.8040 ha        1 1DZ      0.119000
     31 H171       -0.2590   -2.9180    1.0110 ha        1 1DZ      0.163000
     32 H181       -1.9110   -5.2230    0.0950 hc        1 1DZ      0.038700
     33 H183       -2.0220   -4.5280    1.7640 hc        1 1DZ      0.038700
     34 H182       -3.5230   -4.7320    0.7650 hc        1 1DZ      0.038700
@<TRIPOS>BOND
     1    1    2 1   
     2    1    5 2   
     3    1    6 1   
     4    2    3 1   
     5    2    7 1   
     6    3    4 2   
     7    4    5 1   
     8    4   19 1   
     9    5   22 1   
    10    6    8 ar  
    11    6   12 ar  
    12    7   13 ar  
    13    7   17 ar  
    14    8    9 ar  
    15    8   23 1   
    16    9   10 ar  
    17    9   24 1   
    18   10   11 ar  
    19   10   25 1   
    20   11   12 ar  
    21   11   26 1   
    22   12   27 1   
    23   13   14 ar  
    24   13   28 1   
    25   14   15 ar  
    26   14   29 1   
    27   15   16 ar  
    28   15   30 1   
    29   16   17 ar  
    30   16   18 1   
    31   17   31 1   
    32   18   32 1   
    33   18   33 1   
    34   18   34 1   
    35   19   20 1   
    36   19   21 1   
@<TRIPOS>SUBSTRUCTURE
     1 1DZ         1 TEMP              0 ****  ****    0 ROOT
