@<TRIPOS>MOLECULE
1DZ
   34    36     1     0     0
SMALL
bcc


@<TRIPOS>ATOM
      1 C01        -0.0560   -0.0400   -0.0710 cc        1 1DZ     -0.108300
      2 N02         1.3540   -0.2610   -0.0920 na        1 1DZ      0.116300
      3 N03         1.8550   -0.3070    1.1750 nc        1 1DZ     -0.485800
      4 C04         0.8220   -0.1660    2.0280 cd        1 1DZ      0.295800
      5 C05        -0.4160    0.0140    1.2780 cd        1 1DZ     -0.231300
      6 C06        -0.9500   -0.0040   -1.2100 ca        1 1DZ      0.014000
      7 C07         2.2030   -0.1370   -1.2180 ca        1 1DZ      0.061800
      8 C08        -0.7840   -0.8570   -2.3120 ca        1 1DZ     -0.123000
      9 C09        -1.6990   -0.8340   -3.3620 ca        1 1DZ     -0.136500
     10 C10        -2.7890    0.0350   -3.3270 ca        1 1DZ     -0.148000
     11 C11        -2.9630    0.8830   -2.2340 ca        1 1DZ     -0.136500
     12 C12        -2.0530    0.8660   -1.1800 ca        1 1DZ     -0.123000
     13 C13         1.8670    0.6980   -2.3070 ca        1 1DZ     -0.164000
     14 C14         2.7150    0.7840   -3.4060 ca        1 1DZ     -0.120000
     15 C15         3.9090    0.0690   -3.4450 ca        1 1DZ     -0.162000
     16 C16         4.2660   -0.7460   -2.3660 ca        1 1DZ     -0.075300
     17 C17         3.4210   -0.8520   -1.2590 ca        1 1DZ     -0.130000
     18 C18         5.5470   -1.4920   -2.3800 c3        1 1DZ     -0.048800
     19 C19         0.8710   -0.1870    3.5550 c         1 1DZ      0.834100
     20 O20         0.0120    0.5300    4.1380 o         1 1DZ     -0.808300
     21 O21         1.7220   -0.9190    4.1200 o         1 1DZ     -0.808300
     22 H051       -1.3970    0.1480    1.7220 ha        1 1DZ      0.172000
     23 H081        0.0740   -1.5450   -2.3420 ha        1 1DZ      0.144500
     24 H091       -1.5600   -1.5080   -4.2200 ha        1 1DZ      0.121500
     25 H101       -3.5090    0.0500   -4.1570 ha        1 1DZ      0.118000
     26 H111       -3.8230    1.5670   -2.2000 ha        1 1DZ      0.121500
     27 H121       -2.1910    1.5290   -0.3120 ha        1 1DZ      0.144500
     28 H131        0.9330    1.2810   -2.2900 ha        1 1DZ      0.146000
     29 H141        2.4380    1.4330   -4.2490 ha        1 1DZ      0.121000
     30 H151        4.5720    0.1480   -4.3170 ha        1 1DZ      0.119000
     31 H171        3.7170   -1.4900   -0.4100 ha        1 1DZ      0.163000
     32 H181        6.3120   -0.9450   -1.7720 hc        1 1DZ      0.038700
     33 H183        5.4170   -2.5110   -1.9390 hc        1 1DZ      0.038700
     34 H182        5.9380   -1.6030   -3.4210 hc        1 1DZ      0.038700
@<TRIPOS>BOND
     1    1    2 1   
     2    1    5 2   
     3    1    6 1   
     4    2    3 1   
     5    2    7 1   
     6    3    4 2   
     7    4    5 1   
     8    4   19 1   
     9    5   22 1   
    10    6    8 ar  
    11    6   12 ar  
    12    7   13 ar  
    13    7   17 ar  
    14    8    9 ar  
    15    8   23 1   
    16    9   10 ar  
    17    9   24 1   
    18   10   11 ar  
    19   10   25 1   
    20   11   12 ar  
    21   11   26 1   
    22   12   27 1   
    23   13   14 ar  
    24   13   28 1   
    25   14   15 ar  
    26   14   29 1   
    27   15   16 ar  
    28   15   30 1   
    29   16   17 ar  
    30   16   18 1   
    31   17   31 1   
    32   18   32 1   
    33   18   33 1   
    34   18   34 1   
    35   19   20 1   
    36   19   21 1   
@<TRIPOS>SUBSTRUCTURE
     1 1DZ         1 TEMP              0 ****  ****    0 ROOT
