@<TRIPOS>MOLECULE
1DZ
   34    25     1     0     0
SMALL
bcc


@<TRIPOS>ATOM
      1 C01        -1.0040    0.1990    1.2140 c1        1 1DZ     -0.103000
      2 N02         0.3450    0.1920    1.2060 n2        1 1DZ     -0.088000
      3 N03         0.7780    0.1390    2.5070 n2        1 1DZ     -0.088000
      4 C04        -0.3080    0.1140    3.3080 c1        1 1DZ     -0.103000
      5 C05        -1.4180    0.1510    2.5140 c1        1 1DZ     -0.166000
      6 C06        -1.9010    0.2950   -0.0020 c1        1 1DZ      0.017667
      7 C07         1.1720    0.2220    0.0530 c1        1 1DZ      0.017667
      8 C08        -2.1540   -0.7730   -0.8480 c1        1 1DZ     -0.139333
      9 C09        -3.0570   -0.6330   -1.8900 c1        1 1DZ     -0.137500
     10 C10        -3.7060    0.5760   -2.0870 c1        1 1DZ     -0.137500
     11 C11        -3.4530    1.6440   -1.2410 c1        1 1DZ     -0.137500
     12 C12        -2.5500    1.5040   -0.1980 c1        1 1DZ     -0.137500
     13 C13         1.3350    1.2860   -0.8190 c1        1 1DZ     -0.139333
     14 C14         2.2830    1.2170   -1.8280 c1        1 1DZ     -0.137500
     15 C15         3.0680    0.0830   -1.9640 c1        1 1DZ     -0.137500
     16 C16         2.9050   -0.9820   -1.0920 c1        1 1DZ      0.017667
     17 C17         1.9570   -0.9130   -0.0840 c1        1 1DZ     -0.139333
     18 C18         3.7850   -2.2060   -1.2200 c2        1 1DZ     -0.174000
     19 C19        -0.2970    0.1000    4.8210 c1        1 1DZ      0.393000
     20 O20        -0.5270   -0.9700    5.4420 o         1 1DZ     -0.543000
     21 O21        -0.0390    1.1550    5.4580 o         1 1DZ     -0.543000
     22 H051       -2.3440    0.1700    2.8230 DU        1 1DZ      0.172000
     23 H081       -1.6970   -1.6240   -0.7100 ha        1 1DZ      0.150667
     24 H091       -3.2240   -1.3800   -2.4950 ha        1 1DZ      0.124500
     25 H101       -4.3420    0.6750   -2.8210 ha        1 1DZ      0.124500
     26 H111       -3.8950    2.5020   -1.3910 ha        1 1DZ      0.124500
     27 H121       -2.3850    2.2510    0.4090 ha        1 1DZ      0.124500
     28 H131        0.7830    2.0850   -0.7220 ha        1 1DZ      0.150667
     29 H141        2.3980    1.9670   -2.4420 ha        1 1DZ      0.124500
     30 H151        3.7240    0.0280   -2.6850 ha        1 1DZ      0.124500
     31 H171        1.8420   -1.6620    0.5310 ha        1 1DZ      0.150667
     32 H181        4.6490   -2.0330   -0.7910 ha        1 1DZ      0.078000
     33 H183        3.3500   -2.9680   -0.7840 ha        1 1DZ      0.078000
     34 H182        3.9260   -2.4090   -2.1690 ha        1 1DZ      0.078000
@<TRIPOS>BOND
     1    1    2 1   
     2    1    5 1   
     3    2    3 1   
     4    3    4 1   
     5    4    5 1   
     6    6    8 1   
     7    7   13 1   
     8    8   23 1   
     9    9   10 1   
    10    9   24 1   
    11   10   25 1   
    12   11   12 1   
    13   11   26 1   
    14   12   27 1   
    15   13   28 1   
    16   14   15 1   
    17   14   29 1   
    18   15   30 1   
    19   16   17 1   
    20   17   31 1   
    21   18   32 1   
    22   18   33 1   
    23   18   34 1   
    24   19   20 1   
    25   19   21 1   
@<TRIPOS>SUBSTRUCTURE
     1 1DZ         1 TEMP              0 ****  ****    0 ROOT
