@<TRIPOS>MOLECULE
1E0
   47    49     1     0     0
SMALL
bcc


@<TRIPOS>ATOM
      1 N1          0.1010    0.2460   -0.1510 na        1 1E0      0.296300
      2 N2          1.3640    0.5940   -0.0980 nc        1 1E0     -0.419800
      3 C1          1.7810    0.4330    1.2150 cd        1 1E0      0.137800
      4 C2          0.6590   -0.0500    2.0140 cd        1 1E0     -0.072700
      5 C3         -0.4100   -0.1600    1.0940 cc        1 1E0     -0.114300
      6 N3          0.7040   -0.3240    3.3800 n         1 1E0     -0.396100
      7 C4         -0.4130   -0.7750    4.0420 c         1 1E0      0.646100
      8 N4         -0.2850   -1.0690    5.5350 n4        1 1E0     -0.741400
      9 O1         -1.5400   -0.9810    3.5860 o         1 1E0     -0.448100
     10 C5          3.1080    0.6950    1.7010 c         1 1E0      0.513600
     11 N5          4.1140    1.1710    0.6850 n4        1 1E0     -0.738400
     12 O2          3.5180    0.5720    2.8520 o         1 1E0     -0.468100
     13 C6         -0.6940    0.2640   -1.3600 ca        1 1E0     -0.110200
     14 C7         -1.6440    1.2670   -1.5160 ca        1 1E0     -0.053000
     15 C8         -2.4340    1.3020   -2.6790 ca        1 1E0     -0.157000
     16 C9         -2.2630    0.3570   -3.6660 ca        1 1E0     -0.028000
     17 C10        -0.4820   -0.7400   -2.3640 ca        1 1E0      0.043000
     18 C11        -1.2970   -0.6690   -3.5300 ca        1 1E0     -0.081000
     19 C12        -1.1240   -1.6440   -4.5540 ca        1 1E0     -0.051000
     20 C13        -0.1950   -2.6450   -4.4360 ca        1 1E0     -0.179000
     21 C14         0.6120   -2.7140   -3.2660 ca        1 1E0      0.192100
     22 C15         0.4680   -1.7790   -2.2460 ca        1 1E0     -0.227000
     23 O3          1.5700   -3.6680   -3.0480 os        1 1E0     -0.333900
     24 C16         1.7170   -4.6810   -4.0640 c3        1 1E0      0.123400
     25 C17         2.8020   -5.6140   -3.5580 c3        1 1E0     -0.083400
     26 C18         3.0420   -6.7210   -4.5520 c3        1 1E0     -0.099100
     27 H1         -1.4480   -0.4900    1.2260 h4        1 1E0      0.245000
     28 H2          1.5840   -0.1830    3.8410 hn        1 1E0      0.376500
     29 H4         -1.2140   -1.3900    5.8590 hn        1 1E0      0.486467
     30 H3         -0.0240   -0.2280    6.0600 hn        1 1E0      0.486467
     31 H5          4.2140    0.4710   -0.0610 hn        1 1E0      0.485133
     32 H6          5.0270    1.3230    1.1350 hn        1 1E0      0.485133
     33 H7         -1.7960    2.0450   -0.7500 ha        1 1E0      0.150000
     34 H8         -3.1870    2.1000   -2.7870 ha        1 1E0      0.170000
     35 H9         -2.8810    0.3880   -4.5810 ha        1 1E0      0.166000
     36 H10        -1.7600   -1.5770   -5.4530 ha        1 1E0      0.162000
     37 H11        -0.0750   -3.3890   -5.2390 ha        1 1E0      0.167000
     38 H12         1.1040   -1.8810   -1.3580 ha        1 1E0      0.132000
     39 H14         0.7430   -5.2210   -4.1920 h1        1 1E0      0.054200
     40 H13         2.0180   -4.1930   -5.0280 h1        1 1E0      0.054200
     41 H15         2.4920   -6.0410   -2.5680 hc        1 1E0      0.054200
     42 H16         3.7450   -5.0320   -3.3900 hc        1 1E0      0.054200
     43 H18         2.1130   -7.3200   -4.7120 hc        1 1E0      0.048700
     44 H17         3.8410   -7.4040   -4.1740 hc        1 1E0      0.048700
     45 H19         3.3690   -6.3070   -5.5370 hc        1 1E0      0.048700
     46 H43         0.4020   -1.8100    5.7120 hn        1 1E0      0.486467
     47 H53         3.7920    2.0520    0.2610 hn        1 1E0      0.485133
@<TRIPOS>BOND
     1    1    2 1   
     2    1    5 1   
     3    1   13 1   
     4    2    3 2   
     5    3    4 1   
     6    3   10 1   
     7    4    5 2   
     8    4    6 1   
     9    5   27 1   
    10    6    7 1   
    11    6   28 1   
    12    7    8 1   
    13    7    9 2   
    14    8   29 1   
    15    8   30 1   
    16    8   46 1   
    17   10   11 1   
    18   10   12 2   
    19   11   31 1   
    20   11   32 1   
    21   11   47 1   
    22   13   14 ar  
    23   13   17 ar  
    24   14   15 ar  
    25   14   33 1   
    26   15   16 ar  
    27   15   34 1   
    28   16   18 ar  
    29   16   35 1   
    30   17   18 ar  
    31   17   22 ar  
    32   18   19 ar  
    33   19   20 ar  
    34   19   36 1   
    35   20   21 ar  
    36   20   37 1   
    37   21   22 ar  
    38   21   23 1   
    39   22   38 1   
    40   23   24 1   
    41   24   25 1   
    42   24   39 1   
    43   24   40 1   
    44   25   26 1   
    45   25   41 1   
    46   25   42 1   
    47   26   43 1   
    48   26   44 1   
    49   26   45 1   
@<TRIPOS>SUBSTRUCTURE
     1 1E0         1 TEMP              0 ****  ****    0 ROOT
