@<TRIPOS>MOLECULE
1E0
   48    50     1     0     0
SMALL
bcc


@<TRIPOS>ATOM
      1 N1         -0.1320   -0.2320    0.0250 na        1 1E0      0.329300
      2 N2          1.1850   -0.0570    0.0570 nc        1 1E0     -0.369800
      3 C1          1.5900   -0.1260    1.3640 cd        1 1E0      0.216800
      4 C2          0.4230   -0.3740    2.2090 cd        1 1E0     -0.253700
      5 C3         -0.6720   -0.4310    1.2950 cc        1 1E0     -0.035300
      6 N3          0.4160   -0.5580    3.6260 n4        1 1E0     -0.438200
      7 C4          0.0030    0.6940    4.3870 c         1 1E0      0.454100
      8 N4         -0.3190    0.5670    5.8450 n4        1 1E0     -0.734400
      9 O1         -0.0660    1.7860    3.8570 o         1 1E0     -0.255100
     10 C5          2.9630   -0.0150    1.8280 c         1 1E0      0.507600
     11 N5          4.0320    0.2030    0.8120 n4        1 1E0     -0.726400
     12 O2          3.2920   -0.0940    3.0110 o         1 1E0     -0.466100
     13 C6         -0.9280   -0.2060   -1.1730 ca        1 1E0     -0.154200
     14 C7         -2.0320    0.6640   -1.1980 ca        1 1E0     -0.053000
     15 C8         -2.8130    0.7590   -2.3470 ca        1 1E0     -0.151000
     16 C9         -2.5040   -0.0010   -3.4700 ca        1 1E0      0.021000
     17 C10        -0.5930   -1.0310   -2.2970 ca        1 1E0      0.072000
     18 C11        -1.4150   -0.8910   -3.4610 ca        1 1E0     -0.097000
     19 C12        -1.1210   -1.6810   -4.6150 ca        1 1E0     -0.022000
     20 C13        -0.0890   -2.5790   -4.6230 ca        1 1E0     -0.185000
     21 C14         0.7080   -2.7360   -3.4520 ca        1 1E0      0.237100
     22 C15         0.4520   -1.9730   -2.3070 ca        1 1E0     -0.252000
     23 O3          1.7500   -3.6030   -3.3450 os        1 1E0     -0.327900
     24 C16         2.0190   -4.4580   -4.4840 c3        1 1E0      0.121400
     25 C17         3.1790   -5.3420   -4.0620 c3        1 1E0     -0.082400
     26 C18         3.5430   -6.2820   -5.1830 c3        1 1E0     -0.102100
     27 H1         -1.7460   -0.6090    1.4460 h4        1 1E0      0.248000
     28 H2         -0.2310   -1.3370    3.8500 hn        1 1E0      0.509300
     29 H4         -1.1370   -0.0440    6.0080 hn        1 1E0      0.518800
     30 H3         -0.5550    1.5190    6.2080 hn        1 1E0      0.518800
     31 H5          4.0460   -0.5790    0.1360 hn        1 1E0      0.505467
     32 H6          3.8580    1.0780    0.2910 hn        1 1E0      0.505467
     33 H7         -2.2820    1.2970   -0.3310 ha        1 1E0      0.141000
     34 H8         -3.6720    1.4520   -2.3650 ha        1 1E0      0.186000
     35 H9         -3.1230    0.0910   -4.3830 ha        1 1E0      0.185000
     36 H10        -1.7560   -1.5530   -5.5120 ha        1 1E0      0.178000
     37 H11         0.1230   -3.1800   -5.5230 ha        1 1E0      0.184000
     38 H12         1.0790   -2.1640   -1.4290 ha        1 1E0      0.125000
     39 H14         1.1040   -5.0640   -4.7090 h1        1 1E0      0.065200
     40 H13         2.2910   -3.8160   -5.3610 h1        1 1E0      0.065200
     41 H15         2.8910   -5.9230   -3.1470 hc        1 1E0      0.054200
     42 H16         4.0580   -4.7010   -3.7920 hc        1 1E0      0.054200
     43 H18         2.6810   -6.9410   -5.4470 hc        1 1E0      0.056033
     44 H17         4.3970   -6.9310   -4.8690 hc        1 1E0      0.056033
     45 H19         3.8490   -5.7150   -6.0950 hc        1 1E0      0.056033
     46 H32         1.3850   -0.8090    3.9230 hn        1 1E0      0.509300
     47 H43         0.4860    0.2110    6.3890 hn        1 1E0      0.518800
     48 H53         4.9570    0.2630    1.2740 hn        1 1E0      0.505467
@<TRIPOS>BOND
     1    1    2 1   
     2    1    5 1   
     3    1   13 1   
     4    2    3 2   
     5    3    4 1   
     6    3   10 1   
     7    4    5 2   
     8    4    6 1   
     9    5   27 1   
    10    6    7 1   
    11    6   28 1   
    12    6   46 1   
    13    7    8 1   
    14    7    9 2   
    15    8   29 1   
    16    8   30 1   
    17    8   47 1   
    18   10   11 1   
    19   10   12 2   
    20   11   31 1   
    21   11   32 1   
    22   11   48 1   
    23   13   14 ar  
    24   13   17 ar  
    25   14   15 ar  
    26   14   33 1   
    27   15   16 ar  
    28   15   34 1   
    29   16   18 ar  
    30   16   35 1   
    31   17   18 ar  
    32   17   22 ar  
    33   18   19 ar  
    34   19   20 ar  
    35   19   36 1   
    36   20   21 ar  
    37   20   37 1   
    38   21   22 ar  
    39   21   23 1   
    40   22   38 1   
    41   23   24 1   
    42   24   25 1   
    43   24   39 1   
    44   24   40 1   
    45   25   26 1   
    46   25   41 1   
    47   25   42 1   
    48   26   43 1   
    49   26   44 1   
    50   26   45 1   
@<TRIPOS>SUBSTRUCTURE
     1 1E0         1 TEMP              0 ****  ****    0 ROOT
