@<TRIPOS>MOLECULE
1E0
   47    49     1     0     0
SMALL
bcc


@<TRIPOS>ATOM
      1 N1          0.0960    0.2500   -0.1520 na        1 1E0      0.296300
      2 N2          1.3550    0.6130   -0.0950 nc        1 1E0     -0.419800
      3 C1          1.7730    0.4470    1.2170 cd        1 1E0      0.137800
      4 C2          0.6570   -0.0570    2.0110 cd        1 1E0     -0.073700
      5 C3         -0.4110   -0.1730    1.0890 cc        1 1E0     -0.113300
      6 N3          0.7030   -0.3410    3.3750 ns        1 1E0     -0.396100
      7 C4         -0.4080   -0.8140    4.0310 c         1 1E0      0.646100
      8 N4         -0.2780   -1.1180    5.5230 nz        1 1E0     -0.741400
      9 O1         -1.5310   -1.0310    3.5730 o         1 1E0     -0.448100
     10 C5          3.0960    0.7210    1.7070 c         1 1E0      0.513600
     11 N5          4.0970    1.2180    0.6950 nz        1 1E0     -0.738400
     12 O2          3.5070    0.5940    2.8570 o         1 1E0     -0.468100
     13 C6         -0.6970    0.2670   -1.3620 ca        1 1E0     -0.110200
     14 C7         -1.6470    1.2700   -1.5200 ca        1 1E0     -0.053000
     15 C8         -2.4370    1.3030   -2.6830 ca        1 1E0     -0.157000
     16 C9         -2.2650    0.3560   -3.6700 ca        1 1E0     -0.028000
     17 C10        -0.4840   -0.7370   -2.3640 ca        1 1E0      0.042000
     18 C11        -1.2970   -0.6690   -3.5310 ca        1 1E0     -0.081000
     19 C12        -1.1230   -1.6450   -4.5540 ca        1 1E0     -0.051000
     20 C13        -0.1930   -2.6440   -4.4350 ca        1 1E0     -0.179000
     21 C14         0.6140   -2.7110   -3.2640 ca        1 1E0      0.192100
     22 C15         0.4680   -1.7740   -2.2450 ca        1 1E0     -0.227000
     23 O3          1.5730   -3.6640   -3.0450 os        1 1E0     -0.332900
     24 C16         1.7230   -4.6770   -4.0600 c3        1 1E0      0.123400
     25 C17         2.8100   -5.6070   -3.5520 c3        1 1E0     -0.083400
     26 C18         3.0520   -6.7140   -4.5450 c3        1 1E0     -0.099100
     27 H1         -1.4440   -0.5170    1.2180 h4        1 1E0      0.245000
     28 H2          1.5800   -0.1930    3.8380 hn        1 1E0      0.376500
     29 H4         -1.2020   -1.4560    5.8420 hn        1 1E0      0.486467
     30 H3         -0.0300   -0.2770    6.0550 hn        1 1E0      0.486467
     31 H5          5.0070    1.3780    1.1480 hn        1 1E0      0.485133
     32 H6          4.2070    0.5250   -0.0560 hn        1 1E0      0.485133
     33 H7         -1.8010    2.0480   -0.7550 ha        1 1E0      0.150000
     34 H8         -3.1900    2.1000   -2.7930 ha        1 1E0      0.170000
     35 H9         -2.8820    0.3860   -4.5850 ha        1 1E0      0.166000
     36 H10        -1.7590   -1.5800   -5.4530 ha        1 1E0      0.162000
     37 H11        -0.0720   -3.3900   -5.2360 ha        1 1E0      0.167000
     38 H12         1.1050   -1.8740   -1.3570 ha        1 1E0      0.132000
     39 H14         0.7500   -5.2190   -4.1880 h1        1 1E0      0.054200
     40 H13         2.0230   -4.1890   -5.0240 h1        1 1E0      0.054200
     41 H15         3.7520   -5.0230   -3.3850 hc        1 1E0      0.054200
     42 H16         2.5010   -6.0340   -2.5620 hc        1 1E0      0.054200
     43 H18         3.8520   -7.3960   -4.1660 hc        1 1E0      0.048700
     44 H17         2.1240   -7.3160   -4.7050 hc        1 1E0      0.048700
     45 H19         3.3780   -6.3010   -5.5300 hc        1 1E0      0.048700
     46 H43         0.4190   -1.8500    5.6940 hn        1 1E0      0.486467
     47 H53         3.7650    2.0980    0.2790 hn        1 1E0      0.485133
@<TRIPOS>BOND
     1    1    2 1   
     2    1    5 1   
     3    1   13 1   
     4    2    3 2   
     5    3    4 1   
     6    3   10 1   
     7    4    5 2   
     8    4    6 1   
     9    5   27 1   
    10    6    7 1   
    11    6   28 1   
    12    7    8 1   
    13    7    9 2   
    14    8   29 1   
    15    8   30 1   
    16    8   46 1   
    17   10   11 1   
    18   10   12 2   
    19   11   31 1   
    20   11   32 1   
    21   11   47 1   
    22   13   14 ar  
    23   13   17 ar  
    24   14   15 ar  
    25   14   33 1   
    26   15   16 ar  
    27   15   34 1   
    28   16   18 ar  
    29   16   35 1   
    30   17   18 ar  
    31   17   22 ar  
    32   18   19 ar  
    33   19   20 ar  
    34   19   36 1   
    35   20   21 ar  
    36   20   37 1   
    37   21   22 ar  
    38   21   23 1   
    39   22   38 1   
    40   23   24 1   
    41   24   25 1   
    42   24   39 1   
    43   24   40 1   
    44   25   26 1   
    45   25   41 1   
    46   25   42 1   
    47   26   43 1   
    48   26   44 1   
    49   26   45 1   
@<TRIPOS>SUBSTRUCTURE
     1 1E0         1 TEMP              0 ****  ****    0 ROOT
