@<TRIPOS>MOLECULE
1E1
   27    25     1     0     0
SMALL
bcc


@<TRIPOS>ATOM
      1 N26      -222.9240  234.1350  326.9090 n4        1 1E1     -0.073000
      2 C27      -222.9220  233.4570  325.5680 c3        1 1E1     -0.067000
      3 C28      -221.8030  232.4750  325.4850 c3        1 1E1     -0.437000
      4 C29      -220.8370  232.4790  324.3130 c3        1 1E1     -0.241000
      5 C30      -220.3960  231.1710  323.7470 c3        1 1E1     -0.186000
      6 C31      -220.3780  232.9590  325.6300 c1        1 1E1      0.231000
      7 O32       399.4780 -416.0720 -574.1080 oh        1 1E1     -0.166000
      8 C33       398.4990 -415.9230 -574.9410 c1        1 1E1      0.155000
      9 C36       398.4270 -414.5550 -575.5820 c2        1 1E1      0.162000
     10 H32        -1.9270    3.4490   -5.6910 ha        1 1E1      0.000000
     11 H33        -1.8300    4.1120   -5.7790 ha        1 1E1      0.000000
     12 H34      -221.9910  234.5220  327.1010 hn        1 1E1      0.259667
     13 H35      -222.8260  234.2610  324.7810 hx        1 1E1      0.152500
     14 H36      -222.0630  231.4730  325.8940 hc        1 1E1      0.184000
     15 H37      -221.1500  230.7970  323.0110 hc        1 1E1      0.108667
     16 H38      -220.9700  233.2490  323.5160 hc        1 1E1      0.176000
     17 H39      -219.4170  231.3040  323.2200 hc        1 1E1      0.108667
     18 H40      -220.2680  230.4000  324.5460 hc        1 1E1      0.108667
     19 H41       399.4150 -416.9550 -573.6640 ho        1 1E1      0.339000
     20 H42      -223.9210  232.9460  325.4410 hx        1 1E1      0.152500
     21 H43       398.3870 -415.2680 -577.5600 hn        1 1E1      0.265000
     22 H44       399.8470 -414.5830 -577.1280 hn        1 1E1      0.265000
     23 H2       -223.6180  234.8870  326.9280 hn        1 1E1      0.259667
     24 O34       397.8300 -413.5780 -575.1650 o         1 1E1     -0.139000
     25 N35       398.8300 -414.5000 -577.0450 n4        1 1E1     -0.148000
     26 H263     -223.1430  233.4550  327.6430 hn        1 1E1      0.259667
     27 H353      398.5330 -413.6070 -577.4610 hn        1 1E1      0.265000
@<TRIPOS>BOND
     1    1    2 1   
     2    1   12 1   
     3    1   23 1   
     4    1   26 1   
     5    2    3 1   
     6    2   13 1   
     7    2   20 1   
     8    3    4 1   
     9    3    6 1   
    10    3   14 1   
    11    4    5 1   
    12    4    6 1   
    13    4   16 1   
    14    5   15 1   
    15    5   17 1   
    16    5   18 1   
    17    7    8 1   
    18    7   19 1   
    19    8    9 1   
    20    9   24 1   
    21    9   25 1   
    22   10   11 1   
    23   21   25 1   
    24   22   25 1   
    25   25   27 1   
@<TRIPOS>SUBSTRUCTURE
     1 1E1         1 TEMP              0 ****  ****    0 ROOT
