@<TRIPOS>MOLECULE
1E1
   27    23     1     0     0
SMALL
bcc


@<TRIPOS>ATOM
      1 N26      -174.4870  304.9700  581.9630 n3        1 1E1     -0.328000
      2 C27      -174.8720  305.6820  583.1290 c2        1 1E1     -0.159000
      3 C28      -175.0060  307.0110  583.2240 c2        1 1E1     -0.210000
      4 C29      -170.5760  303.9120  582.5300 c2        1 1E1     -0.203000
      5 C30      -169.7600  302.8590  581.8690 c3        1 1E1     -0.166000
      6 C31      -171.8080  304.2110  582.3350 c1        1 1E1      0.207000
      7 O32       139.5760 -149.7920   94.3400 oh        1 1E1     -0.326000
      8 C33       140.4600 -150.7350   93.7750 c3        1 1E1     -0.073000
      9 C36       392.0160 -794.9090-1973.8520 c1        1 1E1      0.466000
     10 H32      -175.0680  304.1570  581.8410 hn        1 1E1      0.186000
     11 H33       141.4570 -150.5110   94.2310 h1        1 1E1      0.068000
     12 H34      -174.8910  307.7030  582.3780 ha        1 1E1      0.142500
     13 H35      -175.0300  305.0230  584.0060 h4        1 1E1      0.155000
     14 H36      -175.2520  307.4840  584.1850 ha        1 1E1      0.142500
     15 H37      -169.3790  302.1500  582.6500 hc        1 1E1      0.140333
     16 H38      -170.0000  304.5040  583.2990 ha        1 1E1      0.280000
     17 H39      -170.3510  302.2880  581.1120 hc        1 1E1      0.140333
     18 H40      -168.8840  303.3430  581.3610 hc        1 1E1      0.140333
     19 H41       138.7030 -149.9600   93.9650 ho        1 1E1      0.195000
     20 H42       140.1480 -151.7790   94.0300 h1        1 1E1      0.068000
     21 H43       140.5120 -150.6180   92.6640 h1        1 1E1      0.068000
     22 H44       392.5400 -795.6900-1975.6220 hn        1 1E1      0.346000
     23 H2       -174.5460  305.5430  581.1390 hn        1 1E1      0.186000
     24 O34       392.0510 -794.8260-1972.6870 o         1 1E1      0.106000
     25 N35       391.9770 -795.0000-1975.1390 n3        1 1E1     -0.265000
     26 H263     -172.9070  304.5050  582.1860 ha        1 1E1      0.345000
     27 H353      391.3850 -794.3830-1975.6800 hn        1 1E1      0.346000
@<TRIPOS>BOND
     1    1    2 1   
     2    1   10 1   
     3    1   23 1   
     4    2    3 1   
     5    2   13 1   
     6    3   12 1   
     7    3   14 1   
     8    4    5 1   
     9    4    6 1   
    10    4   16 1   
    11    5   15 1   
    12    5   17 1   
    13    5   18 1   
    14    6   26 1   
    15    7    8 1   
    16    7   19 1   
    17    8   11 1   
    18    8   20 1   
    19    8   21 1   
    20    9   24 1   
    21    9   25 1   
    22   22   25 1   
    23   25   27 1   
@<TRIPOS>SUBSTRUCTURE
     1 1E1         1 TEMP              0 ****  ****    0 ROOT
