@<TRIPOS>MOLECULE
1E1
   25    25     1     0     0
SMALL
bcc


@<TRIPOS>ATOM
      1 N26         0.0870    0.3100    1.3630 n3        1 1E1     -0.906800
      2 C27         0.1030    0.4140   -0.0820 c3        1 1E1      0.145500
      3 C28         1.3760   -0.1060   -0.7710 c3        1 1E1     -0.088400
      4 C29         2.5980    0.5870   -0.2650 cx        1 1E1     -0.133700
      5 C30         3.9460   -0.0460   -0.4820 cx        1 1E1     -0.132400
      6 C31         3.3660    0.0130    0.8980 cx        1 1E1     -0.132400
      7 O32        -0.9500   -1.7060   -0.6540 oh        1 1E1     -0.595800
      8 C33        -1.1140   -0.3050   -0.7170 c3        1 1E1      0.076100
      9 C36        -2.4180    0.1180   -0.0330 c         1 1E1      0.638100
     10 H32        -0.0180   -0.6470    1.6420 hn        1 1E1      0.355800
     11 H33         0.0140    1.5170   -0.3230 h1        1 1E1      0.050700
     12 H34         1.4520   -1.2160   -0.6170 hc        1 1E1      0.060700
     13 H35         1.2810    0.0690   -1.8750 hc        1 1E1      0.060700
     14 H36         2.5260    1.6910   -0.3400 hc        1 1E1      0.077700
     15 H37         4.0010   -1.0210   -0.9990 hc        1 1E1      0.071950
     16 H38         4.8040    0.6020   -0.7340 hc        1 1E1      0.071950
     17 H39         3.8070    0.7040    1.6390 hc        1 1E1      0.071950
     18 H40         3.0090   -0.9210    1.3680 hc        1 1E1      0.071950
     19 H41        -1.4470   -2.0430    0.1080 ho        1 1E1      0.433000
     20 H42        -1.1510   -0.0580   -1.8160 h1        1 1E1      0.088700
     21 H43        -3.6040    1.7140    0.4110 hn        1 1E1      0.309000
     22 H44        -2.1610    2.1200   -0.3770 hn        1 1E1      0.309000
     23 H2          0.9470    0.6610    1.7400 hn        1 1E1      0.355800
     24 O34        -3.1170   -0.7400    0.5450 o         1 1E1     -0.617100
     25 N35        -2.8170    1.4270   -0.1190 n         1 1E1     -0.643000
@<TRIPOS>BOND
     1    1    2 1   
     2    1   10 1   
     3    1   23 1   
     4    2    3 1   
     5    2    8 1   
     6    2   11 1   
     7    3    4 1   
     8    3   12 1   
     9    3   13 1   
    10    4    5 1   
    11    4    6 1   
    12    4   14 1   
    13    5    6 1   
    14    5   15 1   
    15    5   16 1   
    16    6   17 1   
    17    6   18 1   
    18    7    8 1   
    19    7   19 1   
    20    8    9 1   
    21    8   20 1   
    22    9   24 2   
    23    9   25 1   
    24   21   25 1   
    25   22   25 1   
@<TRIPOS>SUBSTRUCTURE
     1 1E1         1 TEMP              0 ****  ****    0 ROOT
