@<TRIPOS>MOLECULE
1E1
   27    24     1     0     0
SMALL
bcc


@<TRIPOS>ATOM
      1 N26       -16.5390   49.9290  -24.5740 nz        1 1E1     -0.185000
      2 C27       -16.7250   50.9320  -23.5290 c3        1 1E1     -0.186000
      3 C28       -16.6570   46.2000  -23.2520 c3        1 1E1     -0.319000
      4 C29       -15.1640   46.4530  -23.2400 c3        1 1E1     -0.238000
      5 C30       -14.4180   46.5710  -21.9530 c3        1 1E1     -0.189000
      6 C31       -16.1190   47.4920  -23.6550 c1        1 1E1      0.077000
      7 O32       142.0070 -391.7570  200.8340 oh        1 1E1     -0.246000
      8 C33       143.1430 -392.0900  200.6570 c1        1 1E1      0.764000
      9 C36       -16.3950   50.6220  -28.5030 c2        1 1E1      0.291000
     10 H32       -15.7470   50.1760  -25.1680 hn        1 1E1      0.264000
     11 H33       -15.8100   50.9710  -22.8800 hx        1 1E1      0.122333
     12 H34       -17.0910   45.5050  -24.0030 hc        1 1E1      0.189500
     13 H35       -16.8970   51.9490  -23.9740 hx        1 1E1      0.122333
     14 H36       -17.2170   46.1110  -22.2940 hc        1 1E1      0.189500
     15 H37       -14.0990   45.5530  -21.6140 hc        1 1E1      0.105000
     16 H38       -14.5480   45.9620  -24.0310 hc        1 1E1      0.184000
     17 H39       -15.0510   47.0240  -21.1520 hc        1 1E1      0.105000
     18 H40       -13.5050   47.2010  -22.0920 hc        1 1E1      0.105000
     19 H41       141.0630 -391.4800  200.9800 ho        1 1E1      0.482000
     20 H42       -17.6120   50.6570  -22.8990 hx        1 1E1      0.122333
     21 H43       -15.3920   50.8320  -28.9450 h5        1 1E1      0.144000
     22 H44       -17.3180   50.9460  -30.3040 hn        1 1E1      0.237000
     23 H2        -16.3560   48.8600  -24.1290 hn        1 1E1      0.264000
     24 O34       -16.5420   50.3240  -27.2940 o         1 1E1     -0.493000
     25 N35       -17.4480   50.7070  -29.3520 nt        1 1E1     -0.411000
     26 H263      -17.3550   49.8950  -25.1840 hn        1 1E1      0.264000
     27 H353      -18.3740   50.5380  -29.0400 hn        1 1E1      0.237000
@<TRIPOS>BOND
     1    1    2 1   
     2    1   10 1   
     3    1   23 1   
     4    1   26 1   
     5    2   11 1   
     6    2   13 1   
     7    2   20 1   
     8    3    4 1   
     9    3    6 1   
    10    3   12 1   
    11    3   14 1   
    12    4    5 1   
    13    4    6 1   
    14    4   16 1   
    15    5   15 1   
    16    5   17 1   
    17    5   18 1   
    18    7    8 1   
    19    7   19 1   
    20    9   21 1   
    21    9   24 1   
    22    9   25 1   
    23   22   25 1   
    24   25   27 1   
@<TRIPOS>SUBSTRUCTURE
     1 1E1         1 TEMP              0 ****  ****    0 ROOT
