@<TRIPOS>MOLECULE
1E2
   42    40     1     0     0
SMALL
bcc


@<TRIPOS>ATOM
      1 C2          0.8600   -0.3230   -0.5500 c3        1 1E2      0.113100
      2 C4          0.2080    0.5380    1.7660 c3        1 1E2      0.118300
      3 C6          2.3240    1.6830    2.6540 c2        1 1E2     -0.323100
      4 C5          1.6810    0.7210    1.9980 c2        1 1E2      0.082900
      5 O10         7.1700   -4.3610   -1.9560 o         1 1E2     -0.553000
      6 C23         6.6190   -3.8870   -2.9530 c         1 1E2      0.630100
      7 C24         7.1690   -3.7910   -4.3360 c3        1 1E2     -0.151100
      8 C46         4.7460   -3.3220   -1.5500 c3        1 1E2      0.190600
      9 C45         5.2210   -2.1380   -0.7990 c2        1 1E2     -0.303200
     10 O47         1.5680   -3.2350    0.7800 oh        1 1E2     -0.821000
     11 C44         4.4250   -1.1830   -0.2920 c2        1 1E2      0.062100
     12 O6          3.0510   -1.3010   -0.4840 os        1 1E2     -0.361900
     13 C1          2.3170   -0.1620   -0.0600 c3        1 1E2      0.303900
     14 O2          0.7740   -0.0690   -1.9350 oh        1 1E2     -0.571800
     15 C3         -0.0620    0.6230    0.2450 c3        1 1E2      0.119100
     16 O3         -1.3950    0.2350   -0.0400 oh        1 1E2     -0.592800
     17 O4         -0.6180    1.5250    2.3630 oh        1 1E2     -0.619800
     18 O5          2.3940   -0.3020    1.3610 os        1 1E2     -0.363900
     19 S           4.0720    1.9960    2.6320 s6        1 1E2      1.462700
     20 O9          4.4790    1.5660    1.3410 o         1 1E2     -0.743533
     21 O7          4.1370    3.3940    2.8100 o         1 1E2     -0.743533
     22 O8          4.6120    1.2510    3.6950 o         1 1E2     -0.743533
     23 H1          0.5230   -1.3940   -0.4300 h1        1 1E2      0.124700
     24 H2         -0.1140   -0.4730    2.1490 h1        1 1E2      0.070700
     25 H3          0.2090    0.2550    4.8940 ha        1 1E2      0.000500
     26 H4          1.7540    2.4230    3.2320 h4        1 1E2      0.146000
     27 H5          0.7270    0.2800    4.4570 ha        1 1E2      0.000500
     28 H6          7.8330   -4.6660   -4.5320 hc        1 1E2      0.068367
     29 H7          6.3450   -3.7620   -5.0880 hc        1 1E2      0.068367
     30 H8          7.7670   -2.8490   -4.4160 hc        1 1E2      0.068367
     31 H11         3.6500   -3.2590   -1.7970 h1        1 1E2      0.066700
     32 H12         2.0970   -3.2110   -0.0230 ho        1 1E2      0.407500
     33 H13         1.9050   -2.4860    1.2870 ho        1 1E2      0.407500
     34 H14         4.7620   -0.3050    0.2990 h4        1 1E2      0.226000
     35 H15         2.8000    0.7990   -0.3870 h2        1 1E2      0.098700
     36 H16         1.0420    0.8480   -2.0780 ho        1 1E2      0.395000
     37 H17         0.0950    1.6860   -0.0950 h1        1 1E2      0.047700
     38 H18        -1.9580    0.7480    0.5550 ho        1 1E2      0.414000
     39 H19        -0.2160    1.7660    3.2080 ho        1 1E2      0.424000
     40 H9          6.3080   -2.0740   -0.6430 ha        1 1E2      0.148000
     41 O48         5.3550   -3.3910   -2.8540 os        1 1E2     -0.437900
     42 H10         4.9690   -4.2670   -0.9850 h1        1 1E2      0.066700
@<TRIPOS>BOND
     1    1   13 1   
     2    1   14 1   
     3    1   15 1   
     4    1   23 1   
     5    2    4 1   
     6    2   15 1   
     7    2   17 1   
     8    2   24 1   
     9    3    4 2   
    10    3   19 1   
    11    3   26 1   
    12    4   18 1   
    13    5    6 2   
    14    6    7 1   
    15    6   41 1   
    16    7   28 1   
    17    7   29 1   
    18    7   30 1   
    19    8    9 1   
    20    8   31 1   
    21    8   41 1   
    22    8   42 1   
    23    9   11 2   
    24    9   40 1   
    25   10   32 1   
    26   10   33 1   
    27   11   12 1   
    28   11   34 1   
    29   12   13 1   
    30   13   18 1   
    31   13   35 1   
    32   14   36 1   
    33   15   16 1   
    34   15   37 1   
    35   16   38 1   
    36   17   39 1   
    37   19   20 1   
    38   19   21 1   
    39   19   22 1   
    40   25   27 1   
@<TRIPOS>SUBSTRUCTURE
     1 1E2         1 TEMP              0 ****  ****    0 ROOT
