@<TRIPOS>MOLECULE
1E2
   42    40     1     0     0
SMALL
bcc


@<TRIPOS>ATOM
      1 C2         -2.2250    0.4810    0.6040 c3        1 1E2      0.011000
      2 C4         -2.1320    1.5400    2.8220 c3        1 1E2     -0.017000
      3 C6         -0.0760    1.3150    4.1290 c3        1 1E2     -0.847000
      4 C5         -0.6100    1.5190    2.7600 c3        1 1E2      0.055000
      5 O10         2.1160   -1.6510   -5.8070 o         1 1E2     -0.375000
      6 C23         2.4350   -2.6400   -5.1610 c1        1 1E2      0.316000
      7 C24         3.0740   -3.8200   -5.8520 c2        1 1E2     -0.243000
      8 O48         2.1910   -2.6820   -3.7680 os        1 1E2     -0.297000
      9 C46         1.5310   -1.5310   -3.2660 c3        1 1E2     -0.041000
     10 C45         1.2330   -1.7200   -1.7800 c3        1 1E2     -0.008000
     11 O47         2.3980   -2.1110   -1.1190 oh        1 1E2     -0.344000
     12 C44         0.7290   -0.4020   -1.1890 c3        1 1E2     -0.008000
     13 O6         -0.2740   -0.6800   -0.1570 os        1 1E2     -0.259000
     14 C1         -0.6980    0.4650    0.5520 c3        1 1E2      0.150000
     15 O2         -2.7310    0.6750   -0.7190 oh        1 1E2     -0.328000
     16 C3         -2.7490    1.5620    1.4820 c3        1 1E2     -0.010000
     17 O3         -4.1930    1.3960    1.6240 oh        1 1E2     -0.353000
     18 O4         -2.5530    2.7190    3.5500 oh        1 1E2     -0.366000
     19 O5         -0.0940    0.4500    1.8820 os        1 1E2     -0.298000
     20 S           1.1210    2.5810    4.4940 s4        1 1E2      2.078800
     21 O9          1.6770    2.4240    5.8850 o         1 1E2     -0.681400
     22 O7          0.4690    3.9420    4.5900 o         1 1E2     -0.681400
     23 O8          2.2190    2.5730    3.4630 os        1 1E2     -1.060000
     24 H1         -2.5430   -0.3880    0.9430 h1        1 1E2      0.110000
     25 H2         -2.4380    0.7530    3.2960 h1        1 1E2      0.093000
     26 H3         -0.8090    1.3620    4.7770 h1        1 1E2      0.127500
     27 H4          0.3520    0.4370    4.1840 h1        1 1E2      0.127500
     28 H5         -0.2970    2.3800    2.4240 h1        1 1E2      0.115000
     29 H6          2.3760   -4.4410   -6.1500 ha        1 1E2      0.131333
     30 H7          3.6760   -4.2790   -5.2280 ha        1 1E2      0.131333
     31 H8          3.5880   -3.5040   -6.6330 ha        1 1E2      0.131333
     32 H9          0.6860   -1.3980   -3.7550 h1        1 1E2      0.109500
     33 H10         2.1050   -0.7480   -3.3870 h1        1 1E2      0.109500
     34 H11         0.5510   -2.4070   -1.6710 h1        1 1E2      0.119000
     35 H12         2.3530   -2.9740   -0.9280 ho        1 1E2      0.214000
     36 H13         1.4750    0.0840   -0.7940 h1        1 1E2      0.094000
     37 H14         0.3250    0.1410   -1.8990 h1        1 1E2      0.094000
     38 H15        -0.3940    1.2530    0.0820 h2        1 1E2      0.096000
     39 H16        -3.5160    0.2670   -0.7990 ho        1 1E2      0.213000
     40 H17        -2.5690    2.4220    1.0650 h1        1 1E2      0.097000
     41 H18        -4.6130    2.1360    1.3150 ho        1 1E2      0.227000
     42 H19        -3.1650    2.4970    4.1400 ho        1 1E2      0.266000
@<TRIPOS>BOND
     1    1   14 1   
     2    1   15 1   
     3    1   16 1   
     4    1   24 1   
     5    2    4 1   
     6    2   16 1   
     7    2   18 1   
     8    2   25 1   
     9    3    4 1   
    10    3   20 1   
    11    3   26 1   
    12    3   27 1   
    13    4   19 1   
    14    4   28 1   
    15    5    6 1   
    16    6    8 1   
    17    7   29 1   
    18    7   30 1   
    19    7   31 1   
    20    8    9 1   
    21    9   10 1   
    22    9   32 1   
    23    9   33 1   
    24   10   11 1   
    25   10   12 1   
    26   10   34 1   
    27   11   35 1   
    28   12   13 1   
    29   12   36 1   
    30   12   37 1   
    31   13   14 1   
    32   14   19 1   
    33   14   38 1   
    34   15   39 1   
    35   16   17 1   
    36   16   40 1   
    37   17   41 1   
    38   18   42 1   
    39   20   21 1   
    40   20   22 1   
@<TRIPOS>SUBSTRUCTURE
     1 1E2         1 TEMP              0 ****  ****    0 ROOT
