@<TRIPOS>MOLECULE
1E2
   42    42     1     0     0
SMALL
bcc


@<TRIPOS>ATOM
      1 C2          1.4510   -2.7450   -0.0140 c3        1 1E2      0.082100
      2 C4          3.1090   -0.8640   -0.3600 c3        1 1E2      0.118100
      3 C6          2.0860    1.4710   -0.3480 c3        1 1E2     -0.288600
      4 C5          2.0760    0.0950    0.2640 c3        1 1E2      0.200100
      5 O10        -5.5090   -0.1800   -1.4430 o         1 1E2     -0.558000
      6 C23        -5.3810    0.0220   -0.2320 c         1 1E2      0.625100
      7 C24        -6.3930   -0.2240    0.8370 c3        1 1E2     -0.152100
      8 C46        -3.1500    0.8070   -0.6620 c3        1 1E2      0.083400
      9 C45        -2.2760   -0.4340   -0.8850 c3        1 1E2      0.131100
     10 O47        -1.2510   -0.1100   -1.7960 oh        1 1E2     -0.608800
     11 C44        -1.7340   -0.9180    0.4640 c3        1 1E2      0.107400
     12 O6         -0.8050   -1.9880    0.2660 os        1 1E2     -0.438600
     13 C1          0.5300   -1.6800    0.6120 c3        1 1E2      0.315900
     14 O2          1.3110   -3.9990    0.6360 oh        1 1E2     -0.620800
     15 C3          2.9060   -2.2960    0.1800 c3        1 1E2      0.102100
     16 O3          3.7970   -3.1330   -0.5420 oh        1 1E2     -0.615800
     17 O4          4.3990   -0.4030    0.0030 oh        1 1E2     -0.587800
     18 O5          0.7660   -0.4300   -0.0010 os        1 1E2     -0.426600
     19 S           0.9200    2.6020    0.4140 s6        1 1E2      1.435800
     20 O9         -0.3500    2.2190   -0.1000 o         1 1E2     -0.751200
     21 O7          1.0460    2.3790    1.8030 o         1 1E2     -0.751200
     22 O8          1.3490    3.8720   -0.0210 o         1 1E2     -0.751200
     23 H1          1.2140   -2.8570   -1.1070 h1        1 1E2      0.076700
     24 H2          3.0020   -0.8700   -1.4800 h1        1 1E2      0.058700
     25 H3          3.1190    1.8820   -0.2540 h1        1 1E2      0.088200
     26 H4          1.8450    1.4030   -1.4350 h1        1 1E2      0.088200
     27 H5          2.2420    0.1600    1.3770 h1        1 1E2      0.075700
     28 H6         -6.0930    0.2740    1.7900 hc        1 1E2      0.066700
     29 H7         -7.3830    0.1700    0.5010 hc        1 1E2      0.066700
     30 H8         -6.4750   -1.3250    1.0070 hc        1 1E2      0.066700
     31 H11        -2.8650   -1.2510   -1.3870 h1        1 1E2      0.060700
     32 H12        -0.6730    0.5440   -1.3590 ho        1 1E2      0.458000
     33 H13        -1.2670   -0.0550    1.0110 h1        1 1E2      0.065200
     34 H14        -2.5670   -1.3610    1.0720 h1        1 1E2      0.065200
     35 H15         0.6520   -1.6260    1.7290 h2        1 1E2      0.046700
     36 H16         0.3660   -4.2010    0.6260 ho        1 1E2      0.421000
     37 H17         3.1710   -2.3330    1.2730 h1        1 1E2      0.055700
     38 H18         3.5790   -4.0400   -0.2930 ho        1 1E2      0.414000
     39 H19         5.0240   -1.0220   -0.3980 ho        1 1E2      0.404000
     40 H9         -3.5540    1.1690   -1.6410 h1        1 1E2      0.101700
     41 O48        -4.2170    0.5300    0.2550 os        1 1E2     -0.432900
     42 H10        -2.5510    1.6170   -0.1510 h1        1 1E2      0.101700
@<TRIPOS>BOND
     1    1   13 1   
     2    1   14 1   
     3    1   15 1   
     4    1   23 1   
     5    2    4 1   
     6    2   15 1   
     7    2   17 1   
     8    2   24 1   
     9    3    4 1   
    10    3   19 1   
    11    3   25 1   
    12    3   26 1   
    13    4   18 1   
    14    4   27 1   
    15    5    6 2   
    16    6    7 1   
    17    6   41 1   
    18    7   28 1   
    19    7   29 1   
    20    7   30 1   
    21    8    9 1   
    22    8   40 1   
    23    8   41 1   
    24    8   42 1   
    25    9   10 1   
    26    9   11 1   
    27    9   31 1   
    28   10   32 1   
    29   11   12 1   
    30   11   33 1   
    31   11   34 1   
    32   12   13 1   
    33   13   18 1   
    34   13   35 1   
    35   14   36 1   
    36   15   16 1   
    37   15   37 1   
    38   16   38 1   
    39   17   39 1   
    40   19   20 1   
    41   19   21 1   
    42   19   22 1   
@<TRIPOS>SUBSTRUCTURE
     1 1E2         1 TEMP              0 ****  ****    0 ROOT
