@<TRIPOS>MOLECULE
1E2
   42    39     1     0     0
SMALL
bcc


@<TRIPOS>ATOM
      1 C2          0.4270    0.3400   -1.9210 c3        1 1E2      0.145400
      2 C4          0.7510    0.0120    2.7490 c3        1 1E2      0.052300
      3 C6          2.1030    1.8070    1.6310 c2        1 1E2     -0.436100
      4 C5          1.3330    0.7210    1.5360 c2        1 1E2      0.156900
      5 O10         7.9130   -3.5750   -0.5800 o         1 1E2     -0.557000
      6 C23         7.2780   -3.7550   -1.6230 c         1 1E2      0.629100
      7 C24         7.7360   -4.4420   -2.8640 c3        1 1E2     -0.151100
      8 C46         5.4860   -2.5600   -0.5770 c3        1 1E2      0.196600
      9 C45         4.0340   -2.3890   -0.8160 c2        1 1E2     -0.284200
     10 O47         0.4970   -2.9860    0.3370 oh        1 1E2     -0.824000
     11 C44         3.4470   -1.1830   -0.7330 c2        1 1E2      0.059100
     12 O6          2.0770   -1.1320   -0.9430 os        1 1E2     -0.377900
     13 C1          1.5080    0.1730   -0.8340 c3        1 1E2      0.280900
     14 O2          0.6720    1.4850   -2.7000 oh        1 1E2     -0.622800
     15 C3         -0.3210    0.8860    3.3640 c         1 1E2      0.549900
     16 O3         -0.2520    1.3120    4.5160 o         1 1E2     -0.531100
     17 O4          1.7490   -0.3490    3.6790 oh        1 1E2     -0.573800
     18 O5          0.8360    0.0830    0.4160 os        1 1E2     -0.380900
     19 S           2.9170    2.8470    0.4890 s6        1 1E2      1.468700
     20 O9          3.9550    2.0260   -0.0340 o         1 1E2     -0.748200
     21 O7          1.9420    3.1350   -0.5060 o         1 1E2     -0.748200
     22 O8          3.3440    3.9510    1.2470 o         1 1E2     -0.748200
     23 H1          0.4560   -0.5250   -2.6330 h1        1 1E2      0.053700
     24 H2          0.2920   -0.9750    2.4360 h1        1 1E2      0.116700
     25 H3          2.3200   -2.1940    2.0490 ha        1 1E2      0.001000
     26 H4          2.3000    2.1580    2.6620 h4        1 1E2      0.154000
     27 H5          2.4260   -1.7520    1.5450 ha        1 1E2      0.001000
     28 H6          6.8690   -4.7000   -3.5180 hc        1 1E2      0.069367
     29 H7          8.2890   -5.3710   -2.5860 hc        1 1E2      0.069367
     30 H8          8.4230   -3.7580   -3.4190 hc        1 1E2      0.069367
     31 H11         3.4700   -3.2980   -1.0640 ha        1 1E2      0.135000
     32 H12         1.3760   -3.0640   -0.0490 ho        1 1E2      0.407500
     33 H13         0.3430   -2.0350    0.3320 ho        1 1E2      0.407500
     34 H14         3.9580   -0.2250   -0.5030 h4        1 1E2      0.204000
     35 H15         2.2840    0.9810   -0.9020 h2        1 1E2      0.135700
     36 H16         0.8680    2.2300   -2.1020 ho        1 1E2      0.462000
     37 H17        -0.5820    0.4060   -1.4340 h1        1 1E2      0.053700
     38 H18        -1.1790    1.1130    2.6940 h4        1 1E2      0.010200
     39 H19         2.1180    0.4680    4.0420 ho        1 1E2      0.414000
     40 H9          5.6770   -3.1620    0.3520 h1        1 1E2      0.058700
     41 O48         6.0010   -3.2930   -1.7140 os        1 1E2     -0.436900
     42 H10         6.0410   -1.5880   -0.5110 h1        1 1E2      0.058700
@<TRIPOS>BOND
     1    1   13 1   
     2    1   14 1   
     3    1   23 1   
     4    1   37 1   
     5    2    4 1   
     6    2   15 1   
     7    2   17 1   
     8    2   24 1   
     9    3    4 2   
    10    3   19 1   
    11    3   26 1   
    12    4   18 1   
    13    5    6 2   
    14    6    7 1   
    15    6   41 1   
    16    7   28 1   
    17    7   29 1   
    18    7   30 1   
    19    8    9 1   
    20    8   40 1   
    21    8   41 1   
    22    8   42 1   
    23    9   11 2   
    24    9   31 1   
    25   10   32 1   
    26   10   33 1   
    27   11   12 1   
    28   11   34 1   
    29   12   13 1   
    30   13   18 1   
    31   13   35 1   
    32   14   36 1   
    33   15   16 2   
    34   15   38 1   
    35   17   39 1   
    36   19   20 1   
    37   19   21 1   
    38   19   22 1   
    39   25   27 1   
@<TRIPOS>SUBSTRUCTURE
     1 1E2         1 TEMP              0 ****  ****    0 ROOT
