@<TRIPOS>MOLECULE
1E3
   32    30     1     0     0
SMALL
bcc


@<TRIPOS>ATOM
      1 O          -2.9780    3.6120   -3.3450 o         1 1E3     -0.814000
      2 C          -1.7700    3.2820   -3.2080 c1        1 1E3      0.773000
      3 CA         -1.1130    3.3670   -1.8490 c2        1 1E3      0.131200
      4 N          -1.5600    4.5400   -1.1790 nh        1 1E3     -0.476100
      5 CB         -1.4830    2.1490   -1.0340 c3        1 1E3     -0.124700
      6 CAJ        -0.2720    1.2530   -0.8900 c3        1 1E3     -0.093400
      7 CAI        -0.5760    0.1510    0.1010 c3        1 1E3     -0.073400
      8 CAH         0.6340   -0.7460    0.2440 c3        1 1E3     -0.079400
      9 CAG         0.3630   -1.7930    1.3020 c3        1 1E3     -0.074400
     10 CAF         1.5360   -2.7450    1.3810 c3        1 1E3     -0.119400
     11 CAE         1.2790   -3.7740    2.4600 c3        1 1E3      0.144800
     12 NAA         2.3310   -4.7360    2.4600 n3        1 1E3     -0.905800
     13 OXT        -1.1100    2.8820   -4.2020 o         1 1E3     -0.814000
     14 H1         -0.1430    3.4040   -1.9580 h4        1 1E3     -0.048200
     15 H2         -1.3870    5.2740   -1.6990 hn        1 1E3      0.173700
     16 H3         -1.1200    4.6210   -0.3800 hn        1 1E3      0.173700
     17 H5         -2.1990    1.6600   -1.4860 hc        1 1E3      0.023200
     18 H6         -1.7880    2.4300   -0.1480 hc        1 1E3      0.023200
     19 H7         -0.0530    0.8590   -1.7590 hc        1 1E3      0.062700
     20 H8          0.4870    1.7790   -0.5700 hc        1 1E3      0.062700
     21 H9         -1.3360   -0.3750   -0.2200 hc        1 1E3      0.027700
     22 H10        -0.7950    0.5440    0.9690 hc        1 1E3      0.027700
     23 H11         1.4080   -0.2100    0.5070 hc        1 1E3      0.040700
     24 H12         0.8170   -1.1860   -0.6110 hc        1 1E3      0.040700
     25 H13         0.2390   -1.3560    2.1680 hc        1 1E3      0.036200
     26 H14        -0.4460   -2.2910    1.0690 hc        1 1E3      0.036200
     27 H15         2.3490   -2.2450    1.5940 hc        1 1E3      0.037200
     28 H16         1.6480   -3.1970    0.5200 hc        1 1E3      0.037200
     29 H17         0.4260   -4.2220    2.2870 h1        1 1E3      0.049200
     30 H18         1.2430   -3.3290    3.3330 h1        1 1E3      0.049200
     31 H19         3.1380   -4.3070    2.4060 hn        1 1E3      0.338800
     32 H20         2.2330   -5.2950    1.7400 hn        1 1E3      0.338800
@<TRIPOS>BOND
     1    1    2 2   
     2    2   13 2   
     3    3    4 2   
     4    3    5 1   
     5    3   14 1   
     6    4   15 1   
     7    4   16 1   
     8    5    6 1   
     9    5   17 1   
    10    5   18 1   
    11    6    7 1   
    12    6   19 1   
    13    6   20 1   
    14    7    8 1   
    15    7   21 1   
    16    7   22 1   
    17    8    9 1   
    18    8   23 1   
    19    8   24 1   
    20    9   10 1   
    21    9   25 1   
    22    9   26 1   
    23   10   11 1   
    24   10   27 1   
    25   10   28 1   
    26   11   12 1   
    27   11   29 1   
    28   11   30 1   
    29   12   31 1   
    30   12   32 1   
@<TRIPOS>SUBSTRUCTURE
     1 1E3         1 TEMP              0 ****  ****    0 ROOT
