@<TRIPOS>MOLECULE
1E3
   32    31     1     0     0
SMALL
bcc


@<TRIPOS>ATOM
      1 O          -5.2390   -0.1970   -0.5950 o         1 1E3     -0.845300
      2 C          -4.2540    0.4010   -0.0720 c         1 1E3      0.887600
      3 CA         -3.0200   -0.4570    0.3680 c3        1 1E3      0.018500
      4 N          -3.1570   -1.8850    0.1050 n3        1 1E3     -0.891800
      5 CB         -1.7670    0.1580   -0.2550 c3        1 1E3     -0.063400
      6 CAJ        -0.4910   -0.3920    0.3430 c3        1 1E3     -0.075400
      7 CAI         0.7270    0.3000   -0.2330 c3        1 1E3     -0.080400
      8 CAH         2.0090   -0.2630    0.3440 c3        1 1E3     -0.078400
      9 CAG         3.2250    0.4180   -0.2460 c3        1 1E3     -0.079400
     10 CAF         4.5060   -0.1700    0.3050 c3        1 1E3     -0.083400
     11 CAE         5.7170    0.5110   -0.3280 c3        1 1E3      0.153800
     12 NAA         6.9850    0.0100    0.1510 n3        1 1E3     -0.915800
     13 OXT        -4.2050    1.6440    0.1380 o         1 1E3     -0.845300
     14 H1         -2.9450   -0.3480    1.4900 h1        1 1E3      0.040700
     15 H2         -4.1060   -2.1370    0.3280 hn        1 1E3      0.329800
     16 H3         -3.0530   -2.0370   -0.8830 hn        1 1E3      0.329800
     17 H5         -1.7670   -0.0100   -1.3630 hc        1 1E3      0.045200
     18 H6         -1.8250    1.2670   -0.0840 hc        1 1E3      0.045200
     19 H7         -0.5090   -0.2540    1.4560 hc        1 1E3      0.036200
     20 H8         -0.4220   -1.4940    0.1490 hc        1 1E3      0.036200
     21 H9          0.7340    0.1810   -1.3480 hc        1 1E3      0.034700
     22 H10         0.6700    1.4000   -0.0200 hc        1 1E3      0.034700
     23 H11         2.0080   -0.1320    1.4580 hc        1 1E3      0.036200
     24 H12         2.0580   -1.3650    0.1410 hc        1 1E3      0.036200
     25 H13         3.2090    0.3090   -1.3630 hc        1 1E3      0.037700
     26 H14         3.1870    1.5160   -0.0210 hc        1 1E3      0.037700
     27 H15         4.5340   -0.0400    1.4190 hc        1 1E3      0.043700
     28 H16         4.5330   -1.2720    0.0970 hc        1 1E3      0.043700
     29 H17         5.6200    0.4200   -1.4520 h1        1 1E3      0.024200
     30 H18         5.6840    1.6120   -0.0860 h1        1 1E3      0.024200
     31 H19         6.9810   -0.9900    0.2000 hn        1 1E3      0.341800
     32 H20         7.7240    0.3010   -0.4580 hn        1 1E3      0.341800
@<TRIPOS>BOND
     1    1    2 1   
     2    2    3 1   
     3    2   13 1   
     4    3    4 1   
     5    3    5 1   
     6    3   14 1   
     7    4   15 1   
     8    4   16 1   
     9    5    6 1   
    10    5   17 1   
    11    5   18 1   
    12    6    7 1   
    13    6   19 1   
    14    6   20 1   
    15    7    8 1   
    16    7   21 1   
    17    7   22 1   
    18    8    9 1   
    19    8   23 1   
    20    8   24 1   
    21    9   10 1   
    22    9   25 1   
    23    9   26 1   
    24   10   11 1   
    25   10   27 1   
    26   10   28 1   
    27   11   12 1   
    28   11   29 1   
    29   11   30 1   
    30   12   31 1   
    31   12   32 1   
@<TRIPOS>SUBSTRUCTURE
     1 1E3         1 TEMP              0 ****  ****    0 ROOT
