@<TRIPOS>MOLECULE
1E5
   29    30     1     0     0
SMALL
bcc


@<TRIPOS>ATOM
      1 C1         -0.0590    0.2090    0.0280 cp        1 1E5     -0.072500
      2 C2          1.3030    0.5500   -0.0270 ca        1 1E5     -0.219000
      3 C3          2.0350    0.6450    1.1620 ca        1 1E5      0.132900
      4 C4          1.4340    0.4020    2.4100 ca        1 1E5     -0.265000
      5 C5          0.0750    0.0660    2.4480 ca        1 1E5      0.168100
      6 C6         -0.6770   -0.0250    1.2520 ca        1 1E5     -0.151000
      7 O7         -0.6190   -0.1980    3.6010 os        1 1E5     -0.286900
      8 C8          0.1390   -0.1300    4.8150 c3        1 1E5     -0.005600
      9 C9         -0.8010   -0.4970    5.9980 c         1 1E5      0.925600
     10 O12        -1.3000    0.4590    6.6500 o         1 1E5     -0.828300
     11 O13        -0.9320   -1.7170    6.2810 o         1 1E5     -0.828300
     12 C17        -0.7980    0.0890   -1.2460 cp        1 1E5      0.420800
     13 N18        -2.0380    0.6370   -1.3560 nb        1 1E5     -0.680000
     14 C19        -2.6580    0.5300   -2.5440 ca        1 1E5      0.403200
     15 C20        -2.1110   -0.1130   -3.6760 ca        1 1E5     -0.229900
     16 C21        -0.8450   -0.6850   -3.5410 ca        1 1E5     -0.089000
     17 C22        -0.1760   -0.5870   -2.3190 ca        1 1E5     -0.260300
     18 C23        -2.8680   -0.1690   -4.9880 c         1 1E5      0.912200
     19 O24        -4.0030    0.3840   -5.0460 o         1 1E5     -0.835800
     20 O25        -2.3220   -0.7620   -5.9630 o         1 1E5     -0.835800
     21 F31         3.3530    0.9780    1.1150 f         1 1E5     -0.170900
     22 H1          1.7890    0.7490   -0.9920 ha        1 1E5      0.138000
     23 H2          2.0340    0.4810    3.3250 ha        1 1E5      0.148000
     24 H3         -1.7460   -0.2770    1.3120 ha        1 1E5      0.166000
     25 H4          0.9850   -0.8620    4.7660 h1        1 1E5      0.019200
     26 H5          0.5300    0.9120    4.9460 h1        1 1E5      0.019200
     27 H7         -3.6640    0.9840   -2.6210 h4        1 1E5      0.036100
     28 H8         -0.3980   -1.2010   -4.4040 ha        1 1E5      0.149000
     29 H9          0.8180   -1.0310   -2.1840 ha        1 1E5      0.122000
@<TRIPOS>BOND
     1    1    2 ar  
     2    1    6 ar  
     3    1   12 1   
     4    2    3 ar  
     5    2   22 1   
     6    3    4 ar  
     7    3   21 1   
     8    4    5 ar  
     9    4   23 1   
    10    5    6 ar  
    11    5    7 1   
    12    6   24 1   
    13    7    8 1   
    14    8    9 1   
    15    8   25 1   
    16    8   26 1   
    17    9   10 1   
    18    9   11 1   
    19   12   13 ar  
    20   12   17 ar  
    21   13   14 ar  
    22   14   15 ar  
    23   14   27 1   
    24   15   16 ar  
    25   15   18 1   
    26   16   17 ar  
    27   16   28 1   
    28   17   29 1   
    29   18   19 1   
    30   18   20 1   
@<TRIPOS>SUBSTRUCTURE
     1 1E5         1 TEMP              0 ****  ****    0 ROOT
