@<TRIPOS>MOLECULE
1E5
   29    30     1     0     0
SMALL
bcc


@<TRIPOS>ATOM
      1 C1         -0.0540    0.1980    0.0260 cp        1 1E5     -0.072500
      2 C2          1.3160    0.5060   -0.0320 ca        1 1E5     -0.219000
      3 C3          2.0510    0.5900    1.1550 ca        1 1E5      0.132900
      4 C4          1.4460    0.3660    2.4050 ca        1 1E5     -0.265000
      5 C5          0.0800    0.0630    2.4460 ca        1 1E5      0.168100
      6 C6         -0.6760   -0.0150    1.2530 ca        1 1E5     -0.151000
      7 O7         -0.6180   -0.1790    3.6020 os        1 1E5     -0.286900
      8 C8          0.1420   -0.1230    4.8150 c3        1 1E5     -0.005600
      9 C9         -0.8040   -0.4620    6.0000 c         1 1E5      0.925600
     10 O12        -1.2780    0.5090    6.6500 o         1 1E5     -0.828300
     11 O13        -0.9660   -1.6770    6.2880 o         1 1E5     -0.828300
     12 C17        -0.7980    0.0900   -1.2460 cp        1 1E5      0.420800
     13 N18        -2.0250    0.6670   -1.3570 nb        1 1E5     -0.680000
     14 C19        -2.6480    0.5680   -2.5430 ca        1 1E5      0.403200
     15 C20        -2.1180   -0.0920   -3.6730 ca        1 1E5     -0.229900
     16 C21        -0.8660   -0.6940   -3.5370 ca        1 1E5     -0.089000
     17 C22        -0.1940   -0.6060   -2.3170 ca        1 1E5     -0.260300
     18 C23        -2.8790   -0.1370   -4.9840 c         1 1E5      0.912200
     19 O24        -4.0010    0.4420   -5.0430 o         1 1E5     -0.835800
     20 O25        -2.3490   -0.7480   -5.9570 o         1 1E5     -0.835800
     21 F31         3.3760    0.8910    1.1050 f         1 1E5     -0.170900
     22 H1          1.8050    0.6890   -0.9980 ha        1 1E5      0.138000
     23 H2          2.0490    0.4360    3.3190 ha        1 1E5      0.148000
     24 H3         -1.7500   -0.2420    1.3150 ha        1 1E5      0.166000
     25 H4          0.9710   -0.8750    4.7680 h1        1 1E5      0.019200
     26 H5          0.5580    0.9100    4.9400 h1        1 1E5      0.019200
     27 H7         -3.6430    1.0460   -2.6220 h4        1 1E5      0.036100
     28 H8         -0.4330   -1.2250   -4.3980 ha        1 1E5      0.149000
     29 H9          0.7900   -1.0730   -2.1810 ha        1 1E5      0.122000
@<TRIPOS>BOND
     1    1    2 ar  
     2    1    6 ar  
     3    1   12 1   
     4    2    3 ar  
     5    2   22 1   
     6    3    4 ar  
     7    3   21 1   
     8    4    5 ar  
     9    4   23 1   
    10    5    6 ar  
    11    5    7 1   
    12    6   24 1   
    13    7    8 1   
    14    8    9 1   
    15    8   25 1   
    16    8   26 1   
    17    9   10 1   
    18    9   11 1   
    19   12   13 ar  
    20   12   17 ar  
    21   13   14 ar  
    22   14   15 ar  
    23   14   27 1   
    24   15   16 ar  
    25   15   18 1   
    26   16   17 ar  
    27   16   28 1   
    28   17   29 1   
    29   18   19 1   
    30   18   20 1   
@<TRIPOS>SUBSTRUCTURE
     1 1E5         1 TEMP              0 ****  ****    0 ROOT
