@<TRIPOS>MOLECULE
1E5
   29    25     1     0     0
SMALL
bcc


@<TRIPOS>ATOM
      1 C1          0.6980    0.2160   -0.2060 c1        1 1E5      0.017000
      2 C2          2.0820    0.2390   -0.2750 c1        1 1E5     -0.211000
      3 C3          2.8350    0.2390    0.8900 c1        1 1E5      0.087000
      4 C4          2.2030    0.2170    2.1230 c1        1 1E5     -0.224000
      5 C5          0.8180    0.1950    2.1930 c1        1 1E5      0.106000
      6 C6          0.0660    0.1950    1.0280 c2        1 1E5     -0.154000
      7 O7          0.1770    0.2230    3.4430 o         1 1E5     -0.212000
      8 C8          0.0360   -1.0450    4.0400 c3        1 1E5     -0.092000
      9 C9         -0.7400   -0.9100    5.3330 c2        1 1E5      0.318000
     10 O12        -1.6250   -1.7560    5.6270 o         1 1E5     -0.572500
     11 O13        -0.5010    0.0480    6.1140 o         1 1E5     -0.572500
     12 C17        -0.1230    0.2020   -1.4770 c2        1 1E5     -0.008000
     13 N18        -0.4770   -0.9850   -2.0440 n2        1 1E5     -0.161000
     14 C19        -1.1570   -1.0010   -3.2250 c1        1 1E5     -0.063000
     15 C20        -1.4900    0.1900   -3.8490 c1        1 1E5     -0.147000
     16 C21        -1.1360    1.3790   -3.2820 c1        1 1E5     -0.088000
     17 C22        -0.4550    1.3940   -2.1000 c1        1 1E5     -0.196000
     18 C23        -2.2130    0.1710   -5.1780 c2        1 1E5      0.361000
     19 O24        -1.5640    0.2890   -6.2500 o         1 1E5     -0.572500
     20 O25        -3.4620    0.0180   -5.2120 o         1 1E5     -0.572500
     21 F31         4.1720    0.2650    0.8230 f         1 1E5     -0.132000
     22 H1          2.5270    0.2540   -1.1430 ha        1 1E5      0.134000
     23 H2          2.7320    0.2180    2.9430 ha        1 1E5      0.217000
     24 H3         -0.9090    0.1930    1.0770 ha        1 1E5      0.154000
     25 H4         -0.4460   -1.6410    3.4310 h1        1 1E5      0.072000
     26 H5          0.9210   -1.4180    4.2290 h1        1 1E5      0.072000
     27 H7         -1.4110   -1.8520   -3.6300 ha        1 1E5      0.170000
     28 H8         -1.3700    2.2200   -3.7220 ha        1 1E5      0.148000
     29 H9         -0.1880    2.2450   -1.7010 ha        1 1E5      0.123000
@<TRIPOS>BOND
     1    1    6 1   
     2    1   12 1   
     3    2    3 1   
     4    2   22 1   
     5    3   21 1   
     6    4    5 1   
     7    4   23 1   
     8    5    6 1   
     9    6   24 1   
    10    7    8 1   
    11    8    9 1   
    12    8   25 1   
    13    8   26 1   
    14    9   10 1   
    15    9   11 1   
    16   12   13 1   
    17   12   17 1   
    18   13   14 1   
    19   14   27 1   
    20   15   16 1   
    21   15   18 1   
    22   16   28 1   
    23   17   29 1   
    24   18   19 1   
    25   18   20 1   
@<TRIPOS>SUBSTRUCTURE
     1 1E5         1 TEMP              0 ****  ****    0 ROOT
