@<TRIPOS>MOLECULE
1E5
   29    30     1     0     0
SMALL
bcc


@<TRIPOS>ATOM
      1 C1         -0.1580    0.6680    0.1980 cp        1 1E5     -0.072500
      2 C2          0.1260    2.0100    0.5030 ca        1 1E5     -0.219000
      3 C3          1.4590    2.4270    0.5840 ca        1 1E5      0.132900
      4 C4          2.5190    1.5300    0.3630 ca        1 1E5     -0.265000
      5 C5          2.2200    0.1960    0.0640 ca        1 1E5      0.168100
      6 C6          0.8750   -0.2400   -0.0130 ca        1 1E5     -0.151000
      7 O7          3.1650   -0.7680   -0.1760 os        1 1E5     -0.286900
      8 C8          4.5290   -0.3320   -0.1210 c3        1 1E5     -0.005600
      9 C9          5.4420   -1.5450   -0.4570 c         1 1E5      0.925600
     10 O12         5.9550   -2.1620    0.5150 o         1 1E5     -0.828300
     11 O13         5.6800   -1.7760   -1.6720 o         1 1E5     -0.828300
     12 C17        -1.5750    0.2630    0.0920 cp        1 1E5      0.420800
     13 N18        -1.9870   -0.8960    0.6720 nb        1 1E5     -0.680000
     14 C19        -3.2910   -1.2060    0.5750 ca        1 1E5      0.403200
     15 C20        -4.2540   -0.4140   -0.0870 ca        1 1E5     -0.229900
     16 C21        -3.8110    0.7640   -0.6930 ca        1 1E5     -0.089000
     17 C22        -2.4630    1.1130   -0.6060 ca        1 1E5     -0.260300
     18 C23        -5.7130   -0.8250   -0.1300 c         1 1E5      0.912200
     19 O24        -6.0490   -1.8950    0.4520 o         1 1E5     -0.835800
     20 O25        -6.5240   -0.0720   -0.7430 o         1 1E5     -0.835800
     21 F31         1.7400    3.7250    0.8820 f         1 1E5     -0.170900
     22 H1         -0.6880    2.7240    0.6830 ha        1 1E5      0.138000
     23 H2          3.5540    1.8880    0.4320 ha        1 1E5      0.148000
     24 H3          0.6690   -1.2970   -0.2360 ha        1 1E5      0.166000
     25 H4          4.6890    0.4800   -0.8760 h1        1 1E5      0.019200
     26 H5          4.7540    0.0420    0.9100 h1        1 1E5      0.019200
     27 H7         -3.6140   -2.1490    1.0560 h4        1 1E5      0.036100
     28 H8         -4.5380    1.3960   -1.2250 ha        1 1E5      0.149000
     29 H9         -2.0870    2.0300   -1.0760 ha        1 1E5      0.122000
@<TRIPOS>BOND
     1    1    2 ar  
     2    1    6 ar  
     3    1   12 1   
     4    2    3 ar  
     5    2   22 1   
     6    3    4 ar  
     7    3   21 1   
     8    4    5 ar  
     9    4   23 1   
    10    5    6 ar  
    11    5    7 1   
    12    6   24 1   
    13    7    8 1   
    14    8    9 1   
    15    8   25 1   
    16    8   26 1   
    17    9   10 1   
    18    9   11 1   
    19   12   13 ar  
    20   12   17 ar  
    21   13   14 ar  
    22   14   15 ar  
    23   14   27 1   
    24   15   16 ar  
    25   15   18 1   
    26   16   17 ar  
    27   16   28 1   
    28   17   29 1   
    29   18   19 1   
    30   18   20 1   
@<TRIPOS>SUBSTRUCTURE
     1 1E5         1 TEMP              0 ****  ****    0 ROOT
