@<TRIPOS>MOLECULE
1E6
   47    48     1     0     0
SMALL
bcc


@<TRIPOS>ATOM
      1 C1         -3.7540   -3.4700   -0.9490 c         1 1E6      0.915200
      2 C2         -3.8080   -1.9520   -0.9330 ca        1 1E6     -0.231900
      3 O3         -3.0640   -4.0270   -0.0440 o         1 1E6     -0.823300
      4 O4         -4.3720   -4.0800   -1.8600 o         1 1E6     -0.823300
      5 C5         -3.5130   -1.2510    0.2550 ca        1 1E6      0.423200
      6 N6         -3.4410    0.0880    0.3330 nb        1 1E6     -0.731000
      7 C7         -3.6540    0.7940   -0.8020 ca        1 1E6      0.453600
      8 C8         -4.0060    0.1900   -2.0240 ca        1 1E6     -0.244300
      9 C9         -4.0880   -1.2040   -2.0780 ca        1 1E6     -0.068000
     10 S10        -3.4760    2.5010   -0.8270 ss        1 1E6     -0.279400
     11 C11        -2.7160    2.9600    0.6940 c3        1 1E6     -0.106300
     12 C12        -1.2160    2.7310    0.7270 c         1 1E6      0.673100
     13 N15        -0.7850    1.4780    1.1370 n         1 1E6     -0.447100
     14 C16         0.5210    0.9760    1.0280 ca        1 1E6      0.054600
     15 C17         1.6530    1.8050    0.9720 ca        1 1E6     -0.130000
     16 C18         2.9410    1.2640    0.8860 ca        1 1E6     -0.008600
     17 C19         3.1210   -0.1220    0.8690 ca        1 1E6      0.091100
     18 C20         2.0130   -0.9780    0.9250 ca        1 1E6     -0.192000
     19 C21         0.7280   -0.4470    1.0060 ca        1 1E6      0.109100
     20 O22         4.3890   -0.6920    0.8940 os        1 1E6     -0.352900
     21 C23         4.9360   -0.8910   -0.4190 c3        1 1E6      0.094400
     22 C24         6.3410   -1.4460   -0.1910 c3        1 1E6      0.100100
     23 C27         7.0430   -1.6750   -1.5320 c3        1 1E6      0.136400
     24 O28         8.3580   -2.1550   -1.3450 oh        1 1E6     -0.603800
     25 CL3         4.2640    2.3350    0.8080 cl        1 1E6     -0.100400
     26 O37        -0.4020   -1.2290    1.1050 os        1 1E6     -0.329900
     27 C38        -0.2790   -2.5880    0.6840 c3        1 1E6      0.088700
     28 O43        -0.4340    3.6630    0.4490 o         1 1E6     -0.611100
     29 O44         6.2980   -2.7120    0.4550 oh        1 1E6     -0.617800
     30 H2         -3.2980   -1.8150    1.1830 h4        1 1E6      0.040100
     31 H3         -4.1940    0.8050   -2.9120 ha        1 1E6      0.132000
     32 H4         -4.3560   -1.7290   -3.0090 ha        1 1E6      0.158000
     33 H5         -2.8860    4.0670    0.7600 h1        1 1E6      0.102700
     34 H6         -3.2130    2.4760    1.5710 h1        1 1E6      0.102700
     35 H7         -1.4860    0.7790    1.2970 hn        1 1E6      0.361500
     36 H8          1.5320    2.9040    0.9790 ha        1 1E6      0.186000
     37 H9          2.1740   -2.0650    0.9090 ha        1 1E6      0.157000
     38 H10         4.2970   -1.6230   -0.9770 h1        1 1E6      0.053200
     39 H11         4.9790    0.0850   -0.9670 h1        1 1E6      0.053200
     40 H12         6.9360   -0.7320    0.4450 h1        1 1E6      0.060700
     41 H13         6.4530   -2.4010   -2.1530 h1        1 1E6      0.051200
     42 H14         7.1580   -0.7030   -2.0790 h1        1 1E6      0.051200
     43 H15         8.2940   -2.9370   -0.7800 ho        1 1E6      0.417000
     44 H16         0.2790   -3.1710    1.4550 h1        1 1E6      0.068700
     45 H17        -1.3520   -2.9380    0.6010 h1        1 1E6      0.068700
     46 H18         0.2320   -2.6560   -0.3050 h1        1 1E6      0.068700
     47 H19         5.7500   -2.6030    1.2430 ho        1 1E6      0.427000
@<TRIPOS>BOND
     1    1    2 1   
     2    1    3 1   
     3    1    4 1   
     4    2    5 ar  
     5    2    9 ar  
     6    5    6 ar  
     7    5   30 1   
     8    6    7 ar  
     9    7    8 ar  
    10    7   10 1   
    11    8    9 ar  
    12    8   31 1   
    13    9   32 1   
    14   10   11 1   
    15   11   12 1   
    16   11   33 1   
    17   11   34 1   
    18   12   13 1   
    19   12   28 2   
    20   13   14 1   
    21   13   35 1   
    22   14   15 ar  
    23   14   19 ar  
    24   15   16 ar  
    25   15   36 1   
    26   16   17 ar  
    27   16   25 1   
    28   17   18 ar  
    29   17   20 1   
    30   18   19 ar  
    31   18   37 1   
    32   19   26 1   
    33   20   21 1   
    34   21   22 1   
    35   21   38 1   
    36   21   39 1   
    37   22   23 1   
    38   22   29 1   
    39   22   40 1   
    40   23   24 1   
    41   23   41 1   
    42   23   42 1   
    43   24   43 1   
    44   26   27 1   
    45   27   44 1   
    46   27   45 1   
    47   27   46 1   
    48   29   47 1   
@<TRIPOS>SUBSTRUCTURE
     1 1E6         1 TEMP              0 ****  ****    0 ROOT
