@<TRIPOS>MOLECULE
1E6
   47    40     1     0     0
SMALL
bcc


@<TRIPOS>ATOM
      1 C1         -9.6020    0.5310   -3.0960 c1        1 1E6      0.361000
      2 C2         -8.0770    0.3140   -3.0780 c1        1 1E6     -0.177500
      3 O3        -10.1260    1.4330   -2.3620 o         1 1E6     -0.554000
      4 O4        -10.3290   -0.2160   -3.7810 o         1 1E6     -0.554000
      5 C5         -7.6080   -0.5820   -2.1410 c1        1 1E6     -0.053000
      6 N6         -6.2480   -0.7660   -1.9810 n1        1 1E6     -0.199000
      7 C7         -5.3760   -0.0660   -2.7440 c1        1 1E6     -0.177500
      8 C8         -5.8490    0.8390   -3.6890 c1        1 1E6     -0.124000
      9 C9         -7.1970    1.0210   -3.8470 c1        1 1E6     -0.124000
     10 S10        -3.5900   -0.3660   -2.5910 s         1 1E6      0.211000
     11 C11        -3.0910   -0.1320   -0.8860 c3        1 1E6     -0.322000
     12 C12        -1.5440   -0.1660   -0.7900 c2        1 1E6      0.326000
     13 N15        -0.9180   -0.6820    0.3880 n         1 1E6     -0.299000
     14 C16         0.5150   -0.5500    0.5650 c2        1 1E6      0.093000
     15 C17         1.2800    0.0520   -0.4240 c2        1 1E6     -0.154000
     16 C18         2.6510    0.0340   -0.3380 c1        1 1E6     -0.056000
     17 C19         3.2720   -0.5840    0.7370 c1        1 1E6      0.021000
     18 C20         2.5150   -1.1810    1.7200 c1        1 1E6     -0.131000
     19 C21         1.1330   -1.1650    1.6360 c1        1 1E6      0.014000
     20 O22         4.6760   -0.7180    0.7540 os        1 1E6     -0.226000
     21 C23         5.3530    0.3500    1.4330 c3        1 1E6     -0.023000
     22 C24         6.8690    0.1030    1.4050 c3        1 1E6      0.031000
     23 C27         7.5770    1.2690    2.0460 c3        1 1E6     -0.061000
     24 O28         9.0100    1.0740    1.9530 oh        1 1E6     -0.345000
     25 CL3         3.6270    0.7740   -1.6100 cl        1 1E6     -0.012000
     26 O37         0.3430   -1.8370    2.6330 o         1 1E6     -0.233000
     27 C38         0.2080   -1.0950    3.8740 c3        1 1E6     -0.080000
     28 O43        -0.8720    0.3830   -1.6420 o         1 1E6     -0.376000
     29 O44         7.2980   -0.0340    0.0840 oh        1 1E6     -0.330000
     30 H2         -8.2550   -1.1200   -1.5940 ha        1 1E6      0.182000
     31 H3         -5.2160    1.2900   -4.3020 ha        1 1E6      0.147500
     32 H4         -7.5250    1.6960   -4.4620 ha        1 1E6      0.147500
     33 H5         -3.4630   -0.8400   -0.3400 h1        1 1E6      0.152500
     34 H6         -3.4200    0.7340   -0.5650 h1        1 1E6      0.152500
     35 H7         -1.4290   -1.0510    1.0520 hn        1 1E6      0.271000
     36 H8          0.8460    0.4870   -1.1800 ha        1 1E6      0.190000
     37 H9          2.9510   -1.6820    2.4280 ha        1 1E6      0.154000
     38 H10         5.1540    1.1930    0.9910 h1        1 1E6      0.095000
     39 H11         5.0440    0.3910    2.3770 h1        1 1E6      0.095000
     40 H12         7.0700   -0.6920    1.8860 h1        1 1E6      0.103000
     41 H13         7.3130    1.3320    2.9980 h1        1 1E6      0.083000
     42 H14         7.3330    2.0800    1.5920 h1        1 1E6      0.083000
     43 H15         9.4220    1.6840    2.4380 ho        1 1E6      0.205000
     44 H16         0.0650   -0.1340    3.6720 h1        1 1E6      0.092667
     45 H17        -0.5390   -1.4320    4.3680 h1        1 1E6      0.092667
     46 H18         1.0340   -1.2010    4.4130 h1        1 1E6      0.092667
     47 H19         7.7150   -0.7710   -0.0030 ho        1 1E6      0.217000
@<TRIPOS>BOND
     1    1    3 1   
     2    1    4 1   
     3    2    9 1   
     4    5    6 1   
     5    5   30 1   
     6    7    8 1   
     7    8   31 1   
     8    9   32 1   
     9   10   11 1   
    10   11   12 1   
    11   11   33 1   
    12   11   34 1   
    13   12   13 1   
    14   12   28 1   
    15   13   14 1   
    16   13   35 1   
    17   14   15 1   
    18   14   19 1   
    19   15   16 1   
    20   15   36 1   
    21   16   25 1   
    22   17   18 1   
    23   17   20 1   
    24   18   37 1   
    25   20   21 1   
    26   21   22 1   
    27   21   38 1   
    28   21   39 1   
    29   22   23 1   
    30   22   29 1   
    31   22   40 1   
    32   23   24 1   
    33   23   41 1   
    34   23   42 1   
    35   24   43 1   
    36   26   27 1   
    37   27   44 1   
    38   27   45 1   
    39   27   46 1   
    40   29   47 1   
@<TRIPOS>SUBSTRUCTURE
     1 1E6         1 TEMP              0 ****  ****    0 ROOT
