@<TRIPOS>MOLECULE
1E6
   48    49     1     0     0
SMALL
bcc


@<TRIPOS>ATOM
      1 C1          3.6680    0.7360    4.4160 c         1 1E6      0.920200
      2 C2          4.0920    0.0990    3.0940 ca        1 1E6     -0.200900
      3 O3          4.5900    1.3190    5.0570 o         1 1E6     -0.797800
      4 O4          2.4740    0.6130    4.7720 o         1 1E6     -0.797800
      5 C5          5.2970    0.5370    2.4970 ca        1 1E6      0.430200
      6 N6          5.8500   -0.0590    1.4350 nb        1 1E6     -0.777000
      7 C7          5.2120   -1.1290    0.8890 ca        1 1E6      0.404600
      8 C8          3.9770   -1.5880    1.3740 ca        1 1E6     -0.188300
      9 C9          3.4110   -0.9570    2.4920 ca        1 1E6     -0.068000
     10 S10         5.9130   -1.9210   -0.4620 ss        1 1E6     -0.209400
     11 C11         7.5970   -2.1270    0.0060 c3        1 1E6     -0.129300
     12 C12         8.4430   -0.9300   -0.2960 c         1 1E6      0.566100
     13 N15         8.5100    0.1420    0.7550 n4        1 1E6     -0.559200
     14 C16         9.5340   -0.1280    1.7550 ca        1 1E6     -0.133400
     15 C17        10.8200   -0.5350    1.3480 ca        1 1E6     -0.055000
     16 C18        11.8200   -0.7830    2.2760 ca        1 1E6     -0.048600
     17 C19        11.5470   -0.6090    3.6610 ca        1 1E6      0.228100
     18 C20        10.2820   -0.1900    4.0790 ca        1 1E6     -0.287000
     19 C21         9.2710    0.0580    3.1390 ca        1 1E6      0.228100
     20 O22        12.5760   -0.8860    4.5180 os        1 1E6     -0.300900
     21 C23        12.3550   -0.6030    5.9120 c3        1 1E6      0.121400
     22 C24        13.7150   -0.8320    6.5810 c3        1 1E6      0.141100
     23 C27        13.5550   -1.7090    7.8280 c3        1 1E6      0.094400
     24 O28        14.8480   -1.7950    8.4030 oh        1 1E6     -0.607800
     25 CL3        13.3400   -1.2820    1.7210 cl        1 1E6     -0.036400
     26 O37         8.0180    0.4860    3.4720 os        1 1E6     -0.330900
     27 C38         7.7040    0.6170    4.8660 c3        1 1E6      0.079700
     28 O43         9.0750   -0.7210   -1.3270 o         1 1E6     -0.456100
     29 O44        14.2010    0.4530    6.9320 oh        1 1E6     -0.600800
     30 H2          5.8370    1.4000    2.9350 h4        1 1E6      0.052100
     31 H3          3.4760   -2.4400    0.8930 ha        1 1E6      0.152000
     32 H4          2.4500   -1.2910    2.9160 ha        1 1E6      0.179000
     33 H5          7.6990   -2.4200    1.0820 h1        1 1E6      0.128700
     34 H6          7.9770   -2.9770   -0.6260 h1        1 1E6      0.128700
     35 H7          7.5310    0.2050    1.2190 hn        1 1E6      0.493300
     36 H8         11.0420   -0.6590    0.2720 ha        1 1E6      0.169000
     37 H9         10.0660   -0.0450    5.1480 ha        1 1E6      0.173000
     38 H10        11.5790   -1.3090    6.3040 h1        1 1E6      0.067200
     39 H11        12.0310    0.4630    6.0400 h1        1 1E6      0.067200
     40 H12        14.4300   -1.3240    5.8620 h1        1 1E6      0.078700
     41 H13        12.8380   -1.2360    8.5510 h1        1 1E6      0.039700
     42 H14        13.1880   -2.7300    7.5430 h1        1 1E6      0.039700
     43 H15        14.7530   -2.2650    9.2400 ho        1 1E6      0.416000
     44 H16         8.3280    1.4230    5.3200 h1        1 1E6      0.087033
     45 H17         6.6060    0.9030    4.8580 h1        1 1E6      0.087033
     46 H18         7.8540   -0.3570    5.3890 h1        1 1E6      0.087033
     47 H19        15.0240    0.3130    7.4210 ho        1 1E6      0.430000
     48 H152        8.7230    1.0410    0.3110 hn        1 1E6      0.493300
@<TRIPOS>BOND
     1    1    2 1   
     2    1    3 1   
     3    1    4 1   
     4    2    5 ar  
     5    2    9 ar  
     6    5    6 ar  
     7    5   30 1   
     8    6    7 ar  
     9    7    8 ar  
    10    7   10 1   
    11    8    9 ar  
    12    8   31 1   
    13    9   32 1   
    14   10   11 1   
    15   11   12 1   
    16   11   33 1   
    17   11   34 1   
    18   12   13 1   
    19   12   28 2   
    20   13   14 1   
    21   13   35 1   
    22   13   48 1   
    23   14   15 ar  
    24   14   19 ar  
    25   15   16 ar  
    26   15   36 1   
    27   16   17 ar  
    28   16   25 1   
    29   17   18 ar  
    30   17   20 1   
    31   18   19 ar  
    32   18   37 1   
    33   19   26 1   
    34   20   21 1   
    35   21   22 1   
    36   21   38 1   
    37   21   39 1   
    38   22   23 1   
    39   22   29 1   
    40   22   40 1   
    41   23   24 1   
    42   23   41 1   
    43   23   42 1   
    44   24   43 1   
    45   26   27 1   
    46   27   44 1   
    47   27   45 1   
    48   27   46 1   
    49   29   47 1   
@<TRIPOS>SUBSTRUCTURE
     1 1E6         1 TEMP              0 ****  ****    0 ROOT
