@<TRIPOS>MOLECULE
1E6
   47    48     1     0     0
SMALL
bcc


@<TRIPOS>ATOM
      1 C1          3.6440   -1.9160    4.0020 c         1 1E6      0.915200
      2 C2          4.1160   -1.2300    2.7320 ca        1 1E6     -0.225900
      3 O3          4.2510   -1.6140    5.0710 o         1 1E6     -0.822300
      4 O4          2.7080   -2.7520    3.9170 o         1 1E6     -0.822300
      5 C5          4.6840    0.0610    2.7930 ca        1 1E6      0.421200
      6 N6          5.2370    0.6840    1.7390 nb        1 1E6     -0.712000
      7 C7          5.2610    0.0150    0.5610 ca        1 1E6      0.440600
      8 C8          4.6610   -1.2460    0.3840 ca        1 1E6     -0.240300
      9 C9          4.0750   -1.8660    1.4900 ca        1 1E6     -0.073000
     10 S10         6.0700    0.6520   -0.8150 ss        1 1E6     -0.298400
     11 C11         7.1070    1.9520   -0.2480 c3        1 1E6     -0.110300
     12 C12         8.4430    1.5840    0.3710 c         1 1E6      0.675100
     13 N15         8.4760    0.4990    1.2270 ns        1 1E6     -0.441100
     14 C16         9.5010    0.2030    2.1430 ca        1 1E6      0.024600
     15 C17        10.8440    0.5260    1.9040 ca        1 1E6     -0.103000
     16 C18        11.8440    0.1900    2.8240 ca        1 1E6     -0.025600
     17 C19        11.5140   -0.4980    3.9990 ca        1 1E6      0.130100
     18 C20        10.1790   -0.8360    4.2660 ca        1 1E6     -0.249000
     19 C21         9.1800   -0.4880    3.3610 ca        1 1E6      0.135100
     20 O22        12.5510   -0.8800    4.8350 os        1 1E6     -0.334900
     21 C23        12.2060   -0.9780    6.2220 c3        1 1E6      0.129400
     22 C24        13.5300   -0.8630    6.9840 c3        1 1E6      0.140100
     23 C27        14.4150   -2.0800    6.7040 c3        1 1E6      0.090400
     24 O28        15.6070   -1.8930    7.4540 oh        1 1E6     -0.618800
     25 Cl3        13.4490    0.6300    2.4610 cl        1 1E6     -0.098400
     26 O37         7.8500   -0.7840    3.5460 os        1 1E6     -0.322900
     27 C38         7.4640   -1.3570    4.7930 c3        1 1E6      0.089700
     28 O43         9.4560    2.2600    0.0930 o         1 1E6     -0.620100
     29 O44        13.1850   -0.7850    8.3590 oh        1 1E6     -0.602800
     30 H2          4.7120    0.5980    3.7590 h4        1 1E6      0.038100
     31 H3          4.6750   -1.7320   -0.6000 ha        1 1E6      0.132000
     32 H4          3.5950   -2.8530    1.4070 ha        1 1E6      0.156000
     33 H5          6.5790    2.6130    0.4870 h1        1 1E6      0.109700
     34 H6          7.3230    2.5570   -1.1680 h1        1 1E6      0.109700
     35 H7          7.6140    0.0230    1.4080 hn        1 1E6      0.350500
     36 H8         11.1200    1.0720    0.9840 ha        1 1E6      0.183000
     37 H9          9.9240   -1.3770    5.1880 ha        1 1E6      0.153000
     38 H10        11.7250   -1.9730    6.4090 h1        1 1E6      0.058200
     39 H11        11.5120   -0.1540    6.5290 h1        1 1E6      0.058200
     40 H12        14.0750    0.0730    6.6780 h1        1 1E6      0.062700
     41 H13        14.6360   -2.1360    5.6060 h1        1 1E6      0.045700
     42 H14        13.9040   -3.0220    7.0390 h1        1 1E6      0.045700
     43 H15        16.2040   -2.6070    7.2040 ho        1 1E6      0.405000
     44 H16         7.7780   -0.7020    5.6410 h1        1 1E6      0.068367
     45 H17         6.3350   -1.4050    4.7160 h1        1 1E6      0.068367
     46 H18         7.9040   -2.3770    4.9010 h1        1 1E6      0.068367
     47 H19        14.0170   -0.8340    8.8480 ho        1 1E6      0.419000
@<TRIPOS>BOND
     1    1    2 1   
     2    1    3 1   
     3    1    4 1   
     4    2    5 ar  
     5    2    9 ar  
     6    5    6 ar  
     7    5   30 1   
     8    6    7 ar  
     9    7    8 ar  
    10    7   10 1   
    11    8    9 ar  
    12    8   31 1   
    13    9   32 1   
    14   10   11 1   
    15   11   12 1   
    16   11   33 1   
    17   11   34 1   
    18   12   13 1   
    19   12   28 2   
    20   13   14 1   
    21   13   35 1   
    22   14   15 ar  
    23   14   19 ar  
    24   15   16 ar  
    25   15   36 1   
    26   16   17 ar  
    27   16   25 1   
    28   17   18 ar  
    29   17   20 1   
    30   18   19 ar  
    31   18   37 1   
    32   19   26 1   
    33   20   21 1   
    34   21   22 1   
    35   21   38 1   
    36   21   39 1   
    37   22   23 1   
    38   22   29 1   
    39   22   40 1   
    40   23   24 1   
    41   23   41 1   
    42   23   42 1   
    43   24   43 1   
    44   26   27 1   
    45   27   44 1   
    46   27   45 1   
    47   27   46 1   
    48   29   47 1   
@<TRIPOS>SUBSTRUCTURE
     1 1E6         1 TEMP              0 ****  ****    0 ROOT
