@<TRIPOS>MOLECULE
1E6
   47    48     1     0     0
SMALL
bcc


@<TRIPOS>ATOM
      1 C1          3.1200   -2.1840    3.6110 c         1 1E6      0.912200
      2 C2          3.8350   -1.3220    2.5810 ca        1 1E6     -0.226900
      3 O3          3.4530   -2.0350    4.8190 o         1 1E6     -0.818300
      4 O4          2.2540   -2.9980    3.1910 o         1 1E6     -0.818300
      5 C5          4.7060   -0.2910    2.9950 ca        1 1E6      0.411200
      6 N6          5.4100    0.4790    2.1470 nb        1 1E6     -0.724000
      7 C7          5.2620    0.2410    0.8230 ca        1 1E6      0.441600
      8 C8          4.3960   -0.7420    0.3080 ca        1 1E6     -0.242300
      9 C9          3.6770   -1.5310    1.2090 ca        1 1E6     -0.071000
     10 S10         6.1700    1.1100   -0.3490 ss        1 1E6     -0.299400
     11 C11         7.0000    2.3990    0.5060 c3        1 1E6     -0.110300
     12 C12         8.3300    2.0950    1.1670 c         1 1E6      0.683100
     13 N15         8.5830    0.7840    1.5340 n         1 1E6     -0.444100
     14 C16         9.6330    0.3170    2.3290 ca        1 1E6      0.087600
     15 C17        10.7230    1.1180    2.7270 ca        1 1E6     -0.152000
     16 C18        11.7380    0.5960    3.5320 ca        1 1E6      0.019400
     17 C19        11.6970   -0.7410    3.9530 ca        1 1E6      0.061100
     18 C20        10.6320   -1.5610    3.5660 ca        1 1E6     -0.130000
     19 C21         9.6190   -1.0460    2.7610 ca        1 1E6      0.062100
     20 O22        12.7470   -1.3090    4.6640 os        1 1E6     -0.347900
     21 C23        12.5990   -1.1710    6.0880 c3        1 1E6      0.092400
     22 C24        13.9610   -1.5510    6.6690 c3        1 1E6      0.100100
     23 C27        13.9030   -1.5500    8.1990 c3        1 1E6      0.136400
     24 O28        15.1440   -1.9280    8.7570 oh        1 1E6     -0.601800
     25 CL3        13.0210    1.6210    3.9850 cl        1 1E6     -0.094400
     26 O37         8.6300   -1.8940    2.2810 os        1 1E6     -0.349900
     27 C38         7.6840   -2.3040    3.2750 c3        1 1E6      0.109700
     28 O43         9.1390    3.0260    1.3560 o         1 1E6     -0.615100
     29 O44        14.9570   -0.6050    6.3070 oh        1 1E6     -0.619800
     30 H2          4.8360   -0.0980    4.0780 h4        1 1E6      0.045100
     31 H3          4.2970   -0.8820   -0.7760 ha        1 1E6      0.132000
     32 H4          2.9870   -2.3190    0.8660 ha        1 1E6      0.163000
     33 H5          7.1910    3.1840   -0.2730 h1        1 1E6      0.112200
     34 H6          6.3490    2.8510    1.3000 h1        1 1E6      0.112200
     35 H7          7.8840    0.0980    1.3110 hn        1 1E6      0.357500
     36 H8         10.7810    2.1750    2.4090 ha        1 1E6      0.191000
     37 H9         10.6020   -2.6130    3.8850 ha        1 1E6      0.157000
     38 H10        12.3340   -0.1150    6.3480 h1        1 1E6      0.053700
     39 H11        11.8010   -1.8710    6.4420 h1        1 1E6      0.053700
     40 H12        14.2700   -2.5650    6.2900 h1        1 1E6      0.060700
     41 H13        13.1710   -2.3200    8.5590 h1        1 1E6      0.051200
     42 H14        13.6080   -0.5330    8.5690 h1        1 1E6      0.051200
     43 H15        15.8140   -1.3490    8.3700 ho        1 1E6      0.416000
     44 H16         7.0710   -1.4310    3.6080 h1        1 1E6      0.054033
     45 H17         7.0470   -3.0510    2.7380 h1        1 1E6      0.054033
     46 H18         8.2060   -2.7740    4.1420 h1        1 1E6      0.054033
     47 H19        14.8650   -0.4510    5.3570 ho        1 1E6      0.429000
@<TRIPOS>BOND
     1    1    2 1   
     2    1    3 1   
     3    1    4 1   
     4    2    5 ar  
     5    2    9 ar  
     6    5    6 ar  
     7    5   30 1   
     8    6    7 ar  
     9    7    8 ar  
    10    7   10 1   
    11    8    9 ar  
    12    8   31 1   
    13    9   32 1   
    14   10   11 1   
    15   11   12 1   
    16   11   33 1   
    17   11   34 1   
    18   12   13 1   
    19   12   28 2   
    20   13   14 1   
    21   13   35 1   
    22   14   15 ar  
    23   14   19 ar  
    24   15   16 ar  
    25   15   36 1   
    26   16   17 ar  
    27   16   25 1   
    28   17   18 ar  
    29   17   20 1   
    30   18   19 ar  
    31   18   37 1   
    32   19   26 1   
    33   20   21 1   
    34   21   22 1   
    35   21   38 1   
    36   21   39 1   
    37   22   23 1   
    38   22   29 1   
    39   22   40 1   
    40   23   24 1   
    41   23   41 1   
    42   23   42 1   
    43   24   43 1   
    44   26   27 1   
    45   27   44 1   
    46   27   45 1   
    47   27   46 1   
    48   29   47 1   
@<TRIPOS>SUBSTRUCTURE
     1 1E6         1 TEMP              0 ****  ****    0 ROOT
