@<TRIPOS>MOLECULE
1E7
   35    31     1     0     0
SMALL
bcc


@<TRIPOS>ATOM
      1 C1          0.1190   -0.7280    0.6990 c1        1 1E7      0.331000
      2 N2          1.2930    0.0140    0.8600 n3        1 1E7     -0.319000
      3 C3          2.0070   -0.0560    2.0630 c2        1 1E7      0.079000
      4 O4         -0.2780   -1.4280    1.5950 o         1 1E7     -0.377000
      5 C6         -0.6050   -0.7130   -0.6210 c2        1 1E7     -0.320000
      6 S7         -1.2940    0.9150   -0.9060 ss        1 1E7      0.225000
      7 C10        -2.2900    0.8880   -2.3760 c2        1 1E7     -0.205000
      8 C11        -1.9130    1.6300   -3.4810 c1        1 1E7     -0.183000
      9 C12        -2.7070    1.6430   -4.6020 c1        1 1E7     -0.068000
     10 C13        -3.8570    0.9280   -4.6250 c1        1 1E7     -0.140000
     11 C14        -4.2350    0.1790   -3.5100 c1        1 1E7     -0.047000
     12 N15        -3.4490    0.1680   -2.4000 n2        1 1E7     -0.213000
     13 C19        -4.7060    0.9010   -5.8770 c2        1 1E7      0.362000
     14 O20        -5.5720    1.7940   -6.0690 o         1 1E7     -0.555000
     15 O21        -4.5070    0.0160   -6.7550 o         1 1E7     -0.555000
     16 C23         2.7140    1.1290    1.9410 c1        1 1E7     -0.140000
     17 C24         3.7800    1.3940    2.7930 c1        1 1E7     -0.059000
     18 C25         4.1350    0.4710    3.7670 c1        1 1E7     -0.132000
     19 C26         3.4300   -0.7120    3.8890 c1        1 1E7     -0.149000
     20 C27         2.3610   -0.9770    3.0350 c2        1 1E7      0.053000
     21 O31         1.6580   -2.2150    3.1350 os        1 1E7     -0.214000
     22 CL3         4.7200    2.8620    2.5920 cl        1 1E7     -0.022000
     23 C33         1.6270   -2.7620    4.4620 c3        1 1E7     -0.072000
     24 H1          1.5660    0.5800    0.2020 hn        1 1E7      0.268000
     25 H2          0.0220   -0.9320   -1.3400 h4        1 1E7      0.144000
     26 H3         -1.3160   -1.3650   -0.6050 h4        1 1E7      0.144000
     27 H4         -1.0860    2.1440   -3.4630 ha        1 1E7      0.131000
     28 H5         -2.4430    2.1650   -5.3800 ha        1 1E7      0.162000
     29 H6         -5.0620   -0.3350   -3.5260 ha        1 1E7      0.182000
     30 H8          2.4610    1.7830    1.2500 ha        1 1E7      0.165000
     31 H9          4.8930    0.6590    4.3730 ha        1 1E7      0.141000
     32 H10         3.6690   -1.3600    4.5990 ha        1 1E7      0.138000
     33 H11         0.7340   -3.1270    4.6450 h1        1 1E7      0.081333
     34 H12         2.3030   -3.4850    4.5380 h1        1 1E7      0.081333
     35 H13         1.8270   -2.0680    5.0990 h1        1 1E7      0.081333
@<TRIPOS>BOND
     1    1    2 1   
     2    1    4 1   
     3    2    3 1   
     4    2   24 1   
     5    3   16 1   
     6    3   20 1   
     7    5    6 1   
     8    5   25 1   
     9    5   26 1   
    10    6    7 1   
    11    7    8 1   
    12    7   12 1   
    13    8   27 1   
    14    9   10 1   
    15    9   28 1   
    16   10   13 1   
    17   11   12 1   
    18   11   29 1   
    19   13   14 1   
    20   13   15 1   
    21   16   30 1   
    22   17   18 1   
    23   17   22 1   
    24   18   31 1   
    25   19   20 1   
    26   19   32 1   
    27   20   21 1   
    28   21   23 1   
    29   23   33 1   
    30   23   34 1   
    31   23   35 1   
@<TRIPOS>SUBSTRUCTURE
     1 1E7         1 TEMP              0 ****  ****    0 ROOT
