@<TRIPOS>MOLECULE
1E7
   35    36     1     0     0
SMALL
bcc


@<TRIPOS>ATOM
      1 C1         -0.8150   -1.6340    0.8690 c         1 1E7      0.681100
      2 N2         -0.0700   -0.4940    0.6280 ns        1 1E7     -0.446100
      3 C3          1.2100   -0.1990    1.1050 ca        1 1E7      0.086600
      4 O4         -0.4670   -2.5240    1.6720 o         1 1E7     -0.616100
      5 C6         -2.1080   -1.8020    0.0950 c3        1 1E7     -0.112300
      6 S7         -3.0340   -0.3580   -0.2740 ss        1 1E7     -0.298400
      7 C10        -2.4820    0.2230   -1.7940 ca        1 1E7      0.443600
      8 C11        -3.2220    1.2920   -2.3320 ca        1 1E7     -0.244300
      9 C12        -2.8020    1.8490   -3.5420 ca        1 1E7     -0.070000
     10 C13        -1.6720    1.3310   -4.1800 ca        1 1E7     -0.226900
     11 C14        -1.0110    0.2440   -3.5680 ca        1 1E7      0.413200
     12 N15        -1.3950   -0.3060   -2.4030 nb        1 1E7     -0.725000
     13 C19        -1.1460    1.9190   -5.4800 c         1 1E7      0.912200
     14 O20        -1.8340    2.8190   -6.0350 o         1 1E7     -0.819300
     15 O21        -0.0470    1.4750   -5.9140 o         1 1E7     -0.819300
     16 C23         1.9240   -1.0300    1.9940 ca        1 1E7     -0.158000
     17 C24         3.2050   -0.6690    2.4120 ca        1 1E7      0.033400
     18 C25         3.8200    0.5050    1.9760 ca        1 1E7     -0.155000
     19 C26         3.1290    1.3410    1.1040 ca        1 1E7     -0.118000
     20 C27         1.8440    1.0080    0.6760 ca        1 1E7      0.047100
     21 O31         1.1300    1.9160   -0.0940 os        1 1E7     -0.351900
     22 Cl3         4.0420   -1.6980    3.4850 cl        1 1E7     -0.114400
     23 C33         1.4960    1.9110   -1.4780 c3        1 1E7      0.108700
     24 H1         -0.4590    0.1910    0.0050 hn        1 1E7      0.356500
     25 H2         -2.7900   -2.4310    0.7270 h1        1 1E7      0.112700
     26 H3         -1.8590   -2.3860   -0.8290 h1        1 1E7      0.112700
     27 H4         -4.1050    1.6760   -1.8050 ha        1 1E7      0.132000
     28 H5         -3.3390    2.6890   -4.0100 ha        1 1E7      0.163000
     29 H6         -0.1180   -0.1900   -4.0600 h4        1 1E7      0.045100
     30 H8          1.4750   -1.9700    2.3600 ha        1 1E7      0.187000
     31 H9          4.8320    0.7700    2.3140 ha        1 1E7      0.141000
     32 H10         3.5860    2.2760    0.7460 ha        1 1E7      0.145000
     33 H11         2.5920    2.0930   -1.5910 h1        1 1E7      0.051700
     34 H12         1.2070    0.9410   -1.9510 h1        1 1E7      0.051700
     35 H13         0.9030    2.7540   -1.9120 h1        1 1E7      0.051700
@<TRIPOS>BOND
     1    1    2 1   
     2    1    4 2   
     3    1    5 1   
     4    2    3 1   
     5    2   24 1   
     6    3   16 ar  
     7    3   20 ar  
     8    5    6 1   
     9    5   25 1   
    10    5   26 1   
    11    6    7 1   
    12    7    8 ar  
    13    7   12 ar  
    14    8    9 ar  
    15    8   27 1   
    16    9   10 ar  
    17    9   28 1   
    18   10   11 ar  
    19   10   13 1   
    20   11   12 ar  
    21   11   29 1   
    22   13   14 1   
    23   13   15 1   
    24   16   17 ar  
    25   16   30 1   
    26   17   18 ar  
    27   17   22 1   
    28   18   19 ar  
    29   18   31 1   
    30   19   20 ar  
    31   19   32 1   
    32   20   21 1   
    33   21   23 1   
    34   23   33 1   
    35   23   34 1   
    36   23   35 1   
@<TRIPOS>SUBSTRUCTURE
     1 1E7         1 TEMP              0 ****  ****    0 ROOT
