@<TRIPOS>MOLECULE
1E7
   35    36     1     0     0
SMALL
bcc


@<TRIPOS>ATOM
      1 C1         -0.7480   -1.7170    0.8030 c         1 1E7      0.681100
      2 N2         -0.0650   -0.5300    0.6060 n         1 1E7     -0.446100
      3 C3          1.1790   -0.1680    1.1320 ca        1 1E7      0.086600
      4 O4         -0.3740   -2.5990    1.6020 o         1 1E7     -0.616100
      5 C6         -2.0020   -1.9470   -0.0190 c3        1 1E7     -0.112300
      6 S7         -3.0020   -0.5540   -0.3930 ss        1 1E7     -0.298400
      7 C10        -2.4370    0.0910   -1.8810 ca        1 1E7      0.443600
      8 C11        -3.2230    1.1250   -2.4240 ca        1 1E7     -0.244300
      9 C12        -2.7980    1.7300   -3.6090 ca        1 1E7     -0.070000
     10 C13        -1.6190    1.2940   -4.2180 ca        1 1E7     -0.226900
     11 C14        -0.9140    0.2360   -3.6060 ca        1 1E7      0.413200
     12 N15        -1.3010   -0.3600   -2.4640 nb        1 1E7     -0.725000
     13 C19        -1.0880    1.9390   -5.4890 c         1 1E7      0.912200
     14 O20        -1.8120    2.8070   -6.0500 o         1 1E7     -0.819300
     15 O21         0.0490    1.5700   -5.8940 o         1 1E7     -0.819300
     16 C23         1.9100   -0.9720    2.0320 ca        1 1E7     -0.158000
     17 C24         3.1520   -0.5430    2.5000 ca        1 1E7      0.033400
     18 C25         3.7100    0.6740    2.1060 ca        1 1E7     -0.155000
     19 C26         3.0000    1.4840    1.2240 ca        1 1E7     -0.118000
     20 C27         1.7520    1.0820    0.7460 ca        1 1E7      0.047100
     21 O31         1.0110    1.9600   -0.0340 os        1 1E7     -0.350900
     22 CL3         4.0130   -1.5400    3.5850 cl        1 1E7     -0.114400
     23 C33         1.4240    2.0020   -1.4030 c3        1 1E7      0.108700
     24 H1         -0.4720    0.1420   -0.0190 hn        1 1E7      0.356500
     25 H2         -1.6870   -2.4950   -0.9450 h1        1 1E7      0.112700
     26 H3         -2.6650   -2.6280    0.5780 h1        1 1E7      0.112700
     27 H4         -4.1440    1.4440   -1.9200 ha        1 1E7      0.132000
     28 H5         -3.3700    2.5460   -4.0790 ha        1 1E7      0.163000
     29 H6          0.0180   -0.1340   -4.0760 h4        1 1E7      0.045100
     30 H8          1.5070   -1.9430    2.3660 ha        1 1E7      0.187000
     31 H9          4.6920    0.9920    2.4830 ha        1 1E7      0.141000
     32 H10         3.4120    2.4500    0.8970 ha        1 1E7      0.145000
     33 H11         2.5090    2.2510   -1.4770 h1        1 1E7      0.051700
     34 H12         0.7950    2.8170   -1.8440 h1        1 1E7      0.051700
     35 H13         1.2080    1.0260   -1.9020 h1        1 1E7      0.051700
@<TRIPOS>BOND
     1    1    2 1   
     2    1    4 2   
     3    1    5 1   
     4    2    3 1   
     5    2   24 1   
     6    3   16 ar  
     7    3   20 ar  
     8    5    6 1   
     9    5   25 1   
    10    5   26 1   
    11    6    7 1   
    12    7    8 ar  
    13    7   12 ar  
    14    8    9 ar  
    15    8   27 1   
    16    9   10 ar  
    17    9   28 1   
    18   10   11 ar  
    19   10   13 1   
    20   11   12 ar  
    21   11   29 1   
    22   13   14 1   
    23   13   15 1   
    24   16   17 ar  
    25   16   30 1   
    26   17   18 ar  
    27   17   22 1   
    28   18   19 ar  
    29   18   31 1   
    30   19   20 ar  
    31   19   32 1   
    32   20   21 1   
    33   21   23 1   
    34   23   33 1   
    35   23   34 1   
    36   23   35 1   
@<TRIPOS>SUBSTRUCTURE
     1 1E7         1 TEMP              0 ****  ****    0 ROOT
