@<TRIPOS>MOLECULE
1E7
   36    37     1     0     0
SMALL
bcc


@<TRIPOS>ATOM
      1 C1         -1.3590    1.1170    1.4670 c         1 1E7      0.659100
      2 N2         -0.2060    1.0500    0.7010 n         1 1E7     -0.480100
      3 C3          1.0050    0.4390    1.0850 ca        1 1E7      0.018600
      4 O4         -1.4430    0.6490    2.6150 o         1 1E7     -0.557100
      5 C6         -2.5630    1.7710    0.8150 c3        1 1E7     -0.139300
      6 S7         -3.5170    0.6910   -0.1970 ss        1 1E7     -0.118000
      7 C10        -2.6340    0.5770   -1.6610 ca        1 1E7     -0.031400
      8 C11        -3.0400    1.2790   -2.7990 ca        1 1E7     -0.093000
      9 C12        -2.3280    1.1490   -4.0070 ca        1 1E7     -0.032000
     10 C13        -1.2060    0.3320   -4.0460 ca        1 1E7     -0.145600
     11 C14        -0.8450   -0.3940   -2.8890 ca        1 1E7      0.012700
     12 N15        -1.5500   -0.2770   -1.7420 na        1 1E7     -0.062100
     13 C19        -0.2750    0.2230   -5.2790 c         1 1E7      0.930200
     14 O20         0.8430   -0.2990   -5.0410 o         1 1E7     -0.765300
     15 O21        -0.7240    0.6800   -6.3490 o         1 1E7     -0.765300
     16 C23         1.3850    0.3000    2.4310 ca        1 1E7     -0.108000
     17 C24         2.6050   -0.2960    2.7590 ca        1 1E7      0.004400
     18 C25         3.4730   -0.7560    1.7680 ca        1 1E7     -0.100000
     19 C26         3.1130   -0.6310    0.4290 ca        1 1E7     -0.167000
     20 C27         1.8900   -0.0540    0.0770 ca        1 1E7      0.090100
     21 O31         1.4540    0.0490   -1.2330 os        1 1E7     -0.378900
     22 CL3         3.0370   -0.4520    4.3940 cl        1 1E7     -0.078400
     23 C33         2.4600   -0.0650   -2.2440 c3        1 1E7      0.088700
     24 H1         -1.2730   -0.7880   -0.9190 hn        1 1E7      0.334700
     25 H2         -2.2760    2.7090    0.2790 h1        1 1E7      0.117700
     26 H3         -3.2780    2.0520    1.6390 h1        1 1E7      0.117700
     27 H4         -3.9180    1.9430   -2.7340 ha        1 1E7      0.179000
     28 H5         -2.6290    1.6930   -4.9210 ha        1 1E7      0.204000
     29 H6          0.0560   -1.0530   -2.9070 h4        1 1E7      0.236000
     30 H8          0.7150    0.6530    3.2350 ha        1 1E7      0.182000
     31 H9          4.4360   -1.2180    2.0350 ha        1 1E7      0.156000
     32 H10         3.7990   -0.9960   -0.3510 ha        1 1E7      0.155000
     33 H11         2.8440   -1.1130   -2.2830 h1        1 1E7      0.070700
     34 H12         3.2910    0.6540   -2.0530 h1        1 1E7      0.070700
     35 H13         1.9140    0.1850   -3.1970 h1        1 1E7      0.070700
     36 H22        -0.1600    1.5730   -0.1460 hn        1 1E7      0.326500
@<TRIPOS>BOND
     1    1    2 1   
     2    1    4 2   
     3    1    5 1   
     4    2    3 1   
     5    2   36 1   
     6    3   16 ar  
     7    3   20 ar  
     8    5    6 1   
     9    5   25 1   
    10    5   26 1   
    11    6    7 1   
    12    7    8 ar  
    13    7   12 2   
    14    8    9 ar  
    15    8   27 1   
    16    9   10 ar  
    17    9   28 1   
    18   10   11 ar  
    19   10   13 1   
    20   11   12 1   
    21   11   29 1   
    22   12   24 1   
    23   13   14 1   
    24   13   15 1   
    25   16   17 ar  
    26   16   30 1   
    27   17   18 ar  
    28   17   22 1   
    29   18   19 ar  
    30   18   31 1   
    31   19   20 ar  
    32   19   32 1   
    33   20   21 1   
    34   21   23 1   
    35   23   33 1   
    36   23   34 1   
    37   23   35 1   
@<TRIPOS>SUBSTRUCTURE
     1 1E7         1 TEMP              0 ****  ****    0 ROOT
