@<TRIPOS>MOLECULE
1E7
   35    36     1     0     0
SMALL
bcc


@<TRIPOS>ATOM
      1 C1          1.0930   -1.9500   -1.0180 c         1 1E7      0.681100
      2 N2          1.3660   -0.8050   -0.2910 n         1 1E7     -0.446100
      3 C3          2.5450   -0.0540   -0.2990 ca        1 1E7      0.086600
      4 O4          1.9460   -2.5430   -1.7100 o         1 1E7     -0.616100
      5 C6         -0.3250   -2.4850   -0.9750 c3        1 1E7     -0.112300
      6 S7         -1.2190   -2.3120    0.5240 ss        1 1E7     -0.298400
      7 C10        -2.0470   -0.8080    0.4500 ca        1 1E7      0.443600
      8 C11        -2.9480   -0.5670    1.5040 ca        1 1E7     -0.244300
      9 C12        -3.6210    0.6570    1.5350 ca        1 1E7     -0.070000
     10 C13        -3.3860    1.5950    0.5280 ca        1 1E7     -0.226900
     11 C14        -2.4790    1.2490   -0.4960 ca        1 1E7      0.413200
     12 N15        -1.8170    0.0800   -0.5460 nb        1 1E7     -0.725000
     13 C19        -4.0620    2.9580    0.5290 c         1 1E7      0.912200
     14 O20        -4.9400    3.1730    1.4080 o         1 1E7     -0.819300
     15 O21        -3.6910    3.7890   -0.3450 o         1 1E7     -0.819300
     16 C23         3.6970   -0.4150   -1.0290 ca        1 1E7     -0.158000
     17 C24         4.8300    0.3980   -0.9940 ca        1 1E7      0.033400
     18 C25         4.8700    1.5770   -0.2490 ca        1 1E7     -0.155000
     19 C26         3.7450    1.9460    0.4840 ca        1 1E7     -0.118000
     20 C27         2.6010    1.1480    0.4720 ca        1 1E7      0.047100
     21 O31         1.5390    1.4730    1.3060 os        1 1E7     -0.351900
     22 CL3         6.2050   -0.0660   -1.8910 cl        1 1E7     -0.114400
     23 C33         0.7070    2.5190    0.7960 c3        1 1E7      0.108700
     24 H1          0.6290   -0.4300    0.2780 hn        1 1E7      0.356500
     25 H2         -0.8700   -2.0290   -1.8420 h1        1 1E7      0.112700
     26 H3         -0.2630   -3.5920   -1.1510 h1        1 1E7      0.112700
     27 H4         -3.1090   -1.3250    2.2800 ha        1 1E7      0.132000
     28 H5         -4.3360    0.9040    2.3370 ha        1 1E7      0.163000
     29 H6         -2.2840    1.9730   -1.3110 h4        1 1E7      0.045100
     30 H8          3.7060   -1.3380   -1.6350 ha        1 1E7      0.187000
     31 H9          5.7700    2.2060   -0.2370 ha        1 1E7      0.141000
     32 H10         3.7470    2.8680    1.0850 ha        1 1E7      0.145000
     33 H11         1.3150    3.4300    0.5800 h1        1 1E7      0.051700
     34 H12         0.1720    2.1750   -0.1220 h1        1 1E7      0.051700
     35 H13        -0.0180    2.7090    1.6270 h1        1 1E7      0.051700
@<TRIPOS>BOND
     1    1    2 1   
     2    1    4 2   
     3    1    5 1   
     4    2    3 1   
     5    2   24 1   
     6    3   16 ar  
     7    3   20 ar  
     8    5    6 1   
     9    5   25 1   
    10    5   26 1   
    11    6    7 1   
    12    7    8 ar  
    13    7   12 ar  
    14    8    9 ar  
    15    8   27 1   
    16    9   10 ar  
    17    9   28 1   
    18   10   11 ar  
    19   10   13 1   
    20   11   12 ar  
    21   11   29 1   
    22   13   14 1   
    23   13   15 1   
    24   16   17 ar  
    25   16   30 1   
    26   17   18 ar  
    27   17   22 1   
    28   18   19 ar  
    29   18   31 1   
    30   19   20 ar  
    31   19   32 1   
    32   20   21 1   
    33   21   23 1   
    34   23   33 1   
    35   23   34 1   
    36   23   35 1   
@<TRIPOS>SUBSTRUCTURE
     1 1E7         1 TEMP              0 ****  ****    0 ROOT
