@<TRIPOS>MOLECULE
1E8
   57    84     1     0     0
SMALL
bcc


@<TRIPOS>ATOM
      1 N1          0.0000    0.0000    0.0000 na        1 1E8     -0.190000
      2 C2          1.3210    0.0000    0.0000 c2        1 1E8     -0.028000
      3 N3          2.0320    0.0000    1.1060 n2        1 1E8     -0.173000
      4 C4          1.4350    0.0010    2.2980 c2        1 1E8      0.012000
      5 C5          0.0290    0.0020    2.3480 c2        1 1E8     -0.517000
      6 C6         -0.6860    0.0010    1.1390 DU        1 1E8      0.270000
      7 NAB        -2.0680    0.0010    1.1330 nv        1 1E8     -0.212000
      8 OAC         5.4480    3.1950    4.5880 o         1 1E8     -0.310000
      9 CAD         7.2140    2.0440    5.5830 c3        1 1E8     -0.368000
     10 CAE        -6.7420   -3.2320    8.1060 c2        1 1E8     -0.113000
     11 CAF        -7.6480   -2.2370    7.7920 c2        1 1E8     -0.069000
     12 CAG        -5.4340   -3.1440    7.6660 c3        1 1E8      0.390000
     13 CAI        -7.2490   -1.1500    7.0400 c3        1 1E8     -0.008000
     14 CAJ        -5.0310   -2.0610    6.9080 c3        1 1E8     -0.224000
     15 CAK        -3.9400   -0.8870    4.3450 c3        1 1E8     -0.053000
     16 CAL        -3.3340    0.8930    5.8480 c3        1 1E8     -0.096000
     17 CAM        -2.6620   -0.8900    3.8270 c2        1 1E8     -0.261000
     18 CAN        -2.0550    0.8980    5.3310 c2        1 1E8     -0.071000
     19 CAO         5.0440   -1.2660    5.2440 DU        1 1E8      0.066000
     20 CAP         3.5680   -1.2470    4.8400 DU        1 1E8      0.349000
     21 CAQ         5.3520   -0.0300    6.0940 c3        1 1E8     -0.465000
     22 CAR         3.5720    1.2500    4.8360 DU        1 1E8      0.211000
     23 NAU         0.7810    0.0020    4.4550 n2        1 1E8     -0.167000
     24 CAY        -5.9370   -1.0580    6.5970 c3        1 1E8      0.481000
     25 CAZ        -4.2800    0.0060    5.3530 c3        1 1E8     -0.335000
     26 CBA        -1.7100    0.0040    4.3180 c3        1 1E8      0.031000
     27 CBB        -0.3350    0.0020    3.7650 c2        1 1E8      0.115000
     28 CBE         3.2830   -0.0000    4.0000 DU        1 1E8     -0.002000
     29 NBF         1.8770    0.0010    3.5870 na        1 1E8      0.258000
     30 NBG         4.9460    1.1700    5.3490 nx        1 1E8      0.080000
     31 H2          0.4870    0.0140    0.6910 DU        1 1E8      0.262000
     32 HAA         7.0280    3.1060    5.0870 DU        1 1E8      0.125000
     33 HAAA        7.7400    2.0270    5.6140 ha        1 1E8      0.235000
     34 HNAB       -1.1810    0.0010    0.6690 DU        1 1E8      0.128000
     35 HNAA       -1.2290   -0.0780    1.6740 DU        1 1E8      0.128000
     36 HAD         7.5240    1.1040    6.0230 hc        1 1E8      0.134000
     37 HAF        -6.9570   -1.9710    7.0010 DU        1 1E8      0.088000
     38 HAG        -5.0830   -2.7290    6.7290 DU        1 1E8      0.137000
     39 HAI        -6.2000   -0.8960    6.9420 hc        1 1E8     -0.263000
     40 HAJ        -6.0580   -2.1370    7.2450 DU        1 1E8     -0.003000
     41 HAK        -4.1110   -1.5840    5.1560 hc        1 1E8      0.132000
     42 HAL        -4.3610    0.6180    6.0550 DU        1 1E8      0.334000
     43 HAM        -3.1030   -1.2740    4.7390 DU        1 1E8      0.206000
     44 HAN        -2.7870    0.1910    4.9600 DU        1 1E8      0.158000
     45 HAO         4.0210   -0.9440    5.3970 DU        1 1E8     -0.002500
     46 HAOA        4.0240   -1.4370    4.9230 DU        1 1E8     -0.156000
     47 HAP         2.6350   -0.7190    4.9970 ha        1 1E8      0.262000
     48 HAPA        4.4440   -1.6720    5.3160 DU        1 1E8     -0.002500
     49 HAQ         5.4880   -0.6660    5.2280 DU        1 1E8      0.208000
     50 HAQA        4.3510   -0.4220    6.2280 hx        1 1E8     -0.018000
     51 HAR         3.4830    0.2170    4.5220 DU        1 1E8     -0.238000
     52 HARA        4.4670    0.8310    5.2780 DU        1 1E8      0.278000
     53 HBE         3.7790   -0.0250    4.9630 DU        1 1E8     -0.533000
     54 OAV        -5.5420    0.0110    5.8570 os        1 1E8     -0.085000
     55 CAW         5.8180    2.1760    5.1410 c2        1 1E8      0.263000
     56 HAE        -5.7680   -2.8980    7.7700 ha        1 1E8     -0.337000
     57 CAA         8.0970    2.9510    5.1740 c2        1 1E8     -0.038000
@<TRIPOS>BOND
     1    1    2 1   
     2    1    6 1   
     3    1   31 1   
     4    2    3 1   
     5    2   31 1   
     6    3    4 1   
     7    4    5 1   
     8    4   29 1   
     9    5    6 1   
    10    5   27 1   
    11    6    7 1   
    12    6   31 1   
    13    6   34 1   
    14    6   35 1   
    15    7   34 1   
    16    7   35 1   
    17    8   55 1   
    18    9   32 1   
    19    9   36 1   
    20    9   55 1   
    21    9   57 1   
    22   10   11 1   
    23   10   12 1   
    24   10   56 1   
    25   11   13 1   
    26   11   37 1   
    27   12   14 1   
    28   12   38 1   
    29   12   40 1   
    30   13   24 1   
    31   13   37 1   
    32   13   39 1   
    33   14   24 1   
    34   14   38 1   
    35   14   40 1   
    36   15   17 1   
    37   15   25 1   
    38   15   41 1   
    39   15   43 1   
    40   16   18 1   
    41   16   25 1   
    42   16   42 1   
    43   16   44 1   
    44   17   26 1   
    45   17   43 1   
    46   18   26 1   
    47   18   44 1   
    48   19   20 1   
    49   19   21 1   
    50   19   45 1   
    51   19   46 1   
    52   19   48 1   
    53   19   49 1   
    54   20   28 1   
    55   20   45 1   
    56   20   47 1   
    57   20   48 1   
    58   20   53 1   
    59   21   30 1   
    60   21   49 1   
    61   21   50 1   
    62   22   28 1   
    63   22   30 1   
    64   22   51 1   
    65   22   52 1   
    66   22   53 1   
    67   23   27 1   
    68   23   29 1   
    69   24   40 1   
    70   24   54 1   
    71   25   42 1   
    72   25   54 1   
    73   26   27 1   
    74   26   44 1   
    75   28   29 1   
    76   28   51 1   
    77   28   53 1   
    78   30   52 1   
    79   30   55 1   
    80   32   57 1   
    81   33   57 1   
    82   45   46 1   
    83   46   48 1   
    84   51   53 1   
@<TRIPOS>SUBSTRUCTURE
     1 1E8         1 TEMP              0 ****  ****    0 ROOT
