@<TRIPOS>MOLECULE
1E8
   60    64     1     0     0
SMALL
bcc


@<TRIPOS>ATOM
      1 CAI         1.0330    0.2230    0.8020 ca        1 1E8     -0.132500
      2 CAF         1.7680   -0.7440    1.4860 ca        1 1E8     -0.113000
      3 CAE         1.1170   -1.7650    2.1800 ca        1 1E8     -0.118000
      4 CAG        -0.2780   -1.8260    2.2000 ca        1 1E8     -0.113000
      5 CAJ        -1.0330   -0.8670    1.5270 ca        1 1E8     -0.132500
      6 CAY        -0.3640    0.1490    0.8350 ca        1 1E8      0.057100
      7 OAV        -1.0710    1.2180    0.2650 os        1 1E8     -0.237200
      8 CAZ        -1.9220    0.9170   -0.7770 ca        1 1E8      0.159100
      9 CAL        -1.9470   -0.3090   -1.4560 ca        1 1E8     -0.174500
     10 CAN        -2.8210   -0.4810   -2.5260 ca        1 1E8     -0.095000
     11 CAK        -2.7810    1.9690   -1.1580 ca        1 1E8     -0.174500
     12 CAM        -3.6460    1.7830   -2.2270 ca        1 1E8     -0.095000
     13 CBA        -3.6570    0.5670   -2.9310 ca        1 1E8     -0.196900
     14 CBB        -4.5610    0.3910   -4.0570 cc        1 1E8      0.413500
     15 NAU        -5.5650   -0.5210   -4.1280 nd        1 1E8     -0.428100
     16 C5         -4.5280    1.1600   -5.2860 ca        1 1E8     -0.432500
     17 C6         -3.7870    2.1830   -5.8950 ca        1 1E8      0.557200
     18 NAB        -2.6370    2.7630   -5.1680 n4        1 1E8     -0.833300
     19 N1         -4.0760    2.6550   -7.1280 nb        1 1E8     -0.698000
     20 C2         -5.1430    2.0710   -7.7690 ca        1 1E8      0.682900
     21 N3         -5.9440    1.0770   -7.3360 nb        1 1E8     -0.619000
     22 C4         -5.6340    0.6090   -6.0910 ca        1 1E8      0.463800
     23 NBF        -6.2020   -0.4040   -5.3030 na        1 1E8      0.042200
     24 CBE        -7.3070   -1.2780   -5.7290 c3        1 1E8      0.034000
     25 CAR        -6.8510   -2.7700   -5.8060 c3        1 1E8      0.072000
     26 CAP        -8.5280   -1.1830   -4.8040 c3        1 1E8     -0.091400
     27 CAO        -9.6260   -2.0870   -5.3290 c3        1 1E8     -0.108400
     28 CAQ        -9.1320   -3.5260   -5.5070 c3        1 1E8      0.078000
     29 NBG        -7.9120   -3.6270   -6.2750 n         1 1E8     -0.464800
     30 CAW        -7.8930   -4.0690   -7.6080 c         1 1E8      0.654100
     31 OAC        -6.9150   -3.7860   -8.3250 o         1 1E8     -0.593100
     32 CAD        -9.0270   -4.9410   -8.1070 c3        1 1E8     -0.141400
     33 CAA        -8.7000   -5.5360   -9.4540 c3        1 1E8     -0.090100
     34 H1          1.5320    1.0420    0.2640 ha        1 1E8      0.149000
     35 H2          2.8680   -0.6970    1.4800 ha        1 1E8      0.148000
     36 H3          1.7050   -2.5240    2.7180 ha        1 1E8      0.149000
     37 H4         -0.7870   -2.6290    2.7550 ha        1 1E8      0.148000
     38 H5         -2.1320   -0.8950    1.5450 ha        1 1E8      0.149000
     39 H6         -1.2910   -1.1330   -1.1330 ha        1 1E8      0.171000
     40 H7         -2.8570   -1.4490   -3.0510 ha        1 1E8      0.148500
     41 H8         -2.7710    2.9090   -0.5850 ha        1 1E8      0.171000
     42 H9         -4.3680    2.5750   -2.4840 ha        1 1E8      0.148500
     43 H10        -2.7090    3.7870   -5.1470 hn        1 1E8      0.477800
     44 H11        -2.6350    2.3890   -4.2030 hn        1 1E8      0.477800
     45 H12        -5.3600    2.4810   -8.7840 h5        1 1E8      0.099100
     46 H13        -7.5970   -0.9270   -6.7640 h1        1 1E8      0.105700
     47 H14        -5.9620   -2.8610   -6.4910 h1        1 1E8      0.082700
     48 H15        -6.5570   -3.1150   -4.7740 h1        1 1E8      0.082700
     49 H16        -8.2480   -1.4950   -3.7640 hc        1 1E8      0.064700
     50 H17        -8.9010   -0.1270   -4.7590 hc        1 1E8      0.064700
     51 H18       -10.4790   -2.0920   -4.6010 hc        1 1E8      0.064200
     52 H19       -10.0130   -1.6910   -6.3030 hc        1 1E8      0.064200
     53 H20        -9.9480   -4.1370   -5.9820 h1        1 1E8      0.064700
     54 H21        -8.9260   -3.9650   -4.4860 h1        1 1E8      0.064700
     55 H22        -9.9530   -4.3120   -8.1840 hc        1 1E8      0.068700
     56 H23        -9.2220   -5.7640   -7.3680 hc        1 1E8      0.068700
     57 H24        -7.7900   -6.1800   -9.3880 hc        1 1E8      0.051700
     58 H25        -9.5580   -6.1560   -9.8100 hc        1 1E8      0.051700
     59 H26        -8.4980   -4.7310  -10.2000 hc        1 1E8      0.051700
     60 HAB3       -1.7650    2.5000   -5.6440 hn        1 1E8      0.477800
@<TRIPOS>BOND
     1    1    2 ar  
     2    1    6 ar  
     3    1   34 1   
     4    2    3 ar  
     5    2   35 1   
     6    3    4 ar  
     7    3   36 1   
     8    4    5 ar  
     9    4   37 1   
    10    5    6 ar  
    11    5   38 1   
    12    6    7 1   
    13    7    8 1   
    14    8    9 ar  
    15    8   11 ar  
    16    9   10 ar  
    17    9   39 1   
    18   10   13 ar  
    19   10   40 1   
    20   11   12 ar  
    21   11   41 1   
    22   12   13 ar  
    23   12   42 1   
    24   13   14 1   
    25   14   15 2   
    26   14   16 1   
    27   15   23 1   
    28   16   17 ar  
    29   16   22 ar  
    30   17   18 1   
    31   17   19 ar  
    32   18   43 1   
    33   18   44 1   
    34   18   60 1   
    35   19   20 ar  
    36   20   21 ar  
    37   20   45 1   
    38   21   22 ar  
    39   22   23 1   
    40   23   24 1   
    41   24   25 1   
    42   24   26 1   
    43   24   46 1   
    44   25   29 1   
    45   25   47 1   
    46   25   48 1   
    47   26   27 1   
    48   26   49 1   
    49   26   50 1   
    50   27   28 1   
    51   27   51 1   
    52   27   52 1   
    53   28   29 1   
    54   28   53 1   
    55   28   54 1   
    56   29   30 1   
    57   30   31 2   
    58   30   32 1   
    59   32   33 1   
    60   32   55 1   
    61   32   56 1   
    62   33   57 1   
    63   33   58 1   
    64   33   59 1   
@<TRIPOS>SUBSTRUCTURE
     1 1E8         1 TEMP              0 ****  ****    0 ROOT
