@<TRIPOS>MOLECULE
1E8
   59    63     1     0     0
SMALL
bcc


@<TRIPOS>ATOM
      1 CAI         0.4310   -0.1870    0.1040 ca        1 1E8     -0.149000
      2 CAF         1.5540   -0.9160    0.4900 ca        1 1E8     -0.111000
      3 CAE         1.6590   -1.4140    1.7880 ca        1 1E8     -0.142000
      4 CAG         0.6380   -1.1880    2.7120 ca        1 1E8     -0.111000
      5 CAJ        -0.4970   -0.4670    2.3470 ca        1 1E8     -0.149000
      6 CAY        -0.5880    0.0320    1.0390 ca        1 1E8      0.095100
      7 OAV        -1.6850    0.8500    0.7730 os        1 1E8     -0.248200
      8 CAZ        -2.3320    0.6610   -0.4410 ca        1 1E8      0.122100
      9 CAL        -2.3230   -0.5450   -1.1520 ca        1 1E8     -0.171000
     10 CAN        -3.0710   -0.6490   -2.3220 ca        1 1E8     -0.085500
     11 CAK        -3.0860    1.7600   -0.8880 ca        1 1E8     -0.171000
     12 CAM        -3.8300    1.6390   -2.0570 ca        1 1E8     -0.085500
     13 CBA        -3.8170    0.4410   -2.7870 ca        1 1E8     -0.134900
     14 CBB        -4.5960    0.3230   -4.0120 cc        1 1E8      0.427500
     15 NAU        -5.5290   -0.6420   -4.2190 nd        1 1E8     -0.507100
     16 C5         -4.5080    1.1750   -5.1840 ca        1 1E8     -0.495500
     17 C6         -3.7510    2.3000   -5.6340 ca        1 1E8      0.757200
     18 NAB        -2.8250    2.8940   -4.8080 nh        1 1E8     -0.955500
     19 N1         -3.9860    2.8090   -6.8900 nb        1 1E8     -0.798000
     20 C2         -4.9500    2.2050   -7.6370 ca        1 1E8      0.695900
     21 N3         -5.7330    1.1410   -7.3510 nb        1 1E8     -0.739000
     22 C4         -5.4890    0.6250   -6.1070 ca        1 1E8      0.477800
     23 NBF        -6.0470   -0.4930   -5.4550 na        1 1E8      0.003200
     24 CBE        -7.1670   -1.2780   -5.9670 c3        1 1E8      0.053000
     25 CAR        -6.9230   -2.8080   -5.7840 c3        1 1E8      0.073000
     26 CAP        -8.5050   -0.9050   -5.3110 c3        1 1E8     -0.097400
     27 CAO        -9.6190   -1.7380   -5.9100 c3        1 1E8     -0.104400
     28 CAQ        -9.3130   -3.2340   -5.7930 c3        1 1E8      0.083000
     29 NBG        -8.0140   -3.6000   -6.3070 n         1 1E8     -0.464800
     30 CAW        -7.8450   -4.3090   -7.4990 c         1 1E8      0.652100
     31 OAC        -6.7130   -4.3870   -8.0170 o         1 1E8     -0.597100
     32 CAD        -9.0320   -5.0390   -8.0990 c3        1 1E8     -0.144400
     33 CAA        -8.6120   -5.8820   -9.2760 c3        1 1E8     -0.088100
     34 H1          0.3370    0.2110   -0.9160 ha        1 1E8      0.148500
     35 H2          2.3620   -1.0950   -0.2360 ha        1 1E8      0.137000
     36 H3          2.5500   -1.9870    2.0860 ha        1 1E8      0.136000
     37 H4          0.7250   -1.5810    3.7360 ha        1 1E8      0.137000
     38 H5         -1.3090   -0.2760    3.0630 ha        1 1E8      0.148500
     39 H6         -1.7370   -1.4000   -0.7850 ha        1 1E8      0.154000
     40 H7         -3.0790   -1.5980   -2.8820 ha        1 1E8      0.150000
     41 H8         -3.0920    2.6910   -0.3030 ha        1 1E8      0.154000
     42 H9         -4.4410    2.4860   -2.4040 ha        1 1E8      0.150000
     43 H10        -2.5450    2.3930   -3.9990 hn        1 1E8      0.439800
     44 H11        -2.2130    3.5820   -5.1740 hn        1 1E8      0.439800
     45 H12        -5.1100    2.6590   -8.6400 h5        1 1E8      0.053100
     46 H13        -7.2260   -1.0500   -7.0730 h1        1 1E8      0.096700
     47 H14        -5.9640   -3.0990   -6.2990 h1        1 1E8      0.083200
     48 H15        -6.8300   -3.0390   -4.6850 h1        1 1E8      0.083200
     49 H16        -8.7220    0.1830   -5.4720 hc        1 1E8      0.060200
     50 H17        -8.4500   -1.0840   -4.2060 hc        1 1E8      0.060200
     51 H18        -9.7680   -1.4600   -6.9850 hc        1 1E8      0.053700
     52 H19       -10.5770   -1.5280   -5.3680 hc        1 1E8      0.053700
     53 H20       -10.1260   -3.8140   -6.3080 h1        1 1E8      0.053700
     54 H21        -9.3320   -3.5170   -4.6990 h1        1 1E8      0.053700
     55 H22        -9.5030   -5.6920   -7.3160 hc        1 1E8      0.061700
     56 H23        -9.7920   -4.2810   -8.4280 hc        1 1E8      0.061700
     57 H24        -9.5020   -6.3990   -9.7090 hc        1 1E8      0.046700
     58 H25        -8.1400   -5.2460  -10.0640 hc        1 1E8      0.046700
     59 H26        -7.8640   -6.6480   -8.9610 hc        1 1E8      0.046700
@<TRIPOS>BOND
     1    1    2 ar  
     2    1    6 ar  
     3    1   34 1   
     4    2    3 ar  
     5    2   35 1   
     6    3    4 ar  
     7    3   36 1   
     8    4    5 ar  
     9    4   37 1   
    10    5    6 ar  
    11    5   38 1   
    12    6    7 1   
    13    7    8 1   
    14    8    9 ar  
    15    8   11 ar  
    16    9   10 ar  
    17    9   39 1   
    18   10   13 ar  
    19   10   40 1   
    20   11   12 ar  
    21   11   41 1   
    22   12   13 ar  
    23   12   42 1   
    24   13   14 1   
    25   14   15 2   
    26   14   16 1   
    27   15   23 1   
    28   16   17 ar  
    29   16   22 ar  
    30   17   18 1   
    31   17   19 ar  
    32   18   43 1   
    33   18   44 1   
    34   19   20 ar  
    35   20   21 ar  
    36   20   45 1   
    37   21   22 ar  
    38   22   23 1   
    39   23   24 1   
    40   24   25 1   
    41   24   26 1   
    42   24   46 1   
    43   25   29 1   
    44   25   47 1   
    45   25   48 1   
    46   26   27 1   
    47   26   49 1   
    48   26   50 1   
    49   27   28 1   
    50   27   51 1   
    51   27   52 1   
    52   28   29 1   
    53   28   53 1   
    54   28   54 1   
    55   29   30 1   
    56   30   31 2   
    57   30   32 1   
    58   32   33 1   
    59   32   55 1   
    60   32   56 1   
    61   33   57 1   
    62   33   58 1   
    63   33   59 1   
@<TRIPOS>SUBSTRUCTURE
     1 1E8         1 TEMP              0 ****  ****    0 ROOT
