@<TRIPOS>MOLECULE
1EA
   52    45     1     0     0
SMALL
bcc


@<TRIPOS>ATOM
      1 O1          0.1970    2.5080    6.0540 o         1 1EA     -0.551000
      2 C22        -0.4900    2.3140    5.0180 c1        1 1EA      0.358000
      3 O2         -1.7350    2.1360    5.1110 os        1 1EA     -0.545000
      4 C3          0.1700    2.3340    3.6590 c2        1 1EA     -0.046000
      5 C4          0.1900    3.4210    2.7940 c2        1 1EA     -0.041000
      6 C5         -0.3160    4.6670    3.2120 c2        1 1EA     -0.104000
      7 C6         -0.2950    5.7520    2.3440 c1        1 1EA      0.037000
      8 F1         -0.5560    7.0000    2.7480 f         1 1EA     -0.125000
      9 C7          0.2290    5.6070    1.0560 c2        1 1EA     -0.163000
     10 C8          0.7280    4.3800    0.6430 c1        1 1EA     -0.104000
     11 C9          0.7070    3.2790    1.5220 c1        1 1EA     -0.024000
     12 N1          1.2050    2.0550    1.1090 n1        1 1EA     -0.160000
     13 C1          1.1860    0.9820    1.9610 c1        1 1EA      0.014000
     14 C2          0.6640    1.1210    3.2480 c1        1 1EA     -0.171000
     15 C10         0.7230    0.1420    0.7780 c1        1 1EA     -0.015000
     16 C15        -0.6000   -0.3030    0.7180 c1        1 1EA     -0.099000
     17 C14        -1.0730   -0.9300   -0.4330 c1        1 1EA     -0.073000
     18 C24        -2.5560   -1.4170   -0.5020 c2        1 1EA     -0.067000
     19 C26        -2.6040   -2.9350   -0.3130 c3        1 1EA     -0.206000
     20 C25        -3.3780   -0.7320    0.6170 c3        1 1EA     -0.206000
     21 C13        -0.2270   -1.1140   -1.5240 c2        1 1EA      0.032000
     22 C12         1.0940   -0.6700   -1.4650 c1        1 1EA     -0.163000
     23 C11         1.5690   -0.0420   -0.3120 c1        1 1EA     -0.028000
     24 C23         3.0580    0.3450   -0.2040 c3        1 1EA     -0.178000
     25 O3         -0.7410   -1.6580   -2.7380 os        1 1EA     -0.164000
     26 C16         0.1690   -2.6310   -3.2480 c2        1 1EA      0.083000
     27 C21         0.6100   -2.5470   -4.5610 c2        1 1EA     -0.161000
     28 C20         1.4270   -3.5400   -5.0840 c1        1 1EA     -0.109000
     29 C19         1.8020   -4.6160   -4.2960 c1        1 1EA     -0.134500
     30 C18         1.3610   -4.7010   -2.9810 c1        1 1EA     -0.134500
     31 C17         0.5450   -3.7090   -2.4580 c1        1 1EA     -0.184000
     32 H5         -0.6600    4.7740    4.1130 ha        1 1EA      0.210000
     33 H7          0.2440    6.3680    0.4470 ha        1 1EA      0.128000
     34 H8          1.0940    4.2790   -0.2550 ha        1 1EA      0.134000
     35 H2          0.7360    0.3890    3.8810 ha        1 1EA      0.163000
     36 H15        -1.1650   -0.2580    1.5140 ha        1 1EA      0.156000
     37 H3         -2.9350   -1.1850   -1.3730 ha        1 1EA      0.100000
     38 H262       -3.4490   -3.1840    0.1060 hc        1 1EA      0.075667
     39 H261       -2.5290   -3.3750   -1.1840 hc        1 1EA      0.075667
     40 H263       -1.8630   -3.2160    0.2580 hc        1 1EA      0.075667
     41 H252       -4.3410   -0.9350    0.4910 hc        1 1EA      0.075667
     42 H251       -3.2400    0.2390    0.5770 hc        1 1EA      0.075667
     43 H4         -3.0860   -1.0670    1.4870 hc        1 1EA      0.075667
     44 H12         1.6840   -0.7970   -2.2250 ha        1 1EA      0.138000
     45 H232        3.5850   -0.1980   -0.8340 hc        1 1EA      0.089000
     46 H233        3.3710    0.1820    0.7060 hc        1 1EA      0.089000
     47 H231        3.1660    1.2920   -0.4200 hc        1 1EA      0.089000
     48 H21         0.3450   -1.7890   -5.1170 ha        1 1EA      0.144000
     49 H20         1.7380   -3.4800   -6.0120 ha        1 1EA      0.125000
     50 H19         2.3790   -5.3170   -4.6660 ha        1 1EA      0.128500
     51 H18         1.6240   -5.4560   -2.4280 ha        1 1EA      0.128500
     52 H17         0.2370   -3.7680   -1.5380 ha        1 1EA      0.158000
@<TRIPOS>BOND
     1    1    2 1   
     2    2    4 1   
     3    4    5 1   
     4    4   14 1   
     5    5    6 1   
     6    5   11 1   
     7    6    7 1   
     8    6   32 1   
     9    7    9 1   
    10    9   10 1   
    11    9   33 1   
    12   10   34 1   
    13   12   13 1   
    14   13   15 1   
    15   14   35 1   
    16   15   23 1   
    17   16   17 1   
    18   16   36 1   
    19   17   21 1   
    20   18   19 1   
    21   18   20 1   
    22   18   37 1   
    23   19   38 1   
    24   19   39 1   
    25   19   40 1   
    26   20   41 1   
    27   20   42 1   
    28   20   43 1   
    29   21   22 1   
    30   21   25 1   
    31   22   44 1   
    32   23   24 1   
    33   24   45 1   
    34   24   46 1   
    35   24   47 1   
    36   25   26 1   
    37   26   27 1   
    38   26   31 1   
    39   27   28 1   
    40   27   48 1   
    41   28   49 1   
    42   29   30 1   
    43   29   50 1   
    44   30   51 1   
    45   31   52 1   
@<TRIPOS>SUBSTRUCTURE
     1 1EA         1 TEMP              0 ****  ****    0 ROOT
