@<TRIPOS>MOLECULE
1EA
   52    55     1     0     0
SMALL
bcc


@<TRIPOS>ATOM
      1 O1          0.0980    1.3010   -0.0530 o         1 1EA     -0.812300
      2 C22         1.1200    0.5620   -0.0650 c         1 1EA      0.908200
      3 O2          1.6310    0.0300    0.9570 o         1 1EA     -0.812300
      4 C3          1.8240    0.3000   -1.3980 ca        1 1EA     -0.067600
      5 C4          1.1370    0.2140   -2.6470 ca        1 1EA     -0.106300
      6 C5         -0.2680    0.3780   -2.7490 ca        1 1EA     -0.104000
      7 C6         -0.8890    0.2700   -3.9800 ca        1 1EA      0.070900
      8 F1         -2.2350    0.4210   -4.0980 f         1 1EA     -0.159900
      9 C7         -0.1330   -0.0010   -5.1600 ca        1 1EA     -0.162000
     10 C8          1.2240   -0.1540   -5.0830 ca        1 1EA     -0.170300
     11 C9          1.9070   -0.0510   -3.8250 ca        1 1EA      0.369600
     12 N1          3.2760   -0.2070   -3.8010 nb        1 1EA     -0.688000
     13 C1          3.8880   -0.1150   -2.6180 cp        1 1EA      0.449800
     14 C2          3.1930    0.1310   -1.3930 ca        1 1EA     -0.235300
     15 C10         5.3610   -0.2420   -2.5490 cp        1 1EA     -0.120500
     16 C15         6.0720    0.7780   -1.9090 ca        1 1EA     -0.099000
     17 C14         7.4660    0.7470   -1.8020 ca        1 1EA     -0.080300
     18 C24         8.2060    1.8470   -1.1090 c3        1 1EA     -0.020400
     19 C26         7.9600    3.1810   -1.7880 c3        1 1EA     -0.088100
     20 C25         7.8170    1.9180    0.3560 c3        1 1EA     -0.088100
     21 C13         8.1350   -0.3580   -2.3530 ca        1 1EA      0.077100
     22 C12         7.4390   -1.3940   -2.9840 ca        1 1EA     -0.163000
     23 C11         6.0460   -1.3460   -3.0870 ca        1 1EA     -0.034300
     24 C23         5.3300   -2.4600   -3.7510 c3        1 1EA     -0.052800
     25 O3          9.5150   -0.4720   -2.1480 os        1 1EA     -0.253200
     26 C16        10.3080   -0.5010   -3.2860 ca        1 1EA      0.129100
     27 C21         9.8550   -0.1890   -4.5730 ca        1 1EA     -0.173500
     28 C20        10.7580   -0.2170   -5.6350 ca        1 1EA     -0.104000
     29 C19        12.0940   -0.5510   -5.4190 ca        1 1EA     -0.171000
     30 C18        12.5370   -0.8610   -4.1310 ca        1 1EA     -0.104000
     31 C17        11.6540   -0.8410   -3.0560 ca        1 1EA     -0.173500
     32 H5         -0.8370    0.6120   -1.8280 ha        1 1EA      0.210000
     33 H7         -0.6620   -0.0790   -6.1190 ha        1 1EA      0.128000
     34 H8          1.8120   -0.3580   -5.9910 ha        1 1EA      0.133000
     35 H2          3.7420    0.1650   -0.4390 ha        1 1EA      0.165000
     36 H15         5.5170    1.6270   -1.4750 ha        1 1EA      0.153000
     37 H3          9.3120    1.6240   -1.1660 hc        1 1EA      0.060700
     38 H262        8.2680    3.1360   -2.8600 hc        1 1EA      0.036033
     39 H261        8.5510    3.9810   -1.2800 hc        1 1EA      0.036033
     40 H263        6.8780    3.4550   -1.7410 hc        1 1EA      0.036033
     41 H252        8.3970    2.7250    0.8650 hc        1 1EA      0.036033
     42 H251        6.7280    2.1380    0.4650 hc        1 1EA      0.036033
     43 H4          8.0340    0.9470    0.8620 hc        1 1EA      0.036033
     44 H12         7.9990   -2.2470   -3.3960 ha        1 1EA      0.139000
     45 H232        4.4090   -2.7320   -3.1780 hc        1 1EA      0.049700
     46 H233        5.0210   -2.1560   -4.7830 hc        1 1EA      0.049700
     47 H231        5.9800   -3.3660   -3.8290 hc        1 1EA      0.049700
     48 H21         8.7990    0.0720   -4.7400 ha        1 1EA      0.151500
     49 H20        10.4080    0.0280   -6.6480 ha        1 1EA      0.128000
     50 H19        12.7990   -0.5710   -6.2610 ha        1 1EA      0.125000
     51 H18        13.5910   -1.1240   -3.9620 ha        1 1EA      0.128000
     52 H17        11.9870   -1.0810   -2.0380 ha        1 1EA      0.151500
@<TRIPOS>BOND
     1    1    2 1   
     2    2    3 1   
     3    2    4 1   
     4    4    5 ar  
     5    4   14 ar  
     6    5    6 ar  
     7    5   11 ar  
     8    6    7 ar  
     9    6   32 1   
    10    7    8 1   
    11    7    9 ar  
    12    9   10 ar  
    13    9   33 1   
    14   10   11 ar  
    15   10   34 1   
    16   11   12 ar  
    17   12   13 ar  
    18   13   14 ar  
    19   13   15 1   
    20   14   35 1   
    21   15   16 ar  
    22   15   23 ar  
    23   16   17 ar  
    24   16   36 1   
    25   17   18 1   
    26   17   21 ar  
    27   18   19 1   
    28   18   20 1   
    29   18   37 1   
    30   19   38 1   
    31   19   39 1   
    32   19   40 1   
    33   20   41 1   
    34   20   42 1   
    35   20   43 1   
    36   21   22 ar  
    37   21   25 1   
    38   22   23 ar  
    39   22   44 1   
    40   23   24 1   
    41   24   45 1   
    42   24   46 1   
    43   24   47 1   
    44   25   26 1   
    45   26   27 ar  
    46   26   31 ar  
    47   27   28 ar  
    48   27   48 1   
    49   28   29 ar  
    50   28   49 1   
    51   29   30 ar  
    52   29   50 1   
    53   30   31 ar  
    54   30   51 1   
    55   31   52 1   
@<TRIPOS>SUBSTRUCTURE
     1 1EA         1 TEMP              0 ****  ****    0 ROOT
