@<TRIPOS>MOLECULE
1EA
   52    55     1     0     0
SMALL
bcc


@<TRIPOS>ATOM
      1 O1         -5.3170   -2.4540    0.0490 o         1 1EA     -0.812300
      2 C22        -4.2930   -2.1860   -0.6360 c         1 1EA      0.908200
      3 O2         -3.8820   -2.8740   -1.6090 o         1 1EA     -0.812300
      4 C3         -3.4580   -0.9590   -0.2630 ca        1 1EA     -0.067600
      5 C4         -4.0160    0.2370    0.2810 ca        1 1EA     -0.106300
      6 C5         -5.4050    0.3770    0.5290 ca        1 1EA     -0.104000
      7 C6         -5.9010    1.5620    1.0420 ca        1 1EA      0.070900
      8 F1         -7.2290    1.7170    1.2840 f         1 1EA     -0.159900
      9 C7         -5.0280    2.6540    1.3330 ca        1 1EA     -0.162000
     10 C8         -3.6840    2.5350    1.1090 ca        1 1EA     -0.170300
     11 C9         -3.1300    1.3230    0.5760 ca        1 1EA      0.369600
     12 N1         -1.7700    1.2510    0.3730 nb        1 1EA     -0.688000
     13 C1         -1.2790    0.1160   -0.1320 cp        1 1EA      0.449800
     14 C2         -2.0950   -1.0090   -0.4680 ca        1 1EA     -0.235300
     15 C10         0.1810   -0.0190   -0.3350 cp        1 1EA     -0.120500
     16 C15         0.8160   -1.1290    0.2320 ca        1 1EA     -0.099000
     17 C14         2.1930   -1.3350    0.0990 ca        1 1EA     -0.080300
     18 C24         2.8500   -2.5320    0.7080 c3        1 1EA     -0.020400
     19 C26         2.6620   -2.5500    2.2130 c3        1 1EA     -0.088100
     20 C25         2.3170   -3.8120    0.0920 c3        1 1EA     -0.088100
     21 C13         2.9230   -0.3890   -0.6390 ca        1 1EA      0.077100
     22 C12         2.3020    0.7200   -1.2240 ca        1 1EA     -0.163000
     23 C11         0.9250    0.9150   -1.0780 ca        1 1EA     -0.034300
     24 C23         0.2890    2.0910   -1.7150 c3        1 1EA     -0.052800
     25 O3          4.2770   -0.6400   -0.8910 os        1 1EA     -0.253200
     26 C16         5.1790    0.2960   -0.4090 ca        1 1EA      0.129100
     27 C21         4.8530    1.3150    0.4940 ca        1 1EA     -0.173500
     28 C20         5.8570    2.1750    0.9360 ca        1 1EA     -0.104000
     29 C19         7.1680    2.0220    0.4870 ca        1 1EA     -0.171000
     30 C18         7.4830    1.0030   -0.4130 ca        1 1EA     -0.104000
     31 C17         6.4980    0.1340   -0.8700 ca        1 1EA     -0.173500
     32 H5         -6.0660   -0.4880    0.3210 ha        1 1EA      0.210000
     33 H7         -5.4590    3.5790    1.7400 ha        1 1EA      0.128000
     34 H8         -3.0080    3.3730    1.3360 ha        1 1EA      0.133000
     35 H2         -1.6430   -1.9090   -0.9120 ha        1 1EA      0.165000
     36 H15         0.2130   -1.8620    0.7950 ha        1 1EA      0.153000
     37 H3          3.9580   -2.4780    0.4950 hc        1 1EA      0.060700
     38 H262        1.5790   -2.6230    2.4750 hc        1 1EA      0.036033
     39 H261        3.1920   -3.4290    2.6520 hc        1 1EA      0.036033
     40 H263        3.0750   -1.6190    2.6690 hc        1 1EA      0.036033
     41 H252        1.2200   -3.9130    0.2770 hc        1 1EA      0.036033
     42 H251        2.4910   -3.8140   -1.0110 hc        1 1EA      0.036033
     43 H4          2.8360   -4.6940    0.5370 hc        1 1EA      0.036033
     44 H12         2.9070    1.4340   -1.8010 ha        1 1EA      0.139000
     45 H232        0.0810    2.8770   -0.9460 hc        1 1EA      0.049700
     46 H233        0.9510    2.5300   -2.5010 hc        1 1EA      0.049700
     47 H231       -0.6830    1.8030   -2.1890 hc        1 1EA      0.049700
     48 H21         3.8170    1.4340    0.8440 ha        1 1EA      0.151500
     49 H20         5.6080    2.9780    1.6460 ha        1 1EA      0.128000
     50 H19         7.9540    2.7040    0.8410 ha        1 1EA      0.125000
     51 H18         8.5180    0.8830   -0.7660 ha        1 1EA      0.128000
     52 H17         6.7300   -0.6740   -1.5780 ha        1 1EA      0.151500
@<TRIPOS>BOND
     1    1    2 1   
     2    2    3 1   
     3    2    4 1   
     4    4    5 ar  
     5    4   14 ar  
     6    5    6 ar  
     7    5   11 ar  
     8    6    7 ar  
     9    6   32 1   
    10    7    8 1   
    11    7    9 ar  
    12    9   10 ar  
    13    9   33 1   
    14   10   11 ar  
    15   10   34 1   
    16   11   12 ar  
    17   12   13 ar  
    18   13   14 ar  
    19   13   15 1   
    20   14   35 1   
    21   15   16 ar  
    22   15   23 ar  
    23   16   17 ar  
    24   16   36 1   
    25   17   18 1   
    26   17   21 ar  
    27   18   19 1   
    28   18   20 1   
    29   18   37 1   
    30   19   38 1   
    31   19   39 1   
    32   19   40 1   
    33   20   41 1   
    34   20   42 1   
    35   20   43 1   
    36   21   22 ar  
    37   21   25 1   
    38   22   23 ar  
    39   22   44 1   
    40   23   24 1   
    41   24   45 1   
    42   24   46 1   
    43   24   47 1   
    44   25   26 1   
    45   26   27 ar  
    46   26   31 ar  
    47   27   28 ar  
    48   27   48 1   
    49   28   29 ar  
    50   28   49 1   
    51   29   30 ar  
    52   29   50 1   
    53   30   31 ar  
    54   30   51 1   
    55   31   52 1   
@<TRIPOS>SUBSTRUCTURE
     1 1EA         1 TEMP              0 ****  ****    0 ROOT
