@<TRIPOS>MOLECULE
1EB
   25    22     1     0     0
SMALL
bcc


@<TRIPOS>ATOM
      1 C1          1.0900    0.9500   -1.5120 c1        1 1EB     -0.207000
      2 C2          2.4260    0.6610   -1.7750 c1        1 1EB     -0.036000
      3 C3          3.2070    0.0420   -0.8050 c1        1 1EB     -0.172000
      4 C4          2.6530   -0.2890    0.4280 c2        1 1EB     -0.036000
      5 C5          1.3180   -0.0010    0.6900 c1        1 1EB     -0.177000
      6 C6          0.5360    0.6190   -0.2800 c1        1 1EB      0.131000
      7 N7         -0.8200    0.9810    0.0170 n         1 1EB     -0.324000
      8 C8         -1.7580   -0.0240    0.4290 c2        1 1EB      0.345000
      9 O9         -1.4030   -1.1860    0.5270 o         1 1EB     -0.336000
     10 C10        -3.1210    0.3520    0.7790 cx        1 1EB     -0.225000
     11 C11        -3.8700   -0.8980    0.3660 cx        1 1EB     -0.178000
     12 C12        -3.4750   -0.7540    1.7520 cx        1 1EB     -0.178000
     13 N13         4.5920   -0.2030   -1.0550 n1        1 1EB      0.574000
     14 O14         5.1360    0.1200   -2.2680 os        1 1EB     -0.367000
     15 O15         5.3000   -0.6720   -0.1710 o         1 1EB     -0.362000
     16 H1          0.5380    1.3870   -2.1960 ha        1 1EB      0.143000
     17 H2          2.8160    0.8940   -2.6430 ha        1 1EB      0.170000
     18 H3          3.2040   -0.7270    1.1120 ha        1 1EB      0.173000
     19 H4          0.9280   -0.2350    1.5590 ha        1 1EB      0.187000
     20 H5         -1.0910    1.8540   -0.0710 hn        1 1EB      0.236000
     21 H6         -3.0930    1.3270    0.6690 hc        1 1EB      0.135000
     22 H7         -4.8290   -0.7790    0.1830 hc        1 1EB      0.126250
     23 H8         -3.3540   -1.5490   -0.1570 hc        1 1EB      0.126250
     24 H9         -2.7270   -1.3190    2.0410 hc        1 1EB      0.126250
     25 H10        -4.2010   -0.5490    2.3820 hc        1 1EB      0.126250
@<TRIPOS>BOND
     1    1    6 1   
     2    1   16 1   
     3    2    3 1   
     4    2   17 1   
     5    3    4 1   
     6    4    5 1   
     7    4   18 1   
     8    5   19 1   
     9    6    7 1   
    10    7    8 1   
    11    7   20 1   
    12    8    9 1   
    13    8   10 1   
    14   10   11 1   
    15   10   12 1   
    16   10   21 1   
    17   11   12 1   
    18   11   22 1   
    19   11   23 1   
    20   12   24 1   
    21   12   25 1   
    22   13   15 1   
@<TRIPOS>SUBSTRUCTURE
     1 1EB         1 TEMP              0 ****  ****    0 ROOT
