@<TRIPOS>MOLECULE
1EB
   25    26     1     0     0
SMALL
bcc


@<TRIPOS>ATOM
      1 C1          0.3130   -0.8210    0.1480 ca        1 1EB     -0.192000
      2 C2          1.6860   -1.0250    0.1680 ca        1 1EB     -0.036000
      3 C3          2.5620    0.0670    0.0580 ca        1 1EB     -0.217200
      4 C4          2.0540    1.3700   -0.0720 ca        1 1EB     -0.036000
      5 C5          0.6840    1.5740   -0.0920 ca        1 1EB     -0.192000
      6 C6         -0.2200    0.4820    0.0180 ca        1 1EB      0.123600
      7 N7         -1.5890    0.7560   -0.0080 n         1 1EB     -0.469100
      8 C8         -2.6440   -0.1540    0.0840 c         1 1EB      0.701100
      9 O9         -2.4600   -1.3770    0.2060 o         1 1EB     -0.580100
     10 C10        -4.0220    0.4330    0.0260 cx        1 1EB     -0.236700
     11 C11        -5.0990   -0.3900   -0.6430 cx        1 1EB     -0.096400
     12 C12        -5.0990   -0.2420    0.8440 cx        1 1EB     -0.096400
     13 N13         4.0260   -0.1530    0.0790 no        1 1EB      0.319200
     14 O14         4.4480   -1.2740    0.1900 o         1 1EB     -0.215000
     15 O15         4.7600    0.7950   -0.0170 o         1 1EB     -0.215000
     16 H1         -0.3530   -1.6970    0.2360 ha        1 1EB      0.165000
     17 H2          2.0870   -2.0490    0.2700 ha        1 1EB      0.171500
     18 H3          2.7430    2.2280   -0.1590 ha        1 1EB      0.171500
     19 H4          0.3060    2.6030   -0.1940 ha        1 1EB      0.165000
     20 H5         -1.8310    1.7180   -0.1040 hn        1 1EB      0.321500
     21 H6         -4.0680    1.5340   -0.0830 hc        1 1EB      0.090700
     22 H7         -5.8590    0.1390   -1.2460 hc        1 1EB      0.087700
     23 H8         -4.8160   -1.3660   -1.0800 hc        1 1EB      0.087700
     24 H9         -4.8150   -1.1140    1.4640 hc        1 1EB      0.087700
     25 H10        -5.8580    0.3940    1.3320 hc        1 1EB      0.087700
@<TRIPOS>BOND
     1    1    2 ar  
     2    1    6 ar  
     3    1   16 1   
     4    2    3 ar  
     5    2   17 1   
     6    3    4 ar  
     7    3   13 1   
     8    4    5 ar  
     9    4   18 1   
    10    5    6 ar  
    11    5   19 1   
    12    6    7 1   
    13    7    8 1   
    14    7   20 1   
    15    8    9 2   
    16    8   10 1   
    17   10   11 1   
    18   10   12 1   
    19   10   21 1   
    20   11   12 1   
    21   11   22 1   
    22   11   23 1   
    23   12   24 1   
    24   12   25 1   
    25   13   14 1   
    26   13   15 1   
@<TRIPOS>SUBSTRUCTURE
     1 1EB         1 TEMP              0 ****  ****    0 ROOT
