@<TRIPOS>MOLECULE
1EB
   25    26     1     0     0
SMALL
bcc


@<TRIPOS>ATOM
      1 C1          0.1810    0.2960   -0.0640 ca        1 1EB     -0.192000
      2 C2          1.5610    0.1700    0.0220 ca        1 1EB     -0.036000
      3 C3          2.1730   -0.0360    1.2670 ca        1 1EB     -0.217200
      4 C4          1.3940   -0.1180    2.4330 ca        1 1EB     -0.036000
      5 C5          0.0170    0.0070    2.3490 ca        1 1EB     -0.192000
      6 C6         -0.6230    0.2170    1.0970 ca        1 1EB      0.123600
      7 N7         -2.0140    0.3360    1.0810 ns        1 1EB     -0.469100
      8 C8         -2.8420    0.5330   -0.0250 c         1 1EB      0.701100
      9 O9         -2.3970    0.6280   -1.1820 o         1 1EB     -0.580100
     10 C10        -4.3100    0.6230    0.2630 cx        1 1EB     -0.236700
     11 C11        -5.1500    1.4680   -0.6670 cx        1 1EB     -0.096900
     12 C12        -5.2530   -0.0220   -0.7270 cx        1 1EB     -0.096900
     13 N13         3.6460   -0.1700    1.3560 no        1 1EB      0.319200
     14 O14         4.3010   -0.0980    0.3490 o         1 1EB     -0.215000
     15 O15         4.1520   -0.3470    2.4330 o         1 1EB     -0.215000
     16 H1         -0.2760    0.4580   -1.0560 ha        1 1EB      0.165000
     17 H2          2.1750    0.2340   -0.8940 ha        1 1EB      0.171500
     18 H3          1.8770   -0.2800    3.4130 ha        1 1EB      0.171500
     19 H4         -0.5750   -0.0590    3.2750 ha        1 1EB      0.165000
     20 H5         -2.4600    0.2650    1.9700 hn        1 1EB      0.321500
     21 H6         -4.5880    0.6010    1.3350 hc        1 1EB      0.090700
     22 H7         -5.9760    2.0580   -0.2330 hc        1 1EB      0.087450
     23 H8         -4.6400    1.9980   -1.4940 hc        1 1EB      0.087450
     24 H9         -4.8180   -0.5490   -1.5970 hc        1 1EB      0.087450
     25 H10        -6.1550   -0.5250   -0.3350 hc        1 1EB      0.087450
@<TRIPOS>BOND
     1    1    2 ar  
     2    1    6 ar  
     3    1   16 1   
     4    2    3 ar  
     5    2   17 1   
     6    3    4 ar  
     7    3   13 1   
     8    4    5 ar  
     9    4   18 1   
    10    5    6 ar  
    11    5   19 1   
    12    6    7 1   
    13    7    8 1   
    14    7   20 1   
    15    8    9 2   
    16    8   10 1   
    17   10   11 1   
    18   10   12 1   
    19   10   21 1   
    20   11   12 1   
    21   11   22 1   
    22   11   23 1   
    23   12   24 1   
    24   12   25 1   
    25   13   14 1   
    26   13   15 1   
@<TRIPOS>SUBSTRUCTURE
     1 1EB         1 TEMP              0 ****  ****    0 ROOT
