@<TRIPOS>MOLECULE
1EB
   25    26     1     0     0
SMALL
bcc


@<TRIPOS>ATOM
      1 C1          0.1940    0.2470   -0.0700 ca        1 1EB     -0.192000
      2 C2          1.5750    0.1240    0.0100 ca        1 1EB     -0.036000
      3 C3          2.1960   -0.0410    1.2580 ca        1 1EB     -0.217200
      4 C4          1.4250   -0.0830    2.4310 ca        1 1EB     -0.036000
      5 C5          0.0480    0.0390    2.3530 ca        1 1EB     -0.192000
      6 C6         -0.6010    0.2070    1.0990 ca        1 1EB      0.123600
      7 N7         -1.9920    0.3250    1.0890 n         1 1EB     -0.469100
      8 C8         -2.8280    0.4960   -0.0170 c         1 1EB      0.701100
      9 O9         -2.3890    0.5650   -1.1790 o         1 1EB     -0.580100
     10 C10        -4.2930    0.5920    0.2770 cx        1 1EB     -0.236700
     11 C11        -5.1210    1.4980   -0.6050 cx        1 1EB     -0.096400
     12 C12        -5.2460    0.0150   -0.7450 cx        1 1EB     -0.096400
     13 N13         3.6690   -0.1720    1.3400 no        1 1EB      0.319200
     14 O14         4.3170   -0.1350    0.3280 o         1 1EB     -0.215000
     15 O15         4.1830   -0.3130    2.4190 o         1 1EB     -0.215000
     16 H1         -0.2690    0.3760   -1.0630 ha        1 1EB      0.165000
     17 H2          2.1820    0.1570   -0.9120 ha        1 1EB      0.171500
     18 H3          1.9150   -0.2130    3.4120 ha        1 1EB      0.171500
     19 H4         -0.5380    0.0040    3.2840 ha        1 1EB      0.165000
     20 H5         -2.4320    0.2810    1.9820 hn        1 1EB      0.321500
     21 H6         -4.5720    0.5140    1.3460 hc        1 1EB      0.090700
     22 H7         -4.6040    2.0640   -1.4030 hc        1 1EB      0.087700
     23 H8         -5.9380    2.0750   -0.1380 hc        1 1EB      0.087700
     24 H9         -4.8180   -0.4710   -1.6420 hc        1 1EB      0.087700
     25 H10        -6.1550   -0.4950   -0.3810 hc        1 1EB      0.087700
@<TRIPOS>BOND
     1    1    2 ar  
     2    1    6 ar  
     3    1   16 1   
     4    2    3 ar  
     5    2   17 1   
     6    3    4 ar  
     7    3   13 1   
     8    4    5 ar  
     9    4   18 1   
    10    5    6 ar  
    11    5   19 1   
    12    6    7 1   
    13    7    8 1   
    14    7   20 1   
    15    8    9 2   
    16    8   10 1   
    17   10   11 1   
    18   10   12 1   
    19   10   21 1   
    20   11   12 1   
    21   11   22 1   
    22   11   23 1   
    23   12   24 1   
    24   12   25 1   
    25   13   14 1   
    26   13   15 1   
@<TRIPOS>SUBSTRUCTURE
     1 1EB         1 TEMP              0 ****  ****    0 ROOT
