@<TRIPOS>MOLECULE
1EB
   25    26     1     0     0
SMALL
bcc


@<TRIPOS>ATOM
      1 C1          0.1790    0.2880   -0.0680 ca        1 1EB     -0.192000
      2 C2          1.5590    0.1610    0.0140 ca        1 1EB     -0.036000
      3 C3          2.1750   -0.0350    1.2600 ca        1 1EB     -0.217200
      4 C4          1.3990   -0.1040    2.4290 ca        1 1EB     -0.036000
      5 C5          0.0230    0.0220    2.3480 ca        1 1EB     -0.192000
      6 C6         -0.6210    0.2210    1.0960 ca        1 1EB      0.123600
      7 N7         -2.0120    0.3420    1.0840 n         1 1EB     -0.469100
      8 C8         -2.8440    0.5300   -0.0220 c         1 1EB      0.701100
      9 O9         -2.4020    0.6130   -1.1810 o         1 1EB     -0.580100
     10 C10        -4.3100    0.6250    0.2700 cx        1 1EB     -0.236700
     11 C11        -5.1520    1.4620   -0.6660 cx        1 1EB     -0.096900
     12 C12        -5.2580   -0.0290   -0.7110 cx        1 1EB     -0.096900
     13 N13         3.6470   -0.1700    1.3450 no        1 1EB      0.319200
     14 O14         4.2990   -0.1090    0.3360 o         1 1EB     -0.215000
     15 O15         4.1570   -0.3370    2.4210 o         1 1EB     -0.215000
     16 H1         -0.2810    0.4410   -1.0600 ha        1 1EB      0.165000
     17 H2          2.1700    0.2150   -0.9040 ha        1 1EB      0.171500
     18 H3          1.8850   -0.2580    3.4090 ha        1 1EB      0.171500
     19 H4         -0.5670   -0.0350    3.2760 ha        1 1EB      0.165000
     20 H5         -2.4550    0.2800    1.9750 hn        1 1EB      0.321500
     21 H6         -4.5850    0.6140    1.3430 hc        1 1EB      0.090700
     22 H7         -5.9760    2.0570   -0.2340 hc        1 1EB      0.087450
     23 H8         -4.6440    1.9830   -1.5000 hc        1 1EB      0.087450
     24 H9         -4.8260   -0.5650   -1.5770 hc        1 1EB      0.087450
     25 H10        -6.1590   -0.5260   -0.3110 hc        1 1EB      0.087450
@<TRIPOS>BOND
     1    1    2 ar  
     2    1    6 ar  
     3    1   16 1   
     4    2    3 ar  
     5    2   17 1   
     6    3    4 ar  
     7    3   13 1   
     8    4    5 ar  
     9    4   18 1   
    10    5    6 ar  
    11    5   19 1   
    12    6    7 1   
    13    7    8 1   
    14    7   20 1   
    15    8    9 2   
    16    8   10 1   
    17   10   11 1   
    18   10   12 1   
    19   10   21 1   
    20   11   12 1   
    21   11   22 1   
    22   11   23 1   
    23   12   24 1   
    24   12   25 1   
    25   13   14 1   
    26   13   15 1   
@<TRIPOS>SUBSTRUCTURE
     1 1EB         1 TEMP              0 ****  ****    0 ROOT
