@<TRIPOS>MOLECULE
1ED
   41    43     1     0     0
SMALL
bcc


@<TRIPOS>ATOM
      1 OB         -0.0420    0.6000    0.1820 o         1 1ED     -0.636500
      2 CB          1.1850    0.3980    0.1020 c         1 1ED      0.688500
      3 CAB         2.0100    0.1950    1.3820 c3        1 1ED      0.040700
      4 CBB         1.8740    1.4780    2.2310 c3        1 1ED     -0.052100
      5 CGB         2.4340    1.2860    3.5940 ca        1 1ED     -0.133300
      6 CD4         3.7750    1.5810    3.8590 ca        1 1ED     -0.090000
      7 CE4         4.3020    1.4080    5.1360 ca        1 1ED     -0.182500
      8 CZB         3.4710    0.9340    6.1610 ca        1 1ED      0.129100
      9 OHB         3.9150    0.7360    7.4470 oh        1 1ED     -0.494100
     10 CE3         2.1200    0.6350    5.9120 ca        1 1ED     -0.182500
     11 CD3         1.6150    0.8150    4.6300 ca        1 1ED     -0.090000
     12 NB          3.3740   -0.2100    1.1620 n         1 1ED     -0.556900
     13 CA          4.0210   -0.0850   -0.0450 c         1 1ED      0.688500
     14 OA          5.2470   -0.2960   -0.1260 o         1 1ED     -0.637500
     15 NA          1.7940    0.3050   -1.1280 n         1 1ED     -0.556900
     16 CAA         3.2200    0.2580   -1.3110 c3        1 1ED      0.041700
     17 CBA         3.8140    1.5580   -1.8970 c3        1 1ED     -0.058100
     18 CGA         3.2760    1.8310   -3.2560 ca        1 1ED     -0.096300
     19 CD1         2.1170    2.5990   -3.4200 ca        1 1ED     -0.127000
     20 CE1         1.6200    2.8570   -4.6960 ca        1 1ED     -0.126000
     21 CZA         2.2760    2.3500   -5.8180 ca        1 1ED     -0.125000
     22 CE2         3.4320    1.5860   -5.6610 ca        1 1ED     -0.126000
     23 CD2         3.9310    1.3260   -4.3860 ca        1 1ED     -0.127000
     24 H1          1.4980   -0.6460    1.9490 h1        1 1ED      0.092700
     25 H2          2.3880    2.3330    1.7180 hc        1 1ED      0.071200
     26 H3          0.7780    1.7240    2.2900 hc        1 1ED      0.071200
     27 H4          4.4230    1.9600    3.0540 ha        1 1ED      0.139000
     28 H5          5.3560    1.6420    5.3390 ha        1 1ED      0.146000
     29 H6          4.8510    0.9820    7.4820 ho        1 1ED      0.421000
     30 H7          1.4860    0.2680    6.7310 ha        1 1ED      0.146000
     31 H8          0.5570    0.5870    4.4260 ha        1 1ED      0.139000
     32 H9          3.9240   -0.3550    1.9820 hn        1 1ED      0.333500
     33 H10         1.2560    0.5230   -1.9400 hn        1 1ED      0.334500
     34 H11         3.4370   -0.5790   -2.0480 h1        1 1ED      0.092700
     35 H12         3.5960    2.4210   -1.2140 hc        1 1ED      0.072700
     36 H13         4.9300    1.4280   -1.9380 hc        1 1ED      0.072700
     37 H14         1.6000    3.0090   -2.5380 ha        1 1ED      0.136000
     38 H15         0.7100    3.4630   -4.8170 ha        1 1ED      0.135500
     39 H16         1.8830    2.5550   -6.8250 ha        1 1ED      0.135000
     40 H17         3.9520    1.1870   -6.5440 ha        1 1ED      0.135500
     41 H18         4.8450    0.7250   -4.2640 ha        1 1ED      0.136000
@<TRIPOS>BOND
     1    1    2 2   
     2    2    3 1   
     3    2   15 1   
     4    3    4 1   
     5    3   12 1   
     6    3   24 1   
     7    4    5 1   
     8    4   25 1   
     9    4   26 1   
    10    5    6 ar  
    11    5   11 ar  
    12    6    7 ar  
    13    6   27 1   
    14    7    8 ar  
    15    7   28 1   
    16    8    9 1   
    17    8   10 ar  
    18    9   29 1   
    19   10   11 ar  
    20   10   30 1   
    21   11   31 1   
    22   12   13 1   
    23   12   32 1   
    24   13   14 2   
    25   13   16 1   
    26   15   16 1   
    27   15   33 1   
    28   16   17 1   
    29   16   34 1   
    30   17   18 1   
    31   17   35 1   
    32   17   36 1   
    33   18   19 ar  
    34   18   23 ar  
    35   19   20 ar  
    36   19   37 1   
    37   20   21 ar  
    38   20   38 1   
    39   21   22 ar  
    40   21   39 1   
    41   22   23 ar  
    42   22   40 1   
    43   23   41 1   
@<TRIPOS>SUBSTRUCTURE
     1 1ED         1 TEMP              0 ****  ****    0 ROOT
