@<TRIPOS>MOLECULE
1ED
   41    43     1     0     0
SMALL
bcc


@<TRIPOS>ATOM
      1 OB          0.4110   -2.7700    0.7910 o         1 1ED     -0.636500
      2 CB          0.4070   -1.5240    0.8210 c         1 1ED      0.688500
      3 CAB        -0.9290   -0.7640    0.8090 c3        1 1ED      0.040700
      4 CBB        -1.6630   -1.1390   -0.4970 c3        1 1ED     -0.052100
      5 CGB        -3.0660   -0.6490   -0.4860 ca        1 1ED     -0.133300
      6 CD4        -3.3810    0.6150   -0.9960 ca        1 1ED     -0.090000
      7 CE4        -4.6960    1.0750   -0.9930 ca        1 1ED     -0.182500
      8 CZB        -5.7070    0.2550   -0.4730 ca        1 1ED      0.129100
      9 OHB        -7.0280    0.6360   -0.4350 oh        1 1ED     -0.494100
     10 CE3        -5.4080   -1.0190    0.0390 ca        1 1ED     -0.182500
     11 CD3        -4.0900   -1.4590    0.0270 ca        1 1ED     -0.090000
     12 NB         -0.8180    0.6540    1.0230 n         1 1ED     -0.556900
     13 CA          0.3590    1.3550    0.8970 c         1 1ED      0.688500
     14 OA          0.3540    2.6010    0.9300 o         1 1ED     -0.637500
     15 NA          1.5900   -0.8290    0.9190 n         1 1ED     -0.556900
     16 CAA         1.6920    0.5990    0.7760 c3        1 1ED      0.041700
     17 CBA         2.3590    1.0450   -0.5440 c3        1 1ED     -0.058100
     18 CGA         3.7640    0.5640   -0.6250 ca        1 1ED     -0.096300
     19 CD1         4.0580   -0.6750   -1.2060 ca        1 1ED     -0.127000
     20 CE1         5.3770   -1.1180   -1.2850 ca        1 1ED     -0.126000
     21 CZA         6.4120   -0.3280   -0.7850 ca        1 1ED     -0.125000
     22 CE2         6.1250    0.9090   -0.2080 ca        1 1ED     -0.126000
     23 CD2         4.8070    1.3550   -0.1270 ca        1 1ED     -0.127000
     24 H1         -1.5320   -1.1880    1.6740 h1        1 1ED      0.092700
     25 H2         -1.1130   -0.7190   -1.3800 hc        1 1ED      0.071700
     26 H3         -1.6420   -2.2600   -0.5830 hc        1 1ED      0.071700
     27 H4         -2.5860    1.2540   -1.4090 ha        1 1ED      0.139000
     28 H5         -4.9380    2.0690   -1.3940 ha        1 1ED      0.146000
     29 H6         -7.0950    1.5230   -0.8190 ho        1 1ED      0.421000
     30 H7         -6.2160   -1.6470    0.4390 ha        1 1ED      0.146000
     31 H8         -3.8460   -2.4570    0.4240 ha        1 1ED      0.139000
     32 H9         -1.6750    1.1640    1.0210 hn        1 1ED      0.333500
     33 H10         2.4450   -1.3370    0.8410 hn        1 1ED      0.334500
     34 H11         2.3380    0.9770    1.6300 h1        1 1ED      0.092700
     35 H12         1.7690    0.6660   -1.4190 hc        1 1ED      0.072700
     36 H13         2.3290    2.1680   -0.5720 hc        1 1ED      0.072700
     37 H14         3.2450   -1.2990   -1.6080 ha        1 1ED      0.136000
     38 H15         5.6010   -2.0930   -1.7430 ha        1 1ED      0.135500
     39 H16         7.4530   -0.6780   -0.8490 ha        1 1ED      0.135000
     40 H17         6.9400    1.5360    0.1840 ha        1 1ED      0.135500
     41 H18         4.5830    2.3320    0.3260 ha        1 1ED      0.136000
@<TRIPOS>BOND
     1    1    2 2   
     2    2    3 1   
     3    2   15 1   
     4    3    4 1   
     5    3   12 1   
     6    3   24 1   
     7    4    5 1   
     8    4   25 1   
     9    4   26 1   
    10    5    6 ar  
    11    5   11 ar  
    12    6    7 ar  
    13    6   27 1   
    14    7    8 ar  
    15    7   28 1   
    16    8    9 1   
    17    8   10 ar  
    18    9   29 1   
    19   10   11 ar  
    20   10   30 1   
    21   11   31 1   
    22   12   13 1   
    23   12   32 1   
    24   13   14 2   
    25   13   16 1   
    26   15   16 1   
    27   15   33 1   
    28   16   17 1   
    29   16   34 1   
    30   17   18 1   
    31   17   35 1   
    32   17   36 1   
    33   18   19 ar  
    34   18   23 ar  
    35   19   20 ar  
    36   19   37 1   
    37   20   21 ar  
    38   20   38 1   
    39   21   22 ar  
    40   21   39 1   
    41   22   23 ar  
    42   22   40 1   
    43   23   41 1   
@<TRIPOS>SUBSTRUCTURE
     1 1ED         1 TEMP              0 ****  ****    0 ROOT
