@<TRIPOS>MOLECULE
1ED
   41    43     1     0     0
SMALL
bcc


@<TRIPOS>ATOM
      1 OB         -0.0240    0.5610    0.1890 o         1 1ED     -0.636500
      2 CB          1.2090    0.3960    0.1150 c         1 1ED      0.688500
      3 CAB         2.0370    0.2380    1.4000 c3        1 1ED      0.040700
      4 CBB         1.8510    1.5260    2.2330 c3        1 1ED     -0.052100
      5 CGB         2.4110    1.3690    3.6000 ca        1 1ED     -0.133300
      6 CD4         3.7400    1.7160    3.8670 ca        1 1ED     -0.090000
      7 CE4         4.2660    1.5770    5.1490 ca        1 1ED     -0.182500
      8 CZB         3.4490    1.0850    6.1760 ca        1 1ED      0.129100
      9 OHB         3.8940    0.9180    7.4660 oh        1 1ED     -0.494100
     10 CE3         2.1110    0.7340    5.9240 ca        1 1ED     -0.182500
     11 CD3         1.6050    0.8810    4.6380 ca        1 1ED     -0.090000
     12 NB          3.4150   -0.1200    1.1900 ns        1 1ED     -0.556900
     13 CA          4.0600    0.0070   -0.0180 c         1 1ED      0.688500
     14 OA          5.2930   -0.1610   -0.0910 o         1 1ED     -0.637500
     15 NA          1.8240    0.3020   -1.1120 ns        1 1ED     -0.556900
     16 CAA         3.2520    0.2970   -1.2920 c3        1 1ED      0.041700
     17 CBA         3.8050    1.6020   -1.9050 c3        1 1ED     -0.058100
     18 CGA         3.2610    1.8270   -3.2710 ca        1 1ED     -0.096300
     19 CD1         2.0800    2.5560   -3.4530 ca        1 1ED     -0.127000
     20 CE1         1.5770    2.7700   -4.7360 ca        1 1ED     -0.126000
     21 CZA         2.2490    2.2580   -5.8450 ca        1 1ED     -0.125000
     22 CE2         3.4280    1.5320   -5.6690 ca        1 1ED     -0.126000
     23 CD2         3.9330    1.3170   -4.3880 ca        1 1ED     -0.127000
     24 H1          1.5530   -0.6140    1.9750 h1        1 1ED      0.092700
     25 H2          2.3360    2.3920    1.7120 hc        1 1ED      0.071700
     26 H3          0.7470    1.7340    2.2850 hc        1 1ED      0.071700
     27 H4          4.3770    2.1100    3.0600 ha        1 1ED      0.139000
     28 H5          5.3110    1.8520    5.3530 ha        1 1ED      0.146000
     29 H6          4.8210    1.1980    7.5020 ho        1 1ED      0.421000
     30 H7          1.4860    0.3530    6.7450 ha        1 1ED      0.146000
     31 H8          0.5570    0.6120    4.4330 ha        1 1ED      0.139000
     32 H9          3.9670   -0.2300    2.0130 hn        1 1ED      0.333500
     33 H10         1.2820    0.4900   -1.9290 hn        1 1ED      0.334500
     34 H11         3.4960   -0.5490   -2.0100 h1        1 1ED      0.092700
     35 H12         4.9240    1.5060   -1.9430 hc        1 1ED      0.072700
     36 H13         3.5580    2.4720   -1.2420 hc        1 1ED      0.072700
     37 H14         1.5500    2.9690   -2.5810 ha        1 1ED      0.136000
     38 H15         0.6490    3.3450   -4.8710 ha        1 1ED      0.135500
     39 H16         1.8530    2.4280   -6.8570 ha        1 1ED      0.135000
     40 H17         3.9620    1.1300   -6.5430 ha        1 1ED      0.135500
     41 H18         4.8640    0.7470   -4.2520 ha        1 1ED      0.136000
@<TRIPOS>BOND
     1    1    2 2   
     2    2    3 1   
     3    2   15 1   
     4    3    4 1   
     5    3   12 1   
     6    3   24 1   
     7    4    5 1   
     8    4   25 1   
     9    4   26 1   
    10    5    6 ar  
    11    5   11 ar  
    12    6    7 ar  
    13    6   27 1   
    14    7    8 ar  
    15    7   28 1   
    16    8    9 1   
    17    8   10 ar  
    18    9   29 1   
    19   10   11 ar  
    20   10   30 1   
    21   11   31 1   
    22   12   13 1   
    23   12   32 1   
    24   13   14 2   
    25   13   16 1   
    26   15   16 1   
    27   15   33 1   
    28   16   17 1   
    29   16   34 1   
    30   17   18 1   
    31   17   35 1   
    32   17   36 1   
    33   18   19 ar  
    34   18   23 ar  
    35   19   20 ar  
    36   19   37 1   
    37   20   21 ar  
    38   20   38 1   
    39   21   22 ar  
    40   21   39 1   
    41   22   23 ar  
    42   22   40 1   
    43   23   41 1   
@<TRIPOS>SUBSTRUCTURE
     1 1ED         1 TEMP              0 ****  ****    0 ROOT
