@<TRIPOS>MOLECULE
1ED
   41    35     1     0     0
SMALL
bcc


@<TRIPOS>ATOM
      1 OB         -1.6900   -2.4540   -1.2350 o         1 1ED     -0.362000
      2 CB         -0.5230   -2.1240   -1.3950 c1        1 1ED      0.296000
      3 CAB         0.4270   -2.0660   -0.1950 c2        1 1ED      0.015000
      4 CBB         0.1950   -0.7630    0.6490 c3        1 1ED     -0.138000
      5 CGB        -0.2280   -1.1580    2.1090 c1        1 1ED     -0.126000
      6 CD4         0.7170   -1.6870    2.9880 c1        1 1ED     -0.125000
      7 CE4         0.3680   -1.9460    4.3120 c1        1 1ED     -0.125000
      8 CZB        -0.9230   -1.6760    4.7570 c1        1 1ED      0.084000
      9 OHB        -1.3130   -2.0630    6.0590 o         1 1ED     -0.248000
     10 CE3        -1.8640   -1.1490    3.8810 c1        1 1ED     -0.211000
     11 CD3        -1.5160   -0.8890    2.5550 c1        1 1ED     -0.082000
     12 NB          1.7900   -2.2000   -0.6350 n         1 1ED     -0.366000
     13 CA          2.1470   -1.3050   -1.6950 c2        1 1ED      0.296000
     14 OA          3.3000   -0.9260   -1.8130 o         1 1ED     -0.361000
     15 NA         -0.1690   -1.2240   -2.4540 n3        1 1ED     -0.366000
     16 CAA         0.9930   -0.4160   -2.1660 c3        1 1ED      0.015000
     17 CBA         0.6920    0.7090   -1.1310 c3        1 1ED     -0.144000
     18 CGA         0.2140    1.9810   -1.8740 c1        1 1ED     -0.089000
     19 CD1         1.1270    2.7800   -2.5290 c1        1 1ED     -0.125000
     20 CE1         0.7040    3.9500   -3.1600 c1        1 1ED     -0.125000
     21 CZA        -0.6320    4.3080   -3.1290 c1        1 1ED     -0.125000
     22 CE2        -1.5500    3.5040   -2.4710 c1        1 1ED     -0.125000
     23 CD2        -1.1280    2.3410   -1.8430 c1        1 1ED     -0.133000
     24 H1          0.2070   -2.7650    0.4720 h4        1 1ED      0.131000
     25 H2          1.0230   -0.2410    0.6780 hc        1 1ED      0.111000
     26 H3         -0.5160   -0.2270    0.2350 hc        1 1ED      0.111000
     27 H4          1.6240   -1.8760    2.6750 ha        1 1ED      0.139500
     28 H5          1.0250   -2.3130    4.9230 ha        1 1ED      0.139500
     29 H6         -2.1680   -2.3460    6.0440 ho        1 1ED      0.220000
     30 H7         -2.7720   -0.9600    4.1950 ha        1 1ED      0.137000
     31 H8         -2.1670   -0.5260    1.9520 ha        1 1ED      0.140000
     32 H9          2.4270   -2.5090   -0.0620 hn        1 1ED      0.247000
     33 H10        -0.8060   -0.9160   -3.0180 hn        1 1ED      0.248000
     34 H11         1.2500    0.1200   -2.9580 h1        1 1ED      0.132000
     35 H12         0.0030    0.4130   -0.5260 hc        1 1ED      0.112000
     36 H13         1.5100    0.9150   -0.6220 hc        1 1ED      0.112000
     37 H14         2.0740    2.5260   -2.5500 ha        1 1ED      0.139500
     38 H15         1.3430    4.5100   -3.6190 ha        1 1ED      0.139500
     39 H16        -0.9300    5.1280   -3.5710 ha        1 1ED      0.139500
     40 H17        -2.5010    3.7580   -2.4490 ha        1 1ED      0.139500
     41 H18        -1.7670    1.7820   -1.3840 ha        1 1ED      0.134000
@<TRIPOS>BOND
     1    1    2 1   
     2    2   15 1   
     3    3    4 1   
     4    3   12 1   
     5    3   24 1   
     6    4    5 1   
     7    4   25 1   
     8    4   26 1   
     9    5   11 1   
    10    6    7 1   
    11    6   27 1   
    12    7   28 1   
    13    8   10 1   
    14    9   29 1   
    15   10   30 1   
    16   11   31 1   
    17   12   13 1   
    18   12   32 1   
    19   13   14 1   
    20   13   16 1   
    21   15   16 1   
    22   15   33 1   
    23   16   17 1   
    24   16   34 1   
    25   17   18 1   
    26   17   35 1   
    27   17   36 1   
    28   18   23 1   
    29   19   20 1   
    30   19   37 1   
    31   20   38 1   
    32   21   22 1   
    33   21   39 1   
    34   22   40 1   
    35   23   41 1   
@<TRIPOS>SUBSTRUCTURE
     1 1ED         1 TEMP              0 ****  ****    0 ROOT
