@<TRIPOS>MOLECULE
1ED
   41    43     1     0     0
SMALL
bcc


@<TRIPOS>ATOM
      1 OB         -0.0410    0.6390    0.1930 o         1 1ED     -0.636500
      2 CB          1.1850    0.4270    0.1090 c         1 1ED      0.688500
      3 CAB         2.0110    0.2160    1.3870 c3        1 1ED      0.040700
      4 CBB         1.8800    1.4970    2.2420 c3        1 1ED     -0.052100
      5 CGB         2.4410    1.2970    3.6030 ca        1 1ED     -0.133300
      6 CD4         3.7840    1.5880    3.8680 ca        1 1ED     -0.090000
      7 CE4         4.3110    1.4080    5.1440 ca        1 1ED     -0.182500
      8 CZB         3.4810    0.9310    6.1670 ca        1 1ED      0.129100
      9 OHB         3.9260    0.7260    7.4520 oh        1 1ED     -0.494100
     10 CE3         2.1290    0.6360    5.9180 ca        1 1ED     -0.182500
     11 CD3         1.6230    0.8230    4.6380 ca        1 1ED     -0.090000
     12 NB          3.3730   -0.1920    1.1640 n         1 1ED     -0.556900
     13 CA          4.0170   -0.0710   -0.0450 c         1 1ED      0.688500
     14 OA          5.2420   -0.2860   -0.1290 o         1 1ED     -0.637500
     15 NA          1.7880    0.3290   -1.1220 n         1 1ED     -0.556900
     16 CAA         3.2140    0.2700   -1.3100 c3        1 1ED      0.041700
     17 CBA         3.8150    1.5620   -1.9070 c3        1 1ED     -0.058100
     18 CGA         3.2740    1.8290   -3.2650 ca        1 1ED     -0.096300
     19 CD1         2.1210    2.6070   -3.4300 ca        1 1ED     -0.127500
     20 CE1         1.6210    2.8600   -4.7070 ca        1 1ED     -0.126000
     21 CZA         2.2670    2.3390   -5.8280 ca        1 1ED     -0.125000
     22 CE2         3.4170    1.5650   -5.6690 ca        1 1ED     -0.126000
     23 CD2         3.9190    1.3100   -4.3940 ca        1 1ED     -0.127500
     24 H1          1.4980   -0.6250    1.9520 h1        1 1ED      0.092700
     25 H2          0.7860    1.7470    2.3040 hc        1 1ED      0.071700
     26 H3          2.3970    2.3520    1.7320 hc        1 1ED      0.071700
     27 H4          4.4320    1.9700    3.0640 ha        1 1ED      0.139000
     28 H5          5.3660    1.6390    5.3460 ha        1 1ED      0.146000
     29 H6          4.8630    0.9700    7.4870 ho        1 1ED      0.421000
     30 H7          1.4950    0.2660    6.7360 ha        1 1ED      0.146000
     31 H8          0.5640    0.5980    4.4340 ha        1 1ED      0.139000
     32 H9          3.9250   -0.3360    1.9820 hn        1 1ED      0.333500
     33 H10         1.2500    0.5510   -1.9330 hn        1 1ED      0.334500
     34 H11         3.4210   -0.5730   -2.0430 h1        1 1ED      0.092700
     35 H12         4.9300    1.4230   -1.9520 hc        1 1ED      0.072700
     36 H13         3.6060    2.4310   -1.2290 hc        1 1ED      0.072700
     37 H14         1.6120    3.0270   -2.5500 ha        1 1ED      0.136000
     38 H15         0.7160    3.4730   -4.8290 ha        1 1ED      0.135500
     39 H16         1.8720    2.5390   -6.8340 ha        1 1ED      0.135000
     40 H17         3.9300    1.1550   -6.5520 ha        1 1ED      0.135500
     41 H18         4.8280    0.7020   -4.2720 ha        1 1ED      0.136000
@<TRIPOS>BOND
     1    1    2 2   
     2    2    3 1   
     3    2   15 1   
     4    3    4 1   
     5    3   12 1   
     6    3   24 1   
     7    4    5 1   
     8    4   25 1   
     9    4   26 1   
    10    5    6 ar  
    11    5   11 ar  
    12    6    7 ar  
    13    6   27 1   
    14    7    8 ar  
    15    7   28 1   
    16    8    9 1   
    17    8   10 ar  
    18    9   29 1   
    19   10   11 ar  
    20   10   30 1   
    21   11   31 1   
    22   12   13 1   
    23   12   32 1   
    24   13   14 2   
    25   13   16 1   
    26   15   16 1   
    27   15   33 1   
    28   16   17 1   
    29   16   34 1   
    30   17   18 1   
    31   17   35 1   
    32   17   36 1   
    33   18   19 ar  
    34   18   23 ar  
    35   19   20 ar  
    36   19   37 1   
    37   20   21 ar  
    38   20   38 1   
    39   21   22 ar  
    40   21   39 1   
    41   22   23 ar  
    42   22   40 1   
    43   23   41 1   
@<TRIPOS>SUBSTRUCTURE
     1 1ED         1 TEMP              0 ****  ****    0 ROOT
