@<TRIPOS>MOLECULE
1EF
   60    63     1     0     0
SMALL
bcc


@<TRIPOS>ATOM
      1 CAU        -1.2070    0.0040    0.6660 ca        1 1EF     -0.086000
      2 CAV         0.0800   -0.1030    1.2580 ca        1 1EF     -0.045000
      3 CAZ         0.2590   -0.0260    2.6660 ca        1 1EF     -0.128000
      4 CBA         1.5170   -0.1170    3.2120 ca        1 1EF     -0.104000
      5 CBB         2.6490   -0.2930    2.3800 ca        1 1EF     -0.102000
      6 CBC         2.5040   -0.3700    1.0150 ca        1 1EF     -0.117000
      7 CAW         1.2160   -0.2740    0.4240 ca        1 1EF     -0.032000
      8 CAX         1.0340   -0.3240   -0.9860 ca        1 1EF     -0.087000
      9 CAY        -0.2180   -0.2170   -1.5350 ca        1 1EF     -0.158000
     10 CAT        -1.3590   -0.0560   -0.7020 ca        1 1EF     -0.139300
     11 CAR        -2.6970    0.1090   -1.3270 c3        1 1EF     -0.043100
     12 CAQ        -3.1280   -1.1420   -2.1170 c3        1 1EF      0.078000
     13 CAS        -4.3910   -0.7990   -2.9480 c3        1 1EF     -0.170400
     14 CBD        -4.0130    0.0500   -4.1190 c         1 1EF      0.546100
     15 NBF        -5.1570    0.8980   -4.7120 ny        1 1EF     -0.466300
     16 OBG        -4.7250    1.9610   -5.4270 oh        1 1EF     -0.342300
     17 OBE        -2.9530    0.1650   -4.7050 o         1 1EF     -0.380100
     18 NAB        -3.3660   -2.3060   -1.2690 na        1 1EF      0.041400
     19 CAC        -2.4020   -3.2680   -0.9340 cc        1 1EF     -0.116600
     20 NAA        -4.5110   -2.5340   -0.5680 nc        1 1EF     -0.144800
     21 NAE        -4.3770   -3.5680    0.1490 nd        1 1EF     -0.348000
     22 CAD        -3.0690   -4.1000   -0.0140 cd        1 1EF      0.165600
     23 CAF        -2.5720   -5.3330    0.6320 c3        1 1EF      0.116500
     24 NAG        -3.2870   -5.6440    1.9050 ny        1 1EF     -0.675800
     25 CAH        -2.7010   -6.8540    2.6350 c         1 1EF      0.581700
     26 OAJ        -1.6710   -7.3010    2.1470 o         1 1EF     -0.438100
     27 CAI        -3.4360   -7.3190    3.8000 ca        1 1EF     -0.231600
     28 CAK        -4.5680   -6.6770    4.3350 ca        1 1EF     -0.052000
     29 CAL        -5.1970   -7.2000    5.4540 ca        1 1EF     -0.136500
     30 CAM        -4.7190   -8.3710    6.0700 ca        1 1EF      0.034700
     31 CAP        -5.4060   -8.9280    7.2540 c3        1 1EF     -0.088800
     32 CAN        -3.5890   -9.0070    5.5380 ca        1 1EF     -0.136500
     33 CAO        -2.9500   -8.4910    4.4160 ca        1 1EF     -0.052000
     34 H1         -2.0750    0.1570    1.3260 ha        1 1EF      0.136000
     35 H2         -0.6230    0.1240    3.3070 ha        1 1EF      0.138000
     36 H3          1.6620   -0.0460    4.3020 ha        1 1EF      0.152000
     37 H4          3.6480   -0.3570    2.8420 ha        1 1EF      0.156000
     38 H5          3.3810   -0.4970    0.3610 ha        1 1EF      0.150000
     39 H6          1.9230   -0.4360   -1.6280 ha        1 1EF      0.152000
     40 H7         -0.3470   -0.2250   -2.6270 ha        1 1EF      0.124000
     41 H8         -2.6540    0.9630   -2.0580 hc        1 1EF      0.068200
     42 H9         -3.4680    0.3590   -0.5500 hc        1 1EF      0.068200
     43 H10        -2.2890   -1.4320   -2.8230 h1        1 1EF      0.106700
     44 H11        -5.1400   -0.2860   -2.2830 hc        1 1EF      0.129200
     45 H12        -4.8730   -1.7360   -3.3530 hc        1 1EF      0.129200
     46 H13        -5.7350    1.3050   -3.9460 hn        1 1EF      0.489300
     47 H14        -3.9500    1.6920   -5.9810 ho        1 1EF      0.491000
     48 H15        -1.3900   -3.2800   -1.3440 h4        1 1EF      0.227000
     49 H16        -1.4690   -5.2310    0.8610 hx        1 1EF      0.125200
     50 H17        -2.7050   -6.2200   -0.0590 hx        1 1EF      0.125200
     51 H18        -4.2770   -5.8330    1.7050 hn        1 1EF      0.464800
     52 H19        -4.9780   -5.7550    3.8950 ha        1 1EF      0.147500
     53 H20        -6.0830   -6.6930    5.8720 ha        1 1EF      0.171500
     54 H21        -5.9200   -8.1250    7.8400 hc        1 1EF      0.077700
     55 H22        -4.6860   -9.4550    7.9280 hc        1 1EF      0.077700
     56 H23        -6.1810   -9.6690    6.9250 hc        1 1EF      0.077700
     57 H24        -3.2000   -9.9240    6.0130 ha        1 1EF      0.171500
     58 H25        -2.0590   -8.9970    4.0040 ha        1 1EF      0.147500
     59 HBF2       -5.7670    0.3040   -5.3060 hn        1 1EF      0.489300
     60 HAG2       -3.2420   -4.8330    2.5310 hn        1 1EF      0.464800
@<TRIPOS>BOND
     1    1    2 ar  
     2    1   10 ar  
     3    1   34 1   
     4    2    3 ar  
     5    2    7 ar  
     6    3    4 ar  
     7    3   35 1   
     8    4    5 ar  
     9    4   36 1   
    10    5    6 ar  
    11    5   37 1   
    12    6    7 ar  
    13    6   38 1   
    14    7    8 ar  
    15    8    9 ar  
    16    8   39 1   
    17    9   10 ar  
    18    9   40 1   
    19   10   11 1   
    20   11   12 1   
    21   11   41 1   
    22   11   42 1   
    23   12   13 1   
    24   12   18 1   
    25   12   43 1   
    26   13   14 1   
    27   13   44 1   
    28   13   45 1   
    29   14   15 1   
    30   14   17 2   
    31   15   16 1   
    32   15   46 1   
    33   15   59 1   
    34   16   47 1   
    35   18   19 1   
    36   18   20 1   
    37   19   22 2   
    38   19   48 1   
    39   20   21 2   
    40   21   22 1   
    41   22   23 1   
    42   23   24 1   
    43   23   49 1   
    44   23   50 1   
    45   24   25 1   
    46   24   51 1   
    47   24   60 1   
    48   25   26 2   
    49   25   27 1   
    50   27   28 ar  
    51   27   33 ar  
    52   28   29 ar  
    53   28   52 1   
    54   29   30 ar  
    55   29   53 1   
    56   30   31 1   
    57   30   32 ar  
    58   31   54 1   
    59   31   55 1   
    60   31   56 1   
    61   32   33 ar  
    62   32   57 1   
    63   33   58 1   
@<TRIPOS>SUBSTRUCTURE
     1 1EF         1 TEMP              0 ****  ****    0 ROOT
