@<TRIPOS>MOLECULE
1EF
   58    50     1     0     0
SMALL
bcc


@<TRIPOS>ATOM
      1 CAU         1.5240    3.8100   -1.6610 c1        1 1EF     -0.051500
      2 CAV         2.7490    4.0250   -2.3210 cg        1 1EF     -0.034500
      3 CAZ         3.8070    4.7270   -1.6620 c1        1 1EF     -0.062667
      4 CBA         5.0280    4.9200   -2.3130 c1        1 1EF     -0.062667
      5 CBB         5.2160    4.4330   -3.5950 c1        1 1EF     -0.062667
      6 CBC         4.1830    3.7460   -4.2430 c1        1 1EF     -0.062667
      7 CAW         2.9370    3.5460   -3.5850 cg        1 1EF     -0.034500
      8 CAX         1.9050    2.8330   -4.2310 c1        1 1EF     -0.051500
      9 CAY         0.7010    2.6200   -3.5850 c1        1 1EF     -0.063500
     10 CAT         0.5080    3.1090   -2.2970 c1        1 1EF     -0.054100
     11 CAR        -0.8000    3.1220   -1.5370 c3        1 1EF     -0.080300
     12 CAQ        -1.4790    1.7510   -1.6670 c3        1 1EF      0.250500
     13 CAS        -2.9770    1.9350   -1.7140 c3        1 1EF     -0.181400
     14 CBD        -3.4690    1.8080   -3.1810 c         1 1EF      0.594100
     15 NBF        -4.7740    2.2650   -3.5380 n         1 1EF     -0.349400
     16 OBG        -5.2370    2.1050   -4.8480 oh        1 1EF     -0.433100
     17 OBE        -2.7610    1.2710   -4.0180 o         1 1EF     -0.561100
     18 NAB        -1.1330    0.9340   -0.5480 nh        1 1EF     -0.292300
     19 CAC        -1.9820    0.4880    0.4010 c1        1 1EF     -0.060200
     20 NAA         0.0850    0.4040   -0.2990 n2        1 1EF     -0.072700
     21 NAE        -0.0130   -0.3850    0.8250 ne        1 1EF     -0.146000
     22 CAD        -1.2730   -0.3360    1.2540 cg        1 1EF     -0.152000
     23 CAF        -1.8090   -0.9780    2.5110 c2        1 1EF      0.363100
     24 NAG        -1.3000   -2.3360    2.6300 nh        1 1EF     -0.459400
     25 CAH        -1.4770   -3.0530    3.8660 c1        1 1EF      0.572500
     26 OAJ        -2.3770   -2.7230    4.6450 o         1 1EF     -0.603500
     27 CAI        -0.6110   -4.2670    4.1770 c1        1 1EF     -0.129000
     28 CAK         0.5520   -4.1120    4.8690 c1        1 1EF     -0.062667
     29 CAL         1.3720   -5.2080    5.1030 c1        1 1EF     -0.062667
     30 CAM         1.0080   -6.4510    4.6350 c1        1 1EF     -0.018100
     31 CAP         1.9310   -7.6480    4.8490 c3        1 1EF     -0.094000
     32 CAN        -0.1710   -6.6080    3.9340 c1        1 1EF     -0.084500
     33 CAO        -0.9790   -5.5270    3.7030 c1        1 1EF     -0.017500
     34 H1          1.3910    4.1520   -0.7590 ha        1 1EF      0.075000
     35 H2          3.6770    5.0680   -0.7690 ha        1 1EF      0.077000
     36 H3          5.7580    5.4060   -1.8580 ha        1 1EF      0.077000
     37 H4          6.0670    4.5690   -4.0470 ha        1 1EF      0.077000
     38 H5          4.3200    3.3980   -5.1580 ha        1 1EF      0.077000
     39 H6          2.0410    2.4940   -5.1250 ha        1 1EF      0.075000
     40 H7         -0.0300    2.1160   -4.0430 ha        1 1EF      0.089500
     41 H8         -0.6280    3.3150   -0.6000 hc        1 1EF      0.064200
     42 H9         -1.3810    3.8060   -1.9060 hc        1 1EF      0.064200
     43 H10        -1.1770    1.3150   -2.4950 h1        1 1EF      0.118700
     44 H11        -3.4000    1.2620   -1.1750 hc        1 1EF      0.086200
     45 H12        -3.2080    2.8200   -1.3690 hc        1 1EF      0.086200
     46 H13        -5.3220    2.5790   -2.9070 hn        1 1EF      0.299500
     47 H14        -6.1150    2.0560   -4.8450 ho        1 1EF      0.438000
     48 H15        -2.9650    0.7160    0.4750 DU        1 1EF      0.192000
     49 H16        -1.5180   -0.4410    3.3120 h4        1 1EF     -0.013700
     50 H17        -2.7610   -0.9990    2.4720 h4        1 1EF     -0.013700
     51 H18        -0.7840   -2.7060    1.9420 hn        1 1EF      0.279700
     52 H19         0.8110   -3.2240    5.2040 ha        1 1EF      0.077000
     53 H20         2.2000   -5.0980    5.5940 ha        1 1EF      0.077000
     54 H21         1.6700   -8.3730    4.2440 hc        1 1EF      0.048367
     55 H22         2.8490   -7.3870    4.6630 hc        1 1EF      0.048367
     56 H23         1.8590   -7.9540    5.7760 hc        1 1EF      0.048367
     57 H24        -0.4240   -7.4730    3.6080 ha        1 1EF      0.079500
     58 H25        -1.8120   -5.6370    3.2080 ha        1 1EF      0.094500
@<TRIPOS>BOND
     1    1    2 3   
     2    1   34 1   
     3    2    7 1   
     4    3    4 3   
     5    3   35 1   
     6    4   36 1   
     7    5    6 3   
     8    5   37 1   
     9    6   38 1   
    10    7    8 3   
    11    8   39 1   
    12    9   10 3   
    13    9   40 1   
    14   10   11 1   
    15   11   12 1   
    16   11   41 1   
    17   11   42 1   
    18   12   13 1   
    19   12   18 1   
    20   12   43 1   
    21   13   14 1   
    22   13   44 1   
    23   13   45 1   
    24   14   15 1   
    25   14   17 2   
    26   15   16 1   
    27   15   46 1   
    28   16   47 1   
    29   18   19 1   
    30   18   20 1   
    31   19   22 3   
    32   20   21 2   
    33   21   22 1   
    34   23   24 2   
    35   23   49 1   
    36   23   50 1   
    37   24   25 2   
    38   24   51 1   
    39   25   26 2   
    40   27   33 3   
    41   28   29 3   
    42   28   52 1   
    43   29   53 1   
    44   30   31 1   
    45   30   32 3   
    46   31   54 1   
    47   31   55 1   
    48   31   56 1   
    49   32   57 1   
    50   33   58 1   
@<TRIPOS>SUBSTRUCTURE
     1 1EF         1 TEMP              0 ****  ****    0 ROOT
