@<TRIPOS>MOLECULE
1EF
   60    63     1     0     0
SMALL
bcc


@<TRIPOS>ATOM
      1 CAU        -1.2410    0.0220    0.6880 ca        1 1EF     -0.086000
      2 CAV         0.0330   -0.0700    1.3100 ca        1 1EF     -0.045000
      3 CAZ         0.1780    0.0120    2.7220 ca        1 1EF     -0.128000
      4 CBA         1.4240   -0.0640    3.2970 ca        1 1EF     -0.104000
      5 CBB         2.5770   -0.2280    2.4920 ca        1 1EF     -0.102000
      6 CBC         2.4650   -0.3100    1.1240 ca        1 1EF     -0.117000
      7 CAW         1.1890   -0.2300    0.5030 ca        1 1EF     -0.032000
      8 CAX         1.0410   -0.2850   -0.9110 ca        1 1EF     -0.087000
      9 CAY        -0.1990   -0.1930   -1.4890 ca        1 1EF     -0.158000
     10 CAT        -1.3610   -0.0430   -0.6830 ca        1 1EF     -0.139300
     11 CAR        -2.6860    0.1050   -1.3390 c3        1 1EF     -0.043100
     12 CAQ        -3.0840   -1.1530   -2.1360 c3        1 1EF      0.078000
     13 CAS        -4.3320   -0.8260   -2.9960 c3        1 1EF     -0.170400
     14 CBD        -3.9370    0.0250   -4.1600 c         1 1EF      0.546100
     15 NBF        -5.0780    0.8570   -4.7810 n4        1 1EF     -0.466300
     16 OBG        -4.6430    1.9240   -5.4890 oh        1 1EF     -0.342300
     17 OBE        -2.8660    0.1510   -4.7220 o         1 1EF     -0.380100
     18 NAB        -3.3280   -2.3170   -1.2900 na        1 1EF      0.041400
     19 CAC        -2.3610   -3.2670   -0.9310 cc        1 1EF     -0.116600
     20 NAA        -4.4850   -2.5580   -0.6150 nc        1 1EF     -0.145800
     21 NAE        -4.3560   -3.5880    0.1070 nd        1 1EF     -0.348000
     22 CAD        -3.0380   -4.1040   -0.0240 cd        1 1EF      0.165600
     23 CAF        -2.5420   -5.3300    0.6350 c3        1 1EF      0.116500
     24 NAG        -3.2810   -5.6470    1.8920 n4        1 1EF     -0.675800
     25 CAH        -2.6980   -6.8490    2.6390 c         1 1EF      0.581700
     26 OAJ        -1.6520   -7.2840    2.1760 o         1 1EF     -0.438100
     27 CAI        -3.4540   -7.3200    3.7880 ca        1 1EF     -0.231600
     28 CAK        -4.6050   -6.6910    4.2950 ca        1 1EF     -0.052000
     29 CAL        -5.2530   -7.2180    5.4010 ca        1 1EF     -0.136500
     30 CAM        -4.7760   -8.3830    6.0300 ca        1 1EF      0.034700
     31 CAP        -5.4840   -8.9450    7.1990 c3        1 1EF     -0.088800
     32 CAN        -3.6270   -9.0070    5.5240 ca        1 1EF     -0.136500
     33 CAO        -2.9690   -8.4860    4.4170 ca        1 1EF     -0.052000
     34 H1         -2.1260    0.1660    1.3270 ha        1 1EF      0.136000
     35 H2         -0.7200    0.1530    3.3410 ha        1 1EF      0.138000
     36 H3          1.5430    0.0110    4.3900 ha        1 1EF      0.152000
     37 H4          3.5650   -0.2800    2.9770 ha        1 1EF      0.156000
     38 H5          3.3570   -0.4280    0.4900 ha        1 1EF      0.150000
     39 H6          1.9460   -0.3880   -1.5320 ha        1 1EF      0.152000
     40 H7         -0.3020   -0.2050   -2.5840 ha        1 1EF      0.124000
     41 H8         -3.4770    0.3490   -0.5810 hc        1 1EF      0.068200
     42 H9         -2.6350    0.9580   -2.0710 hc        1 1EF      0.068200
     43 H10        -2.2260   -1.4340   -2.8220 h1        1 1EF      0.106700
     44 H11        -5.1020   -0.3210   -2.3490 hc        1 1EF      0.129200
     45 H12        -4.7930   -1.7700   -3.4090 hc        1 1EF      0.129200
     46 H13        -5.6780    1.2590   -4.0300 hn        1 1EF      0.489300
     47 H14        -3.8520    1.6640   -6.0240 ho        1 1EF      0.491000
     48 H15        -1.3390   -3.2680   -1.3190 h4        1 1EF      0.227000
     49 H16        -2.6490   -6.2200   -0.0560 hx        1 1EF      0.125200
     50 H17        -1.4450   -5.2150    0.8890 hx        1 1EF      0.125200
     51 H18        -4.2640   -5.8480    1.6710 hn        1 1EF      0.464800
     52 H19        -5.0150   -5.7740    3.8450 ha        1 1EF      0.147500
     53 H20        -6.1540   -6.7210    5.7980 ha        1 1EF      0.171500
     54 H21        -4.7730   -9.4650    7.8890 hc        1 1EF      0.077700
     55 H22        -6.0180   -8.1470    7.7730 hc        1 1EF      0.077700
     56 H23        -6.2430   -9.6950    6.8530 hc        1 1EF      0.077700
     57 H24        -3.2390   -9.9190    6.0100 ha        1 1EF      0.171500
     58 H25        -2.0620   -8.9820    4.0260 ha        1 1EF      0.147500
     59 HBF2       -5.6670    0.2540   -5.3880 hn        1 1EF      0.489300
     60 HAG2       -3.2600   -4.8340    2.5180 hn        1 1EF      0.464800
@<TRIPOS>BOND
     1    1    2 ar  
     2    1   10 ar  
     3    1   34 1   
     4    2    3 ar  
     5    2    7 ar  
     6    3    4 ar  
     7    3   35 1   
     8    4    5 ar  
     9    4   36 1   
    10    5    6 ar  
    11    5   37 1   
    12    6    7 ar  
    13    6   38 1   
    14    7    8 ar  
    15    8    9 ar  
    16    8   39 1   
    17    9   10 ar  
    18    9   40 1   
    19   10   11 1   
    20   11   12 1   
    21   11   41 1   
    22   11   42 1   
    23   12   13 1   
    24   12   18 1   
    25   12   43 1   
    26   13   14 1   
    27   13   44 1   
    28   13   45 1   
    29   14   15 1   
    30   14   17 2   
    31   15   16 1   
    32   15   46 1   
    33   15   59 1   
    34   16   47 1   
    35   18   19 1   
    36   18   20 1   
    37   19   22 2   
    38   19   48 1   
    39   20   21 2   
    40   21   22 1   
    41   22   23 1   
    42   23   24 1   
    43   23   49 1   
    44   23   50 1   
    45   24   25 1   
    46   24   51 1   
    47   24   60 1   
    48   25   26 2   
    49   25   27 1   
    50   27   28 ar  
    51   27   33 ar  
    52   28   29 ar  
    53   28   52 1   
    54   29   30 ar  
    55   29   53 1   
    56   30   31 1   
    57   30   32 ar  
    58   31   54 1   
    59   31   55 1   
    60   31   56 1   
    61   32   33 ar  
    62   32   57 1   
    63   33   58 1   
@<TRIPOS>SUBSTRUCTURE
     1 1EF         1 TEMP              0 ****  ****    0 ROOT
