@<TRIPOS>MOLECULE
1EF
   60    63     1     0     0
SMALL
bcc


@<TRIPOS>ATOM
      1 CAU        -0.0740    0.3990    0.2370 ca        1 1EF     -0.106000
      2 CAV         1.2510    0.0680    0.6280 ca        1 1EF     -0.046000
      3 CAZ         1.7680    0.4410    1.8980 ca        1 1EF     -0.128000
      4 CBA         3.0590    0.1220    2.2440 ca        1 1EF     -0.100000
      5 CBB         3.8890   -0.5850    1.3400 ca        1 1EF     -0.100000
      6 CBC         3.4150   -0.9580    0.1060 ca        1 1EF     -0.117000
      7 CAW         2.0850   -0.6370   -0.2790 ca        1 1EF     -0.032000
      8 CAX         1.5720   -0.9850   -1.5600 ca        1 1EF     -0.082000
      9 CAY         0.2890   -0.6530   -1.9150 ca        1 1EF     -0.154000
     10 CAT        -0.5540    0.0410   -1.0050 ca        1 1EF     -0.146300
     11 CAR        -1.9150    0.4570   -1.4350 c3        1 1EF     -0.043100
     12 CAQ        -2.7980   -0.7260   -1.8790 c3        1 1EF      0.068000
     13 CAS        -3.9620   -0.1460   -2.7090 c3        1 1EF     -0.157400
     14 CBD        -4.7950   -1.2370   -3.3030 c         1 1EF      0.564100
     15 NBF        -6.3220   -1.1270   -3.0750 n4        1 1EF     -0.467300
     16 OBG        -6.7990    0.0950   -3.3990 oh        1 1EF     -0.351300
     17 OBE        -4.4700   -2.2210   -3.9370 o         1 1EF     -0.377100
     18 NAB        -3.2710   -1.5550   -0.7620 na        1 1EF      0.059400
     19 CAC        -2.5210   -1.9430    0.3480 cc        1 1EF     -0.104600
     20 NAA        -4.5040   -2.1260   -0.6990 nc        1 1EF     -0.253800
     21 NAE        -4.6120   -2.8270    0.3530 nd        1 1EF     -0.329000
     22 CAD        -3.4030   -2.7710    1.0820 cd        1 1EF      0.155600
     23 CAF        -3.1750   -3.3860    2.4050 c3        1 1EF      0.114500
     24 NAG        -3.7570   -4.7570    2.5110 n4        1 1EF     -0.679800
     25 CAH        -3.4240   -5.4400    3.8420 c         1 1EF      0.582700
     26 OAJ        -2.6460   -4.8210    4.5550 o         1 1EF     -0.435100
     27 CAI        -4.0710   -6.7180    4.0880 ca        1 1EF     -0.232600
     28 CAK        -4.8600   -7.4040    3.1470 ca        1 1EF     -0.051500
     29 CAL        -5.4300   -8.6240    3.4780 ca        1 1EF     -0.136000
     30 CAM        -5.2320   -9.1920    4.7500 ca        1 1EF      0.036700
     31 CAP        -5.8330  -10.4990    5.0880 c3        1 1EF     -0.089800
     32 CAN        -4.4440   -8.5070    5.6850 ca        1 1EF     -0.136000
     33 CAO        -3.8650   -7.2850    5.3630 ca        1 1EF     -0.051500
     34 H1         -0.6970    0.9740    0.9410 ha        1 1EF      0.137000
     35 H2          1.1220    1.0020    2.5910 ha        1 1EF      0.140000
     36 H3          3.4670    0.4200    3.2230 ha        1 1EF      0.155000
     37 H4          4.9230   -0.8230    1.6390 ha        1 1EF      0.157000
     38 H5          4.0580   -1.5000   -0.6060 ha        1 1EF      0.151000
     39 H6          2.2330   -1.5120   -2.2670 ha        1 1EF      0.154000
     40 H7         -0.0850   -0.8960   -2.9200 ha        1 1EF      0.127000
     41 H8         -1.8060    1.1440   -2.3210 hc        1 1EF      0.083700
     42 H9         -2.4290    1.0370   -0.6230 hc        1 1EF      0.083700
     43 H10        -2.1860   -1.4140   -2.5440 h1        1 1EF      0.111700
     44 H11        -4.5700    0.5700   -2.0930 hc        1 1EF      0.134200
     45 H12        -3.5170    0.4340   -3.5710 hc        1 1EF      0.134200
     46 H13        -6.5170   -1.2320   -2.0550 hn        1 1EF      0.488800
     47 H14        -6.8840    0.1600   -4.3790 ho        1 1EF      0.481000
     48 H15        -1.4870   -1.6150    0.5230 h4        1 1EF      0.247000
     49 H16        -2.0650   -3.4540    2.6130 hx        1 1EF      0.128700
     50 H17        -3.6450   -2.7550    3.2200 hx        1 1EF      0.128700
     51 H18        -3.4020   -5.3430    1.7490 hn        1 1EF      0.461300
     52 H19        -5.0390   -7.0070    2.1370 ha        1 1EF      0.146000
     53 H20        -6.0470   -9.1610    2.7380 ha        1 1EF      0.172000
     54 H21        -5.0990  -11.3180    4.8690 hc        1 1EF      0.078700
     55 H22        -6.7570  -10.6890    4.4880 hc        1 1EF      0.078700
     56 H23        -6.0960  -10.5520    6.1750 hc        1 1EF      0.078700
     57 H24        -4.2800   -8.9410    6.6870 ha        1 1EF      0.172000
     58 H25        -3.2430   -6.7530    6.1050 ha        1 1EF      0.146000
     59 HBF2       -6.8160   -1.8860   -3.5830 hn        1 1EF      0.488800
     60 HAG2       -4.7790   -4.7050    2.4210 hn        1 1EF      0.461300
@<TRIPOS>BOND
     1    1    2 ar  
     2    1   10 ar  
     3    1   34 1   
     4    2    3 ar  
     5    2    7 ar  
     6    3    4 ar  
     7    3   35 1   
     8    4    5 ar  
     9    4   36 1   
    10    5    6 ar  
    11    5   37 1   
    12    6    7 ar  
    13    6   38 1   
    14    7    8 ar  
    15    8    9 ar  
    16    8   39 1   
    17    9   10 ar  
    18    9   40 1   
    19   10   11 1   
    20   11   12 1   
    21   11   41 1   
    22   11   42 1   
    23   12   13 1   
    24   12   18 1   
    25   12   43 1   
    26   13   14 1   
    27   13   44 1   
    28   13   45 1   
    29   14   15 1   
    30   14   17 2   
    31   15   16 1   
    32   15   46 1   
    33   15   59 1   
    34   16   47 1   
    35   18   19 1   
    36   18   20 1   
    37   19   22 2   
    38   19   48 1   
    39   20   21 2   
    40   21   22 1   
    41   22   23 1   
    42   23   24 1   
    43   23   49 1   
    44   23   50 1   
    45   24   25 1   
    46   24   51 1   
    47   24   60 1   
    48   25   26 2   
    49   25   27 1   
    50   27   28 ar  
    51   27   33 ar  
    52   28   29 ar  
    53   28   52 1   
    54   29   30 ar  
    55   29   53 1   
    56   30   31 1   
    57   30   32 ar  
    58   31   54 1   
    59   31   55 1   
    60   31   56 1   
    61   32   33 ar  
    62   32   57 1   
    63   33   58 1   
@<TRIPOS>SUBSTRUCTURE
     1 1EF         1 TEMP              0 ****  ****    0 ROOT
