@<TRIPOS>MOLECULE
1EF
   58    61     1     0     0
SMALL
bcc


@<TRIPOS>ATOM
      1 CAU         3.4420   -1.1260    1.0200 ca        1 1EF     -0.109000
      2 CAV         4.2450   -2.2070    0.5670 ca        1 1EF     -0.035000
      3 CAZ         4.1270   -3.5100    1.1260 ca        1 1EF     -0.118000
      4 CBA         4.9130   -4.5380    0.6680 ca        1 1EF     -0.125000
      5 CBB         5.8530   -4.3140   -0.3670 ca        1 1EF     -0.125000
      6 CBC         5.9890   -3.0660   -0.9240 ca        1 1EF     -0.116000
      7 CAW         5.1870   -1.9840   -0.4690 ca        1 1EF     -0.033000
      8 CAX         5.3060   -0.6790   -1.0240 ca        1 1EF     -0.111000
      9 CAY         4.5210    0.3490   -0.5690 ca        1 1EF     -0.121000
     10 CAT         3.5700    0.1270    0.4660 ca        1 1EF     -0.088300
     11 CAR         2.7560    1.2740    0.9480 c3        1 1EF     -0.048100
     12 CAQ         1.7630    1.7830   -0.1110 c3        1 1EF      0.075000
     13 CAS         1.1880    3.1400    0.3420 c3        1 1EF     -0.181400
     14 CBD         2.2070    4.2440    0.1720 c         1 1EF      0.593100
     15 NBF         1.8870    5.4970    0.7840 n         1 1EF     -0.350400
     16 OBG         2.5690    6.5400    0.3090 oh        1 1EF     -0.432100
     17 OBE         3.3170    4.0780   -0.3590 o         1 1EF     -0.563100
     18 NAB         0.6970    0.8310   -0.4080 na        1 1EF      0.049400
     19 CAC         0.1260   -0.0960    0.4760 cc        1 1EF     -0.198600
     20 NAA         0.0390    0.7840   -1.5960 nc        1 1EF     -0.164800
     21 NAE        -0.8750   -0.0950   -1.5540 nd        1 1EF     -0.360000
     22 CAD        -0.8920   -0.7070   -0.2760 cd        1 1EF      0.216600
     23 CAF        -1.8230   -1.7960    0.1300 c3        1 1EF      0.072700
     24 NAG        -3.1970   -1.5780   -0.2270 n         1 1EF     -0.544900
     25 CAH        -4.1000   -1.0340    0.6760 c         1 1EF      0.665700
     26 OAJ        -3.8280   -0.9540    1.8920 o         1 1EF     -0.608100
     27 CAI        -5.4370   -0.6380    0.1500 ca        1 1EF     -0.147600
     28 CAK        -5.5850    0.0190   -1.0740 ca        1 1EF     -0.086500
     29 CAL        -6.8540    0.3860   -1.5180 ca        1 1EF     -0.140500
     30 CAM        -7.9880    0.0990   -0.7470 ca        1 1EF     -0.053300
     31 CAP        -9.3360    0.4710   -1.2320 c3        1 1EF     -0.059800
     32 CAN        -7.8310   -0.5510    0.4830 ca        1 1EF     -0.140500
     33 CAO        -6.5650   -0.9150    0.9330 ca        1 1EF     -0.086500
     34 H1          2.7150   -1.3150    1.8250 ha        1 1EF      0.127000
     35 H2          3.3930   -3.6740    1.9290 ha        1 1EF      0.132000
     36 H3          4.8230   -5.5460    1.0980 ha        1 1EF      0.133000
     37 H4          6.4710   -5.1540   -0.7170 ha        1 1EF      0.133000
     38 H5          6.7160   -2.8820   -1.7290 ha        1 1EF      0.134000
     39 H6          6.0410   -0.5120   -1.8260 ha        1 1EF      0.137000
     40 H7          4.6160    1.3620   -0.9910 ha        1 1EF      0.146000
     41 H8          2.2200    1.0110    1.8970 hc        1 1EF      0.067700
     42 H9          3.4460    2.1350    1.1760 hc        1 1EF      0.067700
     43 H10         2.3430    1.9520   -1.0730 h1        1 1EF      0.112700
     44 H11         0.2880    3.4070   -0.2750 hc        1 1EF      0.087700
     45 H12         0.8670    3.0780    1.4150 hc        1 1EF      0.087700
     46 H13         0.9000    5.7230    0.7240 hn        1 1EF      0.301500
     47 H14         3.4800    6.4440    0.6530 ho        1 1EF      0.437000
     48 H15         0.4720   -0.2540    1.4950 h4        1 1EF      0.193000
     49 H16        -1.4890   -2.7530   -0.3720 h1        1 1EF      0.076200
     50 H17        -1.7510   -1.9310    1.2490 h1        1 1EF      0.076200
     51 H18        -3.3860   -1.4680   -1.1980 hn        1 1EF      0.315500
     52 H19        -4.7080    0.2690   -1.6900 ha        1 1EF      0.146500
     53 H20        -6.9660    0.9070   -2.4800 ha        1 1EF      0.136500
     54 H21        -9.7740   -0.3740   -1.8220 hc        1 1EF      0.047700
     55 H22       -10.0220    0.6910   -0.3770 hc        1 1EF      0.047700
     56 H23        -9.2920    1.3720   -1.8910 hc        1 1EF      0.047700
     57 H24        -8.7150   -0.7730    1.1000 ha        1 1EF      0.136500
     58 H25        -6.4360   -1.4120    1.9080 ha        1 1EF      0.146500
@<TRIPOS>BOND
     1    1    2 ar  
     2    1   10 ar  
     3    1   34 1   
     4    2    3 ar  
     5    2    7 ar  
     6    3    4 ar  
     7    3   35 1   
     8    4    5 ar  
     9    4   36 1   
    10    5    6 ar  
    11    5   37 1   
    12    6    7 ar  
    13    6   38 1   
    14    7    8 ar  
    15    8    9 ar  
    16    8   39 1   
    17    9   10 ar  
    18    9   40 1   
    19   10   11 1   
    20   11   12 1   
    21   11   41 1   
    22   11   42 1   
    23   12   13 1   
    24   12   18 1   
    25   12   43 1   
    26   13   14 1   
    27   13   44 1   
    28   13   45 1   
    29   14   15 1   
    30   14   17 2   
    31   15   16 1   
    32   15   46 1   
    33   16   47 1   
    34   18   19 1   
    35   18   20 1   
    36   19   22 2   
    37   19   48 1   
    38   20   21 2   
    39   21   22 1   
    40   22   23 1   
    41   23   24 1   
    42   23   49 1   
    43   23   50 1   
    44   24   25 1   
    45   24   51 1   
    46   25   26 2   
    47   25   27 1   
    48   27   28 ar  
    49   27   33 ar  
    50   28   29 ar  
    51   28   52 1   
    52   29   30 ar  
    53   29   53 1   
    54   30   31 1   
    55   30   32 ar  
    56   31   54 1   
    57   31   55 1   
    58   31   56 1   
    59   32   33 ar  
    60   32   57 1   
    61   33   58 1   
@<TRIPOS>SUBSTRUCTURE
     1 1EF         1 TEMP              0 ****  ****    0 ROOT
