@<TRIPOS>MOLECULE
1EG
   56    58     1     0     0
SMALL
bcc


@<TRIPOS>ATOM
      1 O6         -0.2660    0.1720   -3.0490 o         1 1EG     -0.455100
      2 C6          0.8620    0.0150   -2.5830 c         1 1EG      0.654000
      3 N1          1.0180   -0.6650   -1.3180 nc        1 1EG     -0.638100
      4 C2          2.2040   -0.9480   -0.8450 cd        1 1EG      0.734100
      5 N2          2.2290   -1.6380    0.4950 n4        1 1EG     -0.811600
      6 N3          3.4620   -0.6510   -1.4060 na        1 1EG     -0.693600
      7 C5          2.1160    0.4360   -3.2000 cc        1 1EG      0.216800
      8 C4          3.3660    0.0620   -2.6010 cd        1 1EG      0.033000
      9 N7          2.3570    1.1760   -4.3560 nc        1 1EG     -0.673000
     10 C8          3.7000    1.2530   -4.4650 cd        1 1EG      0.475400
     11 N9          4.3710    0.5910   -3.4150 na        1 1EG     -0.207900
     12 C1'         5.7900    0.3090   -3.2830 c3        1 1EG      0.199800
     13 O4'         6.5020    0.8670   -4.3820 os        1 1EG     -0.356600
     14 C2'         6.0880   -1.2320   -3.2410 c3        1 1EG      0.106100
     15 O2'         6.3700   -1.6170   -1.9230 oh        1 1EG     -0.616800
     16 C3'         7.2190   -1.4210   -4.2790 c3        1 1EG      0.100100
     17 O3'         8.4370   -1.4150   -3.5690 oh        1 1EG     -0.589800
     18 C4'         7.1090   -0.1640   -5.1740 c3        1 1EG      0.093100
     19 C5'         6.2690   -0.4560   -6.4210 c3        1 1EG      0.149400
     20 O5'         5.8430    0.7910   -6.9520 os        1 1EG     -0.543500
     21 SBG         5.8390    1.1570   -8.5480 s6        1 1EG      1.645400
     22 OAF         6.1240    2.4680   -8.7500 o         1 1EG     -0.562300
     23 OAG         6.4620    0.1040   -9.1650 o         1 1EG     -0.562300
     24 NAQ         4.0720    0.8880   -8.9980 n4        1 1EG     -0.606700
     25 C           3.1560    1.5510   -8.0170 c2        1 1EG      0.567300
     26 O           3.7750    2.3840   -7.3090 o         1 1EG     -0.673300
     27 CA          1.8050    1.2040   -7.9610 c2        1 1EG     -0.400200
     28 N           0.9970    1.9400   -7.0040 n4        1 1EG     -0.642400
     29 CB          1.1350    0.1490   -8.7550 c3        1 1EG      0.018800
     30 CG          0.8700   -1.1310   -7.9810 c3        1 1EG     -0.192400
     31 CD          2.0950   -1.7800   -7.4160 c         1 1EG      0.665100
     32 OE1         1.9540   -2.8290   -6.5630 oh        1 1EG     -0.567100
     33 OE2         3.2810   -1.4740   -7.6020 o         1 1EG     -0.580000
     34 H1          2.7170   -2.5380    0.4210 hn        1 1EG      0.491133
     35 H2          1.2560   -1.8060    0.8070 hn        1 1EG      0.491133
     36 H3          4.3330   -1.0440   -1.1090 hn        1 1EG      0.501800
     37 H4          4.2750    1.7720   -5.2600 h5        1 1EG      0.134100
     38 H5          6.1700    0.8360   -2.3560 h2        1 1EG      0.124700
     39 H6          5.1960   -1.8480   -3.5470 h1        1 1EG      0.091700
     40 H7          7.3200   -1.5030   -1.7530 ho        1 1EG      0.466000
     41 H8          7.0830   -2.3660   -4.8650 h1        1 1EG      0.088700
     42 H9          9.0850   -1.9270   -4.0730 ho        1 1EG      0.448000
     43 H10         8.1170    0.2550   -5.4470 h1        1 1EG      0.126700
     44 H11         6.8840   -1.0220   -7.1730 h1        1 1EG      0.085700
     45 H12         5.3340   -1.0310   -6.1720 h1        1 1EG      0.085700
     46 H15         3.8620    1.2680   -9.9220 hn        1 1EG      0.477300
     47 H16         1.0260   -3.1090   -6.5170 ho        1 1EG      0.450000
     48 H17         0.2600    2.4490   -7.5010 hn        1 1EG      0.454467
     49 H18         0.5700    1.2900   -6.3370 hn        1 1EG      0.454467
     50 H20         1.7440   -0.0950   -9.6660 hc        1 1EG      0.068700
     51 H21         0.1430    0.5220   -9.1420 hc        1 1EG      0.068700
     52 H22         0.1600   -0.9290   -7.1340 hc        1 1EG      0.092200
     53 H23         0.3700   -1.8710   -8.6680 hc        1 1EG      0.092200
     54 H231        2.7000   -1.0380    1.1840 hn        1 1EG      0.491133
     55 HAQ2        3.8510   -0.1170   -9.0260 hn        1 1EG      0.477300
     56 HN3         1.5850    2.6100   -6.4870 hn        1 1EG      0.454467
@<TRIPOS>BOND
     1    1    2 2   
     2    2    3 1   
     3    2    7 1   
     4    3    4 2   
     5    4    5 1   
     6    4    6 1   
     7    5   34 1   
     8    5   35 1   
     9    5   54 1   
    10    6    8 1   
    11    6   36 1   
    12    7    8 2   
    13    7    9 1   
    14    8   11 1   
    15    9   10 2   
    16   10   11 1   
    17   10   37 1   
    18   11   12 1   
    19   12   13 1   
    20   12   14 1   
    21   12   38 1   
    22   13   18 1   
    23   14   15 1   
    24   14   16 1   
    25   14   39 1   
    26   15   40 1   
    27   16   17 1   
    28   16   18 1   
    29   16   41 1   
    30   17   42 1   
    31   18   19 1   
    32   18   43 1   
    33   19   20 1   
    34   19   44 1   
    35   19   45 1   
    36   20   21 1   
    37   21   22 2   
    38   21   23 2   
    39   21   24 1   
    40   24   25 1   
    41   24   46 1   
    42   24   55 1   
    43   25   26 1   
    44   25   27 2   
    45   27   28 1   
    46   27   29 1   
    47   28   48 1   
    48   28   49 1   
    49   28   56 1   
    50   29   30 1   
    51   29   50 1   
    52   29   51 1   
    53   30   31 1   
    54   30   52 1   
    55   30   53 1   
    56   31   32 1   
    57   31   33 2   
    58   32   47 1   
@<TRIPOS>SUBSTRUCTURE
     1 1EG         1 TEMP              0 ****  ****    0 ROOT
