@<TRIPOS>MOLECULE
1EG
   53    50     1     0     0
SMALL
bcc


@<TRIPOS>ATOM
      1 O6         -6.5060   -0.0930    6.3550 o         1 1EG     -0.294000
      2 C6         -5.2730    0.0020    6.3460 c1        1 1EG      0.358000
      3 N1         -4.6080    0.5170    7.4620 n1        1 1EG     -0.318000
      4 C2         -3.1960    0.7550    7.4100 c1        1 1EG      0.237000
      5 N2         -2.5440    1.2850    8.5120 n3        1 1EG     -0.324000
      6 N3         -2.4560    0.4620    6.2050 n2        1 1EG     -0.269000
      7 C5         -4.4970   -0.3060    5.0740 c2        1 1EG     -0.220000
      8 C4         -3.1540   -0.0830    5.0270 c2        1 1EG      0.039000
      9 N7         -4.8840   -0.7910    3.8660 n2        1 1EG     -0.069000
     10 C8         -3.7780   -0.8700    3.0660 c1        1 1EG     -0.069000
     11 N9         -2.7120   -0.4340    3.7810 n2        1 1EG     -0.187000
     12 C1'        -1.3840   -0.2700    3.2660 c2        1 1EG      0.128000
     13 O4'        -1.4350    0.4350    1.8370 os        1 1EG     -0.263000
     14 C2'        -0.8320   -1.4260    3.0820 c3        1 1EG     -0.008000
     15 O2'        -0.0070   -1.7960    4.2650 oh        1 1EG     -0.338000
     16 C3'         0.0740   -1.2440    1.8350 c3        1 1EG     -0.004000
     17 O3'         1.3780   -1.2240    2.1960 oh        1 1EG     -0.353000
     18 C4'        -0.3320    0.1040    1.2290 c3        1 1EG     -0.040000
     19 C5'        -0.5880   -0.0540   -0.3020 c3        1 1EG      0.032000
     20 O5'         0.4770    0.5940   -1.0450 os        1 1EG     -0.689000
     21 SBG         1.0470   -0.1980   -2.2640 s4        1 1EG      2.050800
     22 OAF         2.0440   -1.2590   -1.8140 o         1 1EG     -0.577900
     23 OAG        -0.0260   -1.0590   -2.9210 o         1 1EG     -0.577900
     24 NAQ         1.7240    0.8380   -3.3490 n2        1 1EG     -0.897000
     25 C           2.8420    0.4120   -4.1430 c2        1 1EG      0.360000
     26 O           3.4800   -0.5650   -3.8130 o         1 1EG     -0.374000
     27 CA          3.2170    1.1700   -5.3950 c3        1 1EG     -0.057000
     28 N           4.5200    1.7640   -5.2200 n3        1 1EG     -0.331000
     29 CB          3.2550    0.2230   -6.5570 c3        1 1EG     -0.164000
     30 CG          2.7500    0.9550   -7.8570 c3        1 1EG     -0.233000
     31 CD          2.5580   -0.0320   -8.9310 c2        1 1EG      0.329000
     32 OE1         1.4350   -0.5460   -9.1120 o         1 1EG     -0.575500
     33 OE2         3.5680   -0.4580   -9.5920 o         1 1EG     -0.575500
     34 H1         -1.6840    1.4610    8.4710 hn        1 1EG      0.205500
     35 H2         -2.9850    1.4130    9.2670 hn        1 1EG      0.205500
     36 H3         -1.5240    0.5230    6.2060 hn        1 1EG      0.266000
     37 H4         -3.7730   -1.1170    2.0760 DU        1 1EG      0.220000
     38 H5         -0.8480    0.2640    3.8860 h4        1 1EG      0.122000
     39 H6         -1.5240   -2.1170    2.9120 h1        1 1EG      0.134000
     40 H7          0.1800   -2.6910    4.2420 ho        1 1EG      0.242000
     41 H8         -0.0850   -1.9490    1.2070 h1        1 1EG      0.125000
     42 H9          1.8080   -1.8830    1.7870 ho        1 1EG      0.267000
     43 H10         0.3570    0.7710    1.3930 h1        1 1EG      0.145000
     44 H11        -1.4500    0.3610   -0.5330 h1        1 1EG      0.107000
     45 H12        -0.6130   -1.0070   -0.5310 h1        1 1EG      0.107000
     46 H15         1.3340    1.6670   -3.5030 hn        1 1EG      0.347000
     47 H16         2.5530    1.8750   -5.5660 h1        1 1EG      0.190000
     48 H17         4.8210    2.0970   -6.0340 hn        1 1EG      0.145500
     49 H18         5.1200    1.1130   -4.9090 hn        1 1EG      0.145500
     50 H20         2.6790   -0.5430   -6.3700 hc        1 1EG      0.073500
     51 H21         4.1820   -0.0880   -6.6930 hc        1 1EG      0.073500
     52 H22         3.4220    1.6260   -8.1400 hc        1 1EG      0.077000
     53 H23         1.8760    1.4170   -7.6650 hc        1 1EG      0.077000
@<TRIPOS>BOND
     1    1    2 1   
     2    2    7 1   
     3    3    4 1   
     4    4    5 1   
     5    5   34 1   
     6    5   35 1   
     7    6    8 1   
     8    6   36 1   
     9    7    8 1   
    10    7    9 1   
    11    8   11 1   
    12    9   10 1   
    13   10   11 1   
    14   12   13 1   
    15   12   14 1   
    16   12   38 1   
    17   13   18 1   
    18   14   15 1   
    19   14   16 1   
    20   14   39 1   
    21   15   40 1   
    22   16   17 1   
    23   16   18 1   
    24   16   41 1   
    25   17   42 1   
    26   18   19 1   
    27   18   43 1   
    28   19   20 1   
    29   19   44 1   
    30   19   45 1   
    31   20   21 1   
    32   21   22 1   
    33   21   23 1   
    34   24   25 1   
    35   24   46 1   
    36   25   26 1   
    37   25   27 1   
    38   27   28 1   
    39   27   29 1   
    40   27   47 1   
    41   28   48 1   
    42   28   49 1   
    43   29   30 1   
    44   29   50 1   
    45   29   51 1   
    46   30   31 1   
    47   30   52 1   
    48   30   53 1   
    49   31   32 1   
    50   31   33 1   
@<TRIPOS>SUBSTRUCTURE
     1 1EG         1 TEMP              0 ****  ****    0 ROOT
