@<TRIPOS>MOLECULE
1EG
   53    55     1     0     0
SMALL
bcc


@<TRIPOS>ATOM
      1 O6          6.2530   -3.6210    0.7820 o         1 1EG     -0.532100
      2 C6          5.9170   -2.5510    0.2550 c         1 1EG      0.648000
      3 N1          6.5460   -2.1270   -0.9460 nc        1 1EG     -0.744100
      4 C2          6.2150   -0.9910   -1.5500 cd        1 1EG      0.829100
      5 N2          6.7580   -0.6910   -2.8290 nh        1 1EG     -0.886800
      6 N3          5.3220   -0.0060   -1.0190 na        1 1EG     -0.704600
      7 C5          4.8960   -1.6470    0.7980 cc        1 1EG      0.198800
      8 C4          4.6260   -0.4200    0.1080 cd        1 1EG      0.034000
      9 N7          4.0680   -1.7460    1.9180 nc        1 1EG     -0.592000
     10 C8          3.3220   -0.6260    1.9190 cd        1 1EG      0.416400
     11 N9          3.6090    0.2260    0.8240 na        1 1EG     -0.234900
     12 C1'         3.1530    1.5720    0.5740 c3        1 1EG      0.228800
     13 O4'         2.1420    1.9490    1.5140 os        1 1EG     -0.414600
     14 C2'         2.5670    1.7860   -0.8620 c3        1 1EG      0.064100
     15 O2'         3.5510    2.4470   -1.6270 oh        1 1EG     -0.622800
     16 C3'         1.2810    2.6070   -0.6210 c3        1 1EG      0.075100
     17 O3'         1.5360    3.9780   -0.8450 oh        1 1EG     -0.583800
     18 C4'         0.9160    2.2970    0.8400 c3        1 1EG      0.076100
     19 C5'        -0.0930    1.1490    0.9800 c3        1 1EG      0.190400
     20 O5'        -1.3830    1.6770    1.0140 os        1 1EG     -0.568500
     21 SBG        -2.4890    1.5020   -0.2870 s6        1 1EG      1.733100
     22 OAF        -3.3360    2.5600   -0.0290 o         1 1EG     -0.647800
     23 OAG        -1.5750    1.5760   -1.3390 o         1 1EG     -0.647800
     24 NAQ        -3.0750    0.0260   -0.0990 n         1 1EG     -0.707300
     25 C          -3.9490   -0.4520    0.8840 c         1 1EG      0.713100
     26 O          -4.1730    0.2270    1.8990 o         1 1EG     -0.591100
     27 CA         -4.6310   -1.8140    0.6320 c3        1 1EG      0.089500
     28 N          -4.7190   -2.5610    1.8740 n3        1 1EG     -0.901800
     29 CB         -5.9700   -1.5180   -0.0820 c3        1 1EG     -0.089400
     30 CG         -5.9150   -1.8660   -1.5550 c3        1 1EG     -0.192400
     31 CD         -4.7110   -1.1880   -2.2120 c         1 1EG      0.893600
     32 OE1        -3.6210   -1.8440   -2.2820 o         1 1EG     -0.850300
     33 OE2        -4.7950    0.0180   -2.5750 o         1 1EG     -0.850300
     34 H1          7.4660   -1.3350   -3.1180 hn        1 1EG      0.410800
     35 H2          7.0240    0.2620   -2.9510 hn        1 1EG      0.410800
     36 H3          4.9330    0.7050   -1.6030 hn        1 1EG      0.468800
     37 H4          2.5520   -0.3520    2.6500 h5        1 1EG      0.081100
     38 H5          4.0230    2.2780    0.7490 h2        1 1EG      0.086700
     39 H6          2.3240    0.8160   -1.3740 h1        1 1EG      0.094700
     40 H7          3.1390    3.2180   -2.0480 ho        1 1EG      0.440000
     41 H8          0.4530    2.3390   -1.3400 h1        1 1EG      0.169700
     42 H9          2.0780    4.2980   -0.1120 ho        1 1EG      0.402000
     43 H10         0.5340    3.2070    1.3790 h1        1 1EG      0.108700
     44 H11         0.0260    0.4170    0.1370 h1        1 1EG      0.052200
     45 H12         0.0800    0.6290    1.9630 h1        1 1EG      0.052200
     46 H15        -2.9210   -0.6470   -0.8550 hn        1 1EG      0.412500
     47 H16        -3.9870   -2.4380   -0.0690 h1        1 1EG      0.128700
     48 H17        -5.0850   -1.9850    2.6090 hn        1 1EG      0.350300
     49 H18        -5.3240   -3.3480    1.7440 hn        1 1EG      0.350300
     50 H20        -6.7980   -2.1010    0.4020 hc        1 1EG      0.037700
     51 H21        -6.2280   -0.4310    0.0280 hc        1 1EG      0.037700
     52 H22        -5.8290   -2.9740   -1.6850 hc        1 1EG      0.038700
     53 H23        -6.8540   -1.5190   -2.0520 hc        1 1EG      0.038700
@<TRIPOS>BOND
     1    1    2 2   
     2    2    3 1   
     3    2    7 1   
     4    3    4 2   
     5    4    5 1   
     6    4    6 1   
     7    5   34 1   
     8    5   35 1   
     9    6    8 1   
    10    6   36 1   
    11    7    8 2   
    12    7    9 1   
    13    8   11 1   
    14    9   10 2   
    15   10   11 1   
    16   10   37 1   
    17   11   12 1   
    18   12   13 1   
    19   12   14 1   
    20   12   38 1   
    21   13   18 1   
    22   14   15 1   
    23   14   16 1   
    24   14   39 1   
    25   15   40 1   
    26   16   17 1   
    27   16   18 1   
    28   16   41 1   
    29   17   42 1   
    30   18   19 1   
    31   18   43 1   
    32   19   20 1   
    33   19   44 1   
    34   19   45 1   
    35   20   21 1   
    36   21   22 2   
    37   21   23 2   
    38   21   24 1   
    39   24   25 1   
    40   24   46 1   
    41   25   26 2   
    42   25   27 1   
    43   27   28 1   
    44   27   29 1   
    45   27   47 1   
    46   28   48 1   
    47   28   49 1   
    48   29   30 1   
    49   29   50 1   
    50   29   51 1   
    51   30   31 1   
    52   30   52 1   
    53   30   53 1   
    54   31   32 1   
    55   31   33 1   
@<TRIPOS>SUBSTRUCTURE
     1 1EG         1 TEMP              0 ****  ****    0 ROOT
