@<TRIPOS>MOLECULE
1EG
   56    58     1     0     0
SMALL
bcc


@<TRIPOS>ATOM
      1 O6         -0.0580   -0.0850   -1.8590 o         1 1EG     -0.431100
      2 C6          1.1310    0.0290   -1.5740 c         1 1EG      0.652000
      3 N1          1.5400   -0.0860   -0.1910 nc        1 1EG     -0.633100
      4 C2          2.7990   -0.0300    0.1520 cd        1 1EG      0.730100
      5 N2          3.0830   -0.1490    1.6280 nz        1 1EG     -0.811600
      6 N3          3.9240    0.1960   -0.6720 na        1 1EG     -0.691600
      7 C5          2.2300    0.2680   -2.5060 cc        1 1EG      0.226800
      8 C4          3.5800    0.3230   -2.0190 cd        1 1EG      0.032000
      9 N7          2.2260    0.4520   -3.8880 nc        1 1EG     -0.665000
     10 C8          3.5200    0.6140   -4.2350 cd        1 1EG      0.467400
     11 N9          4.3940    0.5540   -3.1310 na        1 1EG     -0.206900
     12 C1'         5.8440    0.6200   -3.1200 c3        1 1EG      0.198800
     13 O4'         6.3260    0.9140   -4.4270 os        1 1EG     -0.364600
     14 C2'         6.4970   -0.7250   -2.6450 c3        1 1EG      0.107100
     15 O2'         6.9590   -0.5710   -1.3310 oh        1 1EG     -0.613800
     16 C3'         7.5580   -1.0260   -3.7290 c3        1 1EG      0.099100
     17 O3'         8.7950   -0.5560   -3.2430 oh        1 1EG     -0.588800
     18 C4'         7.1050   -0.1770   -4.9410 c3        1 1EG      0.097100
     19 C5'         6.2640   -1.0110   -5.9120 c3        1 1EG      0.162400
     20 O5'         5.8940   -0.1540   -6.9850 os        1 1EG     -0.550500
     21 SBG         5.6560   -0.6680   -8.5180 s6        1 1EG      1.638400
     22 OAF         6.2520    0.2830   -9.2980 o         1 1EG     -0.562800
     23 OAG         5.8620   -2.0170   -8.5490 o         1 1EG     -0.562800
     24 NAQ         3.8810   -0.3960   -8.8600 ny        1 1EG     -0.605700
     25 C           2.9580   -0.4440   -7.6880 c2        1 1EG      0.563300
     26 O           3.4730   -1.0280   -6.6990 o         1 1EG     -0.715300
     27 CA          1.6780    0.1080   -7.7740 c2        1 1EG     -0.389200
     28 N           0.8370   -0.0510   -6.5970 nz        1 1EG     -0.648400
     29 CB          1.1030    0.8820   -8.9020 c3        1 1EG      0.008800
     30 CG          0.2400    0.0660   -9.8520 c3        1 1EG     -0.194400
     31 CD          1.0270   -0.5370  -10.9780 c         1 1EG      0.660100
     32 OE1         0.3940   -1.0740  -12.0450 oh        1 1EG     -0.530100
     33 OE2         2.2630   -0.6100  -11.0460 o         1 1EG     -0.582000
     34 H1          2.1900   -0.2900    2.1340 hn        1 1EG      0.490800
     35 H2          3.5240    0.7160    1.9670 hn        1 1EG      0.490800
     36 H3          4.8670   -0.0110   -0.4100 hn        1 1EG      0.495800
     37 H4          3.9200    0.7580   -5.2530 h5        1 1EG      0.107100
     38 H5          6.1540    1.4880   -2.4620 h2        1 1EG      0.123700
     39 H6          5.7540   -1.5700   -2.6030 h1        1 1EG      0.092700
     40 H7          7.8760   -0.2480   -1.3500 ho        1 1EG      0.464000
     41 H8          7.5930   -2.1190   -3.9730 h1        1 1EG      0.087700
     42 H9          9.4980   -1.1060   -3.6170 ho        1 1EG      0.448000
     43 H10         7.9680    0.3190   -5.4650 h1        1 1EG      0.132700
     44 H11         5.3180   -1.3720   -5.4250 h1        1 1EG      0.080700
     45 H12         6.8630   -1.8770   -6.3040 h1        1 1EG      0.080700
     46 H15         3.5420   -1.1290   -9.5100 hn        1 1EG      0.492300
     47 H16        -0.5670   -0.9620  -11.9710 ho        1 1EG      0.449000
     48 H17         1.2460   -0.7490   -5.9620 hn        1 1EG      0.454467
     49 H18        -0.0940   -0.3580   -6.8900 hn        1 1EG      0.454467
     50 H20         0.4720    1.7260   -8.4990 hc        1 1EG      0.071200
     51 H21         1.9240    1.3790   -9.4890 hc        1 1EG      0.071200
     52 H22        -0.2820   -0.7650   -9.3080 hc        1 1EG      0.088700
     53 H23        -0.5510    0.7350  -10.2940 hc        1 1EG      0.088700
     54 H231        3.6990   -0.9510    1.8060 hn        1 1EG      0.490800
     55 HAQ2        3.7380    0.4850   -9.3690 hn        1 1EG      0.492300
     56 HN3         0.7550    0.8440   -6.1010 hn        1 1EG      0.454467
@<TRIPOS>BOND
     1    1    2 2   
     2    2    3 1   
     3    2    7 1   
     4    3    4 2   
     5    4    5 1   
     6    4    6 1   
     7    5   34 1   
     8    5   35 1   
     9    5   54 1   
    10    6    8 1   
    11    6   36 1   
    12    7    8 2   
    13    7    9 1   
    14    8   11 1   
    15    9   10 2   
    16   10   11 1   
    17   10   37 1   
    18   11   12 1   
    19   12   13 1   
    20   12   14 1   
    21   12   38 1   
    22   13   18 1   
    23   14   15 1   
    24   14   16 1   
    25   14   39 1   
    26   15   40 1   
    27   16   17 1   
    28   16   18 1   
    29   16   41 1   
    30   17   42 1   
    31   18   19 1   
    32   18   43 1   
    33   19   20 1   
    34   19   44 1   
    35   19   45 1   
    36   20   21 1   
    37   21   22 2   
    38   21   23 2   
    39   21   24 1   
    40   24   25 1   
    41   24   46 1   
    42   24   55 1   
    43   25   26 1   
    44   25   27 2   
    45   27   28 1   
    46   27   29 1   
    47   28   48 1   
    48   28   49 1   
    49   28   56 1   
    50   29   30 1   
    51   29   50 1   
    52   29   51 1   
    53   30   31 1   
    54   30   52 1   
    55   30   53 1   
    56   31   32 1   
    57   31   33 2   
    58   32   47 1   
@<TRIPOS>SUBSTRUCTURE
     1 1EG         1 TEMP              0 ****  ****    0 ROOT
