@<TRIPOS>MOLECULE
1EH
   42    30     1     0     0
SMALL
bcc


@<TRIPOS>ATOM
      1 CAB         4.5080   -3.6470    2.5080 c1        1 1EH     -0.121000
      2 CAE         5.6710   -4.2510    2.0650 c1        1 1EH     -0.008000
      3 CL          5.7370   -5.9660    1.8830 cl        1 1EH      0.020000
      4 NAH         6.7460   -3.4980    1.7490 n1        1 1EH     -0.125000
      5 CAF         6.6900   -2.1460    1.8640 c1        1 1EH     -0.118500
      6 CAC         5.5260   -1.5350    2.3080 c1        1 1EH     -0.118500
      7 CAA         4.4480   -2.2860    2.6260 c1        1 1EH     -0.198500
      8 CAD         3.2110   -1.6290    3.1860 c2        1 1EH      0.004000
      9 NAG         2.3580   -1.2230    2.1130 n         1 1EH     -0.360000
     10 CAM         0.9470   -1.3370    2.2440 c2        1 1EH      0.375000
     11 OAP         0.4640   -2.2770    2.8580 o         1 1EH     -0.369000
     12 CAL         0.0370   -0.2450    1.6790 c2        1 1EH     -0.463000
     13 SAK        -0.9920   -0.4230    0.5210 ss        1 1EH      0.719000
     14 CAO        -0.1410    1.0890    2.2340 c1        1 1EH     -0.123000
     15 CAN        -1.3170    1.8180    1.4250 c1        1 1EH     -0.162000
     16 CAJ        -1.8110    0.9000    0.4090 c1        1 1EH     -0.350000
     17 CAV        -3.0520    1.1330   -0.5100 c1        1 1EH      0.024000
     18 CAY        -4.0770    0.4880    0.2060 c2        1 1EH     -0.123000
     19 CAX        -5.3410    0.2760   -0.3990 c1        1 1EH     -0.113000
     20 CAT        -5.5740    0.7080   -1.7140 c1        1 1EH     -0.121000
     21 CAQ        -4.5630    1.3460   -2.4250 c1        1 1EH     -0.198500
     22 SAS        -4.5110    1.9380   -3.8850 s         1 1EH      0.619000
     23 CAR        -3.2800    1.5620   -1.8130 c1        1 1EH     -0.061000
     24 CAU        -2.3320    2.3170   -2.8750 c1        1 1EH     -0.113000
     25 CAW        -3.0930    2.5270   -4.0990 c1        1 1EH     -0.395000
     26 CAZ        -3.1650    3.0340   -5.5700 c1        1 1EH      0.372000
     27 OBB        -4.2210    2.9540   -6.1970 o         1 1EH     -0.367000
     28 NBA        -2.0270    3.6610   -6.1680 n2        1 1EH     -0.428000
     29 H1          3.7230   -4.1990    2.7390 ha        1 1EH      0.161000
     30 H2          7.4520   -1.6160    1.6390 ha        1 1EH      0.156000
     31 H3          5.4860   -0.5760    2.3900 ha        1 1EH      0.156000
     32 H4          2.7420   -2.2550    3.7500 h4        1 1EH      0.116000
     33 H5          3.4750   -0.8280    3.7240 h4        1 1EH      0.116000
     34 H6          2.7210   -0.9140    1.3310 hn        1 1EH      0.224000
     35 H7          0.3740    1.4780    2.9780 DU        1 1EH      0.158667
     36 H8         -1.6460    2.7240    1.5870 DU        1 1EH      0.158667
     37 H9         -3.9180    0.1870    1.1170 ha        1 1EH      0.140000
     38 H10        -6.0540   -0.1730    0.1010 ha        1 1EH      0.140000
     39 H11        -6.4660    0.5580   -2.1390 ha        1 1EH      0.161000
     40 H12        -1.4030    2.5870   -2.7230 DU        1 1EH      0.158667
     41 H13        -1.2390    3.7070   -5.7100 hn        1 1EH      0.228500
     42 H14        -2.0930    4.0310   -7.0070 hn        1 1EH      0.228500
@<TRIPOS>BOND
     1    1    7 1   
     2    1   29 1   
     3    2    4 1   
     4    5    6 1   
     5    5   30 1   
     6    6   31 1   
     7    8    9 1   
     8    8   32 1   
     9    8   33 1   
    10    9   10 1   
    11    9   34 1   
    12   10   11 1   
    13   10   12 1   
    14   12   13 1   
    15   12   14 1   
    16   13   16 1   
    17   14   15 1   
    18   15   16 1   
    19   17   18 1   
    20   17   23 1   
    21   18   19 1   
    22   18   37 1   
    23   19   38 1   
    24   20   21 1   
    25   20   39 1   
    26   22   25 1   
    27   24   25 1   
    28   26   27 1   
    29   28   41 1   
    30   28   42 1   
@<TRIPOS>SUBSTRUCTURE
     1 1EH         1 TEMP              0 ****  ****    0 ROOT
