@<TRIPOS>MOLECULE
1EH
   44    47     1     0     0
SMALL
bcc


@<TRIPOS>ATOM
      1 CAB         0.3730   -0.3060    2.3720 ca        1 1EH     -0.244300
      2 CAE         1.3250    0.2810    3.2350 ca        1 1EH      0.505300
      3 CL          2.6600   -0.6570    3.7140 cl        1 1EH     -0.086000
      4 NAH         1.2220    1.5540    3.6940 nb        1 1EH     -0.601000
      5 CAF         0.1610    2.2730    3.2960 ca        1 1EH      0.438200
      6 CAC        -0.8490    1.7770    2.4430 ca        1 1EH     -0.216300
      7 CAA        -0.7280    0.4650    1.9790 ca        1 1EH     -0.136300
      8 CAD        -1.7350   -0.1040    1.0380 c3        1 1EH      0.168100
      9 NAG        -2.6750   -1.0350    1.7510 n4        1 1EH     -0.678800
     10 CAM        -3.7480   -1.5690    0.8160 c         1 1EH      0.607700
     11 OAP        -4.4190   -0.7110    0.2570 o         1 1EH     -0.413100
     12 CAL        -3.8730   -2.9990    0.7170 cc        1 1EH     -0.288700
     13 SAK        -2.8440   -4.1980    1.2870 ss        1 1EH      0.113200
     14 CAO        -4.9800   -3.5610    0.0620 cd        1 1EH     -0.008000
     15 CAN        -4.9320   -4.9750    0.0730 cd        1 1EH     -0.168000
     16 CAJ        -3.7980   -5.4540    0.7260 cc        1 1EH      0.005900
     17 CAV        -3.4630   -6.8440    0.9480 ca        1 1EH      0.014000
     18 CAY        -3.0300   -7.2650    2.2020 ca        1 1EH     -0.099000
     19 CAX        -2.7210   -8.6160    2.4560 ca        1 1EH     -0.063000
     20 CAT        -2.8380   -9.5730    1.4640 ca        1 1EH     -0.080000
     21 CAQ        -3.2670   -9.1770    0.1890 ca        1 1EH     -0.030100
     22 SAS        -3.4850  -10.1370   -1.1690 ss        1 1EH      0.119500
     23 CAR        -3.5810   -7.8110   -0.0820 ca        1 1EH     -0.097800
     24 CAU        -3.9840   -7.6370   -1.4400 cc        1 1EH      0.029800
     25 CAW        -3.9770   -8.8410   -2.1420 cd        1 1EH     -0.281600
     26 CAZ        -4.3560   -8.8880   -3.5260 c         1 1EH      0.606300
     27 OBB        -4.6980   -7.9830   -4.2740 o         1 1EH     -0.411100
     28 NBA        -4.3430  -10.2610   -4.1820 n4        1 1EH     -0.761400
     29 H1          0.5190   -1.3300    2.0020 ha        1 1EH      0.150000
     30 H2          0.1180    3.3120    3.6830 h4        1 1EH      0.065100
     31 H3         -1.6860    2.4250    2.1470 ha        1 1EH      0.166000
     32 H4         -1.2270   -0.6910    0.2190 hx        1 1EH      0.122200
     33 H5         -2.3590    0.7130    0.5660 hx        1 1EH      0.122200
     34 H6         -3.1380   -0.5120    2.5070 hn        1 1EH      0.458300
     35 H7         -5.7890   -2.9750   -0.3940 ha        1 1EH      0.202000
     36 H8         -5.7190   -5.6060   -0.3540 ha        1 1EH      0.189000
     37 H9         -2.9380   -6.5400    3.0280 ha        1 1EH      0.157000
     38 H10        -2.3880   -8.9080    3.4680 ha        1 1EH      0.177000
     39 H11        -2.6000  -10.6300    1.6710 ha        1 1EH      0.176000
     40 H12        -4.2620   -6.6680   -1.8750 ha        1 1EH      0.189000
     41 H13        -4.6310  -10.1730   -5.1670 hn        1 1EH      0.474133
     42 H14        -4.9920  -10.8900   -3.7000 hn        1 1EH      0.474133
     43 HAG2       -2.1410   -1.7990    2.1750 hn        1 1EH      0.458300
     44 HBA3       -3.4000  -10.6620   -4.1470 hn        1 1EH      0.474133
@<TRIPOS>BOND
     1    1    2 ar  
     2    1    7 ar  
     3    1   29 1   
     4    2    3 1   
     5    2    4 ar  
     6    4    5 ar  
     7    5    6 ar  
     8    5   30 1   
     9    6    7 ar  
    10    6   31 1   
    11    7    8 1   
    12    8    9 1   
    13    8   32 1   
    14    8   33 1   
    15    9   10 1   
    16    9   34 1   
    17    9   43 1   
    18   10   11 2   
    19   10   12 1   
    20   12   13 1   
    21   12   14 2   
    22   13   16 1   
    23   14   15 1   
    24   14   35 1   
    25   15   16 2   
    26   15   36 1   
    27   16   17 1   
    28   17   18 ar  
    29   17   23 ar  
    30   18   19 ar  
    31   18   37 1   
    32   19   20 ar  
    33   19   38 1   
    34   20   21 ar  
    35   20   39 1   
    36   21   22 1   
    37   21   23 ar  
    38   22   25 1   
    39   23   24 1   
    40   24   25 2   
    41   24   40 1   
    42   25   26 1   
    43   26   27 2   
    44   26   28 1   
    45   28   41 1   
    46   28   42 1   
    47   28   44 1   
@<TRIPOS>SUBSTRUCTURE
     1 1EH         1 TEMP              0 ****  ****    0 ROOT
