@<TRIPOS>MOLECULE
1EH
   44    47     1     0     0
SMALL
bcc


@<TRIPOS>ATOM
      1 CAB         0.3710   -0.3000    2.3530 ca        1 1EH     -0.244300
      2 CAE         1.3150    0.2950    3.2190 ca        1 1EH      0.505300
      3 CL          2.6310   -0.6460    3.7410 cl        1 1EH     -0.086000
      4 NAH         1.2170    1.5790    3.6490 nb        1 1EH     -0.601000
      5 CAF         0.1720    2.3000    3.2170 ca        1 1EH      0.438200
      6 CAC        -0.8290    1.7960    2.3570 ca        1 1EH     -0.216300
      7 CAA        -0.7150    0.4730    1.9250 ca        1 1EH     -0.136300
      8 CAD        -1.7120   -0.1060    0.9790 c3        1 1EH      0.168100
      9 NAG        -2.6720   -1.0140    1.6960 n4        1 1EH     -0.678800
     10 CAM        -3.7350   -1.5570    0.7540 c         1 1EH      0.607700
     11 OAP        -4.3920   -0.7050    0.1700 o         1 1EH     -0.413100
     12 CAL        -3.8670   -2.9880    0.6770 cc        1 1EH     -0.288700
     13 SAK        -2.8540   -4.1830    1.2820 ss        1 1EH      0.113200
     14 CAO        -4.9680   -3.5540    0.0160 cd        1 1EH     -0.008000
     15 CAN        -4.9300   -4.9680    0.0520 cd        1 1EH     -0.168000
     16 CAJ        -3.8080   -5.4420    0.7290 cc        1 1EH      0.005900
     17 CAV        -3.4850   -6.8300    0.9790 ca        1 1EH      0.014000
     18 CAY        -3.0730   -7.2330    2.2450 ca        1 1EH     -0.099000
     19 CAX        -2.7760   -8.5820    2.5270 ca        1 1EH     -0.063000
     20 CAT        -2.8850   -9.5550    1.5500 ca        1 1EH     -0.080000
     21 CAQ        -3.2930   -9.1770    0.2620 ca        1 1EH     -0.030100
     22 SAS        -3.4980  -10.1590   -1.0830 ss        1 1EH      0.119500
     23 CAR        -3.5950   -7.8140   -0.0360 ca        1 1EH     -0.097800
     24 CAU        -3.9780   -7.6600   -1.4030 cc        1 1EH      0.029800
     25 CAW        -3.9690   -8.8760   -2.0840 cd        1 1EH     -0.281600
     26 CAZ        -4.3290   -8.9440   -3.4730 c         1 1EH      0.606300
     27 OBB        -4.6530   -8.0500   -4.2400 o         1 1EH     -0.411100
     28 NBA        -4.3140  -10.3290   -4.1050 n4        1 1EH     -0.761400
     29 H1          0.5120   -1.3340    2.0080 ha        1 1EH      0.150000
     30 H2          0.1330    3.3480    3.5800 h4        1 1EH      0.065100
     31 H3         -1.6540    2.4460    2.0340 ha        1 1EH      0.166000
     32 H4         -1.1960   -0.7140    0.1810 hx        1 1EH      0.121700
     33 H5         -2.3200    0.7070    0.4800 hx        1 1EH      0.121700
     34 H6         -3.1420   -0.4710    2.4330 hn        1 1EH      0.458300
     35 H7         -5.7670   -2.9710   -0.4620 ha        1 1EH      0.202000
     36 H8         -5.7150   -5.6010   -0.3760 ha        1 1EH      0.189000
     37 H9         -2.9880   -6.4950    3.0610 ha        1 1EH      0.157000
     38 H10        -2.4580   -8.8580    3.5480 ha        1 1EH      0.177000
     39 H11        -2.6570  -10.6100    1.7770 ha        1 1EH      0.176000
     40 H12        -4.2430   -6.6970   -1.8580 ha        1 1EH      0.189000
     41 H13        -3.3750  -10.7340   -4.0500 hn        1 1EH      0.474133
     42 H14        -4.9750  -10.9450   -3.6220 hn        1 1EH      0.474133
     43 HAG2       -2.1520   -1.7740    2.1430 hn        1 1EH      0.458300
     44 HBA3       -4.5890  -10.2550   -5.0950 hn        1 1EH      0.474133
@<TRIPOS>BOND
     1    1    2 ar  
     2    1    7 ar  
     3    1   29 1   
     4    2    3 1   
     5    2    4 ar  
     6    4    5 ar  
     7    5    6 ar  
     8    5   30 1   
     9    6    7 ar  
    10    6   31 1   
    11    7    8 1   
    12    8    9 1   
    13    8   32 1   
    14    8   33 1   
    15    9   10 1   
    16    9   34 1   
    17    9   43 1   
    18   10   11 2   
    19   10   12 1   
    20   12   13 1   
    21   12   14 2   
    22   13   16 1   
    23   14   15 1   
    24   14   35 1   
    25   15   16 2   
    26   15   36 1   
    27   16   17 1   
    28   17   18 ar  
    29   17   23 ar  
    30   18   19 ar  
    31   18   37 1   
    32   19   20 ar  
    33   19   38 1   
    34   20   21 ar  
    35   20   39 1   
    36   21   22 1   
    37   21   23 ar  
    38   22   25 1   
    39   23   24 1   
    40   24   25 2   
    41   24   40 1   
    42   25   26 1   
    43   26   27 2   
    44   26   28 1   
    45   28   41 1   
    46   28   42 1   
    47   28   44 1   
@<TRIPOS>SUBSTRUCTURE
     1 1EH         1 TEMP              0 ****  ****    0 ROOT
