@<TRIPOS>MOLECULE
1EH
   42    45     1     0     0
SMALL
bcc


@<TRIPOS>ATOM
      1 CAB        -5.3640   -0.5400   -0.5010 ca        1 1EH     -0.229300
      2 CAE        -6.2130   -0.4200   -1.6210 ca        1 1EH      0.485300
      3 CL         -6.9990   -1.8330   -2.1860 cl        1 1EH     -0.153000
      4 NAH        -6.4390    0.7460   -2.2720 nb        1 1EH     -0.652000
      5 CAF        -5.8070    1.8360   -1.8020 ca        1 1EH      0.404200
      6 CAC        -4.9430    1.8250   -0.6930 ca        1 1EH     -0.229300
      7 CAA        -4.7220    0.6110   -0.0340 ca        1 1EH     -0.080300
      8 CAD        -3.8290    0.5560    1.1750 c3        1 1EH      0.128300
      9 NAG        -2.4290    0.7370    0.9060 n         1 1EH     -0.559900
     10 CAM        -1.8530    2.0010    0.8750 c         1 1EH      0.704700
     11 OAP        -2.5100    3.0140    1.1930 o         1 1EH     -0.600100
     12 CAL        -0.4320    2.0850    0.5020 cc        1 1EH     -0.205700
     13 SAK         0.5690    0.8010    0.1150 ss        1 1EH      0.081200
     14 CAO         0.2490    3.2930    0.4440 cd        1 1EH     -0.080000
     15 CAN         1.6060    3.1120    0.0640 cd        1 1EH     -0.161000
     16 CAJ         1.9120    1.7720   -0.1510 cc        1 1EH     -0.052100
     17 CAV         3.2010    1.2760   -0.5750 ca        1 1EH      0.036000
     18 CAY         4.0080    2.0590   -1.4010 ca        1 1EH     -0.115000
     19 CAX         5.2620    1.6070   -1.8390 ca        1 1EH     -0.109000
     20 CAT         5.7420    0.3620   -1.4670 ca        1 1EH     -0.096000
     21 CAQ         4.9550   -0.4450   -0.6370 ca        1 1EH     -0.060100
     22 SAS         5.3010   -1.9860   -0.0470 ss        1 1EH      0.040500
     23 CAR         3.6820    0.0060   -0.1850 ca        1 1EH     -0.089800
     24 CAU         3.0600   -0.9810    0.6580 cc        1 1EH     -0.062200
     25 CAW         3.8410   -2.1000    0.8070 cd        1 1EH     -0.166600
     26 CAZ         3.4230   -3.2600    1.6150 c         1 1EH      0.700300
     27 OBB         2.2450   -3.4000    2.0050 o         1 1EH     -0.603100
     28 NBA         4.3690   -4.2090    1.9250 n         1 1EH     -0.673000
     29 H1         -5.2190   -1.5130   -0.0110 ha        1 1EH      0.156000
     30 H2         -6.0120    2.7730   -2.3520 h4        1 1EH      0.031100
     31 H3         -4.4520    2.7470   -0.3440 ha        1 1EH      0.173000
     32 H4         -4.1600    1.3650    1.8940 h1        1 1EH      0.077200
     33 H5         -3.9500   -0.4450    1.6840 h1        1 1EH      0.077200
     34 H6         -1.9660   -0.0080    0.4390 hn        1 1EH      0.307500
     35 H7         -0.2060    4.2630    0.6680 ha        1 1EH      0.178000
     36 H8          2.3180    3.9360   -0.0330 ha        1 1EH      0.162000
     37 H9          3.6530    3.0510   -1.7230 ha        1 1EH      0.143000
     38 H10         5.8670    2.2560   -2.4910 ha        1 1EH      0.141000
     39 H11         6.7230    0.0090   -1.8160 ha        1 1EH      0.143000
     40 H12         2.0790   -0.8500    1.1340 ha        1 1EH      0.180000
     41 H13         5.3210   -4.0810    1.6980 hn        1 1EH      0.315500
     42 H14         4.1110   -4.9770    2.4930 hn        1 1EH      0.315500
@<TRIPOS>BOND
     1    1    2 ar  
     2    1    7 ar  
     3    1   29 1   
     4    2    3 1   
     5    2    4 ar  
     6    4    5 ar  
     7    5    6 ar  
     8    5   30 1   
     9    6    7 ar  
    10    6   31 1   
    11    7    8 1   
    12    8    9 1   
    13    8   32 1   
    14    8   33 1   
    15    9   10 1   
    16    9   34 1   
    17   10   11 2   
    18   10   12 1   
    19   12   13 1   
    20   12   14 2   
    21   13   16 1   
    22   14   15 1   
    23   14   35 1   
    24   15   16 2   
    25   15   36 1   
    26   16   17 1   
    27   17   18 ar  
    28   17   23 ar  
    29   18   19 ar  
    30   18   37 1   
    31   19   20 ar  
    32   19   38 1   
    33   20   21 ar  
    34   20   39 1   
    35   21   22 1   
    36   21   23 ar  
    37   22   25 1   
    38   23   24 1   
    39   24   25 2   
    40   24   40 1   
    41   25   26 1   
    42   26   27 2   
    43   26   28 1   
    44   28   41 1   
    45   28   42 1   
@<TRIPOS>SUBSTRUCTURE
     1 1EH         1 TEMP              0 ****  ****    0 ROOT
