@<TRIPOS>MOLECULE
1EH
   44    47     1     0     0
SMALL
bcc


@<TRIPOS>ATOM
      1 CAB         0.3940   -0.2970    2.3160 ca        1 1EH     -0.244300
      2 CAE         1.3650    0.2900    3.1560 ca        1 1EH      0.505300
      3 Cl          2.7170   -0.6420    3.5960 cl        1 1EH     -0.086000
      4 NAH         1.2660    1.5610    3.6250 nb        1 1EH     -0.601000
      5 CAF         0.1920    2.2750    3.2590 ca        1 1EH      0.438200
      6 CAC        -0.8370    1.7780    2.4290 ca        1 1EH     -0.216300
      7 CAA        -0.7210    0.4690    1.9560 ca        1 1EH     -0.136300
      8 CAD        -1.7490   -0.1010    1.0380 c3        1 1EH      0.168100
      9 NAG        -2.6640   -1.0420    1.7700 ny        1 1EH     -0.678800
     10 CAM        -3.7580   -1.5770    0.8610 c         1 1EH      0.607700
     11 OAP        -4.4490   -0.7210    0.3240 o         1 1EH     -0.413100
     12 CAL        -3.8770   -3.0080    0.7550 cc        1 1EH     -0.288700
     13 SAK        -2.8260   -4.2030    1.2920 ss        1 1EH      0.113200
     14 CAO        -4.9970   -3.5730    0.1270 cd        1 1EH     -0.008000
     15 CAN        -4.9390   -4.9870    0.1280 cd        1 1EH     -0.168000
     16 CAJ        -3.7860   -5.4620    0.7480 cc        1 1EH      0.005900
     17 CAV        -3.4360   -6.8510    0.9530 ca        1 1EH      0.014000
     18 CAY        -2.9690   -7.2770    2.1920 ca        1 1EH     -0.099000
     19 CAX        -2.6450   -8.6270    2.4310 ca        1 1EH     -0.063000
     20 CAT        -2.7810   -9.5790    1.4370 ca        1 1EH     -0.080000
     21 CAQ        -3.2460   -9.1780    0.1750 ca        1 1EH     -0.030100
     22 SAS        -3.4940  -10.1320   -1.1820 ss        1 1EH      0.119500
     23 CAR        -3.5750   -7.8130   -0.0790 ca        1 1EH     -0.097800
     24 CAU        -4.0150   -7.6330   -1.4260 cc        1 1EH      0.029800
     25 CAW        -4.0190   -8.8330   -2.1340 cd        1 1EH     -0.281600
     26 CAZ        -4.4340   -8.8740   -3.5080 c         1 1EH      0.606300
     27 OBB        -4.8000   -7.9670   -4.2420 o         1 1EH     -0.411100
     28 NBA        -4.4290  -10.2440   -4.1730 nz        1 1EH     -0.761400
     29 H1          0.5360   -1.3190    1.9370 ha        1 1EH      0.150000
     30 H2          0.1530    3.3120    3.6520 h4        1 1EH      0.065100
     31 H3         -1.6850    2.4230    2.1580 ha        1 1EH      0.166000
     32 H4         -1.2590   -0.6800    0.2030 hx        1 1EH      0.121700
     33 H5         -2.3900    0.7140    0.5870 hx        1 1EH      0.121700
     34 H6         -3.1100   -0.5260    2.5410 hn        1 1EH      0.458300
     35 H7         -5.8210   -2.9890   -0.3050 ha        1 1EH      0.202000
     36 H8         -5.7340   -5.6200   -0.2830 ha        1 1EH      0.189000
     37 H9         -2.8600   -6.5560    3.0210 ha        1 1EH      0.157000
     38 H10        -2.2830   -8.9230    3.4310 ha        1 1EH      0.177000
     39 H11        -2.5320  -10.6360    1.6300 ha        1 1EH      0.176000
     40 H12        -4.3100   -6.6630   -1.8470 ha        1 1EH      0.189000
     41 H13        -3.4840  -10.6390   -4.1640 hn        1 1EH      0.474133
     42 H14        -5.0630  -10.8800   -3.6780 hn        1 1EH      0.474133
     43 HAG2       -2.1150   -1.8050    2.1750 hn        1 1EH      0.458300
     44 HBA3       -4.7450  -10.1510   -5.1490 hn        1 1EH      0.474133
@<TRIPOS>BOND
     1    1    2 ar  
     2    1    7 ar  
     3    1   29 1   
     4    2    3 1   
     5    2    4 ar  
     6    4    5 ar  
     7    5    6 ar  
     8    5   30 1   
     9    6    7 ar  
    10    6   31 1   
    11    7    8 1   
    12    8    9 1   
    13    8   32 1   
    14    8   33 1   
    15    9   10 1   
    16    9   34 1   
    17    9   43 1   
    18   10   11 2   
    19   10   12 1   
    20   12   13 1   
    21   12   14 2   
    22   13   16 1   
    23   14   15 1   
    24   14   35 1   
    25   15   16 2   
    26   15   36 1   
    27   16   17 1   
    28   17   18 ar  
    29   17   23 ar  
    30   18   19 ar  
    31   18   37 1   
    32   19   20 ar  
    33   19   38 1   
    34   20   21 ar  
    35   20   39 1   
    36   21   22 1   
    37   21   23 ar  
    38   22   25 1   
    39   23   24 1   
    40   24   25 2   
    41   24   40 1   
    42   25   26 1   
    43   26   27 2   
    44   26   28 1   
    45   28   41 1   
    46   28   42 1   
    47   28   44 1   
@<TRIPOS>SUBSTRUCTURE
     1 1EH         1 TEMP              0 ****  ****    0 ROOT
