@<TRIPOS>MOLECULE
1EI
   53    55     1     0     0
SMALL
bcc


@<TRIPOS>ATOM
      1 O6          0.2520    0.3230   -4.8720 o         1 1EI     -0.691500
      2 C6          1.1040   -0.0580   -4.0370 c         1 1EI      0.648000
      3 N1          0.8230   -1.1380   -3.1790 n         1 1EI     -0.469400
      4 C2          1.7950   -1.6630   -2.3350 cc        1 1EI      0.512800
      5 N3          3.0520   -1.2650   -2.2180 nd        1 1EI     -0.592100
      6 C5          2.4400    0.4840   -3.8840 cc        1 1EI      0.169800
      7 C4          3.3860   -0.1720   -3.0100 cd        1 1EI      0.103800
      8 N7          3.0290    1.5950   -4.4890 nc        1 1EI     -0.690000
      9 C8          4.2890    1.6170   -4.0260 cd        1 1EI      0.462400
     10 N9          4.5720    0.5580   -3.1250 na        1 1EI     -0.213900
     11 C1'         5.9230    0.2940   -2.6570 c3        1 1EI      0.240800
     12 O4'         6.8300    0.8200   -3.6370 os        1 1EI     -0.388600
     13 C2'         6.3090   -1.2050   -2.4700 c3        1 1EI      0.081100
     14 O2'         7.0250   -1.2480   -1.2510 oh        1 1EI     -0.581800
     15 C3'         7.2520   -1.5310   -3.6590 c3        1 1EI      0.088100
     16 O3'         8.5220   -1.9330   -3.2170 oh        1 1EI     -0.569800
     17 C4'         7.3140   -0.2260   -4.4860 c3        1 1EI      0.092100
     18 C5'         6.4690   -0.3750   -5.7540 c3        1 1EI      0.167400
     19 O5'         6.2880    0.9110   -6.3260 os        1 1EI     -0.565500
     20 SBF         5.8310    1.1710   -7.8560 s6        1 1EI      1.892000
     21 OAE         5.8930    2.4950   -8.0970 o         1 1EI     -0.624800
     22 OAF         6.2130    0.1180   -8.6170 o         1 1EI     -0.624800
     23 NAQ         3.4780   -0.4710   -9.3540 nh        1 1EI     -0.856600
     24 C           3.1490    0.4250   -8.3810 c2        1 1EI      0.506100
     25 O           4.1650    0.8950   -7.5970 os        1 1EI     -0.576800
     26 CA          1.8730    0.9320   -8.1430 c2        1 1EI     -0.312200
     27 N           1.6580    1.8970   -7.0810 n4        1 1EI     -0.665400
     28 CB          0.6630    0.5270   -8.9120 c3        1 1EI      0.006800
     29 CG         -0.2360   -0.4410   -8.1640 c3        1 1EI     -0.198400
     30 CD          0.2890   -1.8440   -8.1690 c         1 1EI      0.642100
     31 OE1        -0.3710   -2.7980   -7.4540 oh        1 1EI     -0.564100
     32 OE2         1.2880   -2.2710   -8.7550 o         1 1EI     -0.529000
     33 H1         -0.0960   -1.5290   -3.1830 hn        1 1EI      0.355500
     34 H2          1.4790   -2.5190   -1.6950 h5        1 1EI      0.082800
     35 H3          5.0700    2.3480   -4.2920 h5        1 1EI      0.102100
     36 H4          6.1080    0.8930   -1.7140 h2        1 1EI      0.145700
     37 H5          5.4390   -1.9050   -2.4420 h1        1 1EI      0.095700
     38 H6          7.2310   -2.1780   -1.0780 ho        1 1EI      0.437000
     39 H7          6.8730   -2.3980   -4.2650 h1        1 1EI      0.101700
     40 H8          8.8590   -1.2540   -2.6100 ho        1 1EI      0.430000
     41 H9          8.3660    0.0770   -4.7420 h1        1 1EI      0.120700
     42 H10         5.4510   -0.7860   -5.5170 h1        1 1EI      0.065700
     43 H11         7.0030   -1.0410   -6.4860 h1        1 1EI      0.065700
     44 H14         2.7430   -1.0260   -9.7460 hn        1 1EI      0.473800
     45 H15        -1.1750   -2.4250   -7.0640 ho        1 1EI      0.436000
     46 H16         2.5570    2.2460   -6.7280 hn        1 1EI      0.461133
     47 H17         1.1390    1.4500   -6.3060 hn        1 1EI      0.461133
     48 H19         0.0560    1.4420   -9.1680 hc        1 1EI      0.074200
     49 H20         0.9600    0.0710   -9.8940 hc        1 1EI      0.074200
     50 H21        -1.2490   -0.4500   -8.6530 hc        1 1EI      0.092700
     51 H22        -0.3750   -0.1170   -7.0960 hc        1 1EI      0.092700
     52 HAQ2        4.3930   -0.8670   -9.3750 hn        1 1EI      0.473800
     53 HN3         1.1110    2.6810   -7.4440 hn        1 1EI      0.461133
@<TRIPOS>BOND
     1    1    2 2   
     2    2    3 1   
     3    2    6 1   
     4    3    4 1   
     5    3   33 1   
     6    4    5 2   
     7    4   34 1   
     8    5    7 1   
     9    6    7 2   
    10    6    8 1   
    11    7   10 1   
    12    8    9 2   
    13    9   10 1   
    14    9   35 1   
    15   10   11 1   
    16   11   12 1   
    17   11   13 1   
    18   11   36 1   
    19   12   17 1   
    20   13   14 1   
    21   13   15 1   
    22   13   37 1   
    23   14   38 1   
    24   15   16 1   
    25   15   17 1   
    26   15   39 1   
    27   16   40 1   
    28   17   18 1   
    29   17   41 1   
    30   18   19 1   
    31   18   42 1   
    32   18   43 1   
    33   19   20 1   
    34   20   21 2   
    35   20   22 2   
    36   20   25 1   
    37   23   24 1   
    38   23   44 1   
    39   23   52 1   
    40   24   25 1   
    41   24   26 2   
    42   26   27 1   
    43   26   28 1   
    44   27   46 1   
    45   27   47 1   
    46   27   53 1   
    47   28   29 1   
    48   28   48 1   
    49   28   49 1   
    50   29   30 1   
    51   29   50 1   
    52   29   51 1   
    53   30   31 1   
    54   30   32 2   
    55   31   45 1   
@<TRIPOS>SUBSTRUCTURE
     1 1EI         1 TEMP              0 ****  ****    0 ROOT
