@<TRIPOS>MOLECULE
1EI
   53    55     1     0     0
SMALL
bcc


@<TRIPOS>ATOM
      1 O6          0.0660    0.1620   -4.4720 o         1 1EI     -0.712500
      2 C6          1.0030   -0.1860   -3.7170 c         1 1EI      0.647000
      3 N1          0.7880   -1.1020   -2.6720 n         1 1EI     -0.463400
      4 C2          1.8380   -1.5420   -1.8710 cc        1 1EI      0.510800
      5 N3          3.1150   -1.2030   -1.9620 nd        1 1EI     -0.579100
      6 C5          2.3760    0.2610   -3.8340 cc        1 1EI      0.152800
      7 C4          3.3940   -0.2790   -2.9630 cd        1 1EI      0.113800
      8 N7          2.9350    1.1970   -4.7050 nc        1 1EI     -0.745000
      9 C8          4.2420    1.2340   -4.3920 cd        1 1EI      0.488400
     10 N9          4.5830    0.3440   -3.3470 na        1 1EI     -0.207900
     11 C1'         5.9540    0.1560   -2.8910 c3        1 1EI      0.238800
     12 O4'         6.8240    0.6470   -3.9150 os        1 1EI     -0.382600
     13 C2'         6.3770   -1.3220   -2.6230 c3        1 1EI      0.082100
     14 O2'         7.0360   -1.2950   -1.3750 oh        1 1EI     -0.581800
     15 C3'         7.3690   -1.6690   -3.7660 c3        1 1EI      0.084100
     16 O3'         8.6540   -1.9270   -3.2610 oh        1 1EI     -0.570800
     17 C4'         7.3380   -0.4380   -4.6990 c3        1 1EI      0.092100
     18 C5'         6.4690   -0.7390   -5.9230 c3        1 1EI      0.159400
     19 O5'         6.0990    0.4710   -6.5430 os        1 1EI     -0.567500
     20 SBF         5.6380    0.5380   -8.1580 s6        1 1EI      1.701100
     21 OAE         6.0750    1.7650   -8.5830 o         1 1EI     -0.605300
     22 OAF         6.0870   -0.6630   -8.6800 o         1 1EI     -0.605300
     23 NAQ         3.9830    0.4290   -8.0690 n         1 1EI     -0.670300
     24 C           3.0670    1.3940   -7.6830 c         1 1EI      0.693100
     25 O           3.3810    2.5690   -7.4520 o         1 1EI     -0.528100
     26 CA          1.5970    0.9270   -7.5200 c3        1 1EI      0.050500
     27 N           0.8720    1.8420   -6.5880 n4        1 1EI     -0.840600
     28 CB          0.9290    0.8160   -8.8940 c3        1 1EI     -0.096400
     29 CG         -0.1110   -0.2810   -8.9320 c3        1 1EI     -0.142400
     30 CD          0.4560   -1.6650   -8.9340 c         1 1EI      0.628100
     31 OE1         1.7960   -1.7550   -8.6550 oh        1 1EI     -0.662100
     32 OE2        -0.1320   -2.7230   -9.1420 o         1 1EI     -0.486000
     33 H1         -0.1400   -1.4280   -2.5030 hn        1 1EI      0.360500
     34 H2          1.5680   -2.2660   -1.0670 h5        1 1EI      0.085800
     35 H3          5.0160    1.8540   -4.8830 h5        1 1EI      0.121100
     36 H4          6.1310    0.8110   -1.9840 h2        1 1EI      0.143700
     37 H5          5.5190   -2.0410   -2.5980 h1        1 1EI      0.084700
     38 H6          7.4030   -2.1800   -1.2280 ho        1 1EI      0.438000
     39 H7          7.0780   -2.6130   -4.3000 h1        1 1EI      0.103700
     40 H8          8.9420   -1.1470   -2.7630 ho        1 1EI      0.428000
     41 H9          8.3630   -0.0970   -5.0100 h1        1 1EI      0.124700
     42 H10         7.0540   -1.3830   -6.6370 h1        1 1EI      0.055200
     43 H11         5.5280   -1.2710   -5.6140 h1        1 1EI      0.055200
     44 H14         2.0800   -2.6830   -8.7290 ho        1 1EI      0.469000
     45 H15         1.5970   -0.0930   -7.0180 hx        1 1EI      0.139700
     46 H16         1.4910    2.0390   -5.7710 hn        1 1EI      0.480133
     47 H17         0.6440    2.7230   -7.0520 hn        1 1EI      0.480133
     48 H19         1.7230    0.5900   -9.6590 hc        1 1EI      0.094200
     49 H20         0.4580    1.7900   -9.1970 hc        1 1EI      0.094200
     50 H21        -0.8180   -0.2050   -8.0620 hc        1 1EI      0.104200
     51 H22        -0.7260   -0.1770   -9.8720 hc        1 1EI      0.104200
     52 HAQ2        3.5650   -0.4540   -8.3030 hn        1 1EI      0.359500
     53 HN3         0.0200    1.3800   -6.2410 hn        1 1EI      0.480133
@<TRIPOS>BOND
     1    1    2 2   
     2    2    3 1   
     3    2    6 1   
     4    3    4 1   
     5    3   33 1   
     6    4    5 2   
     7    4   34 1   
     8    5    7 1   
     9    6    7 2   
    10    6    8 1   
    11    7   10 1   
    12    8    9 2   
    13    9   10 1   
    14    9   35 1   
    15   10   11 1   
    16   11   12 1   
    17   11   13 1   
    18   11   36 1   
    19   12   17 1   
    20   13   14 1   
    21   13   15 1   
    22   13   37 1   
    23   14   38 1   
    24   15   16 1   
    25   15   17 1   
    26   15   39 1   
    27   16   40 1   
    28   17   18 1   
    29   17   41 1   
    30   18   19 1   
    31   18   42 1   
    32   18   43 1   
    33   19   20 1   
    34   20   21 2   
    35   20   22 2   
    36   20   23 1   
    37   23   24 1   
    38   23   52 1   
    39   24   25 2   
    40   24   26 1   
    41   26   27 1   
    42   26   28 1   
    43   26   45 1   
    44   27   46 1   
    45   27   47 1   
    46   27   53 1   
    47   28   29 1   
    48   28   48 1   
    49   28   49 1   
    50   29   30 1   
    51   29   50 1   
    52   29   51 1   
    53   30   31 1   
    54   30   32 2   
    55   31   44 1   
@<TRIPOS>SUBSTRUCTURE
     1 1EI         1 TEMP              0 ****  ****    0 ROOT
