@<TRIPOS>MOLECULE
1EI
   53    55     1     0     0
SMALL
bcc


@<TRIPOS>ATOM
      1 O6          0.2360    0.2560   -4.8960 o         1 1EI     -0.691500
      2 C6          1.0820   -0.1470   -4.0660 c         1 1EI      0.648000
      3 N1          0.8030   -1.2630   -3.2530 ns        1 1EI     -0.469400
      4 C2          1.7700   -1.8090   -2.4180 cc        1 1EI      0.512800
      5 N3          3.0210   -1.4020   -2.2690 nd        1 1EI     -0.592100
      6 C5          2.4090    0.4040   -3.8740 cc        1 1EI      0.169800
      7 C4          3.3520   -0.2750   -3.0130 cd        1 1EI      0.103800
      8 N7          2.9930    1.5440   -4.4280 nc        1 1EI     -0.690000
      9 C8          4.2470    1.5620   -3.9470 cd        1 1EI      0.462400
     10 N9          4.5310    0.4720   -3.0850 na        1 1EI     -0.213900
     11 C1'         5.8790    0.2050   -2.6100 c3        1 1EI      0.240800
     12 O4'         6.7930    0.7800   -3.5560 os        1 1EI     -0.387600
     13 C2'         6.2800   -1.2950   -2.4770 c3        1 1EI      0.081100
     14 O2'         6.9800   -1.3790   -1.2520 oh        1 1EI     -0.581800
     15 C3'         7.2430   -1.5630   -3.6660 c3        1 1EI      0.088100
     16 O3'         8.5120   -1.9680   -3.2230 oh        1 1EI     -0.569800
     17 C4'         7.2990   -0.2250   -4.4380 c3        1 1EI      0.092100
     18 C5'         6.4730   -0.3330   -5.7230 c3        1 1EI      0.167400
     19 O5'         6.2840    0.9730   -6.2460 os        1 1EI     -0.565500
     20 SBF         5.8430    1.2890   -7.7700 s6        1 1EI      1.892000
     21 OAE         5.8930    2.6220   -7.9560 o         1 1EI     -0.624800
     22 OAF         6.2490    0.2720   -8.5660 o         1 1EI     -0.624800
     23 NAQ         3.5310   -0.3220   -9.3630 nv        1 1EI     -0.856600
     24 C           3.1780    0.5310   -8.3610 c2        1 1EI      0.506100
     25 O           4.1780    0.9830   -7.5450 os        1 1EI     -0.576800
     26 CA          1.8930    1.0120   -8.1200 c2        1 1EI     -0.312200
     27 N           1.6520    1.9330   -7.0240 nz        1 1EI     -0.665400
     28 CB          0.6980    0.6230   -8.9200 c3        1 1EI      0.006800
     29 CG         -0.1980   -0.3850   -8.2220 c3        1 1EI     -0.198400
     30 CD          0.3450   -1.7800   -8.2750 c         1 1EI      0.642100
     31 OE1        -0.3110   -2.7690   -7.6070 oh        1 1EI     -0.564100
     32 OE2         1.3580   -2.1710   -8.8640 o         1 1EI     -0.529000
     33 H1         -0.1110   -1.6630   -3.2850 hn        1 1EI      0.355500
     34 H2          1.4560   -2.6930   -1.8160 h5        1 1EI      0.082800
     35 H3          5.0230    2.3110   -4.1750 h5        1 1EI      0.102100
     36 H4          6.0440    0.7680   -1.6410 h2        1 1EI      0.145700
     37 H5          5.4180   -2.0060   -2.4890 h1        1 1EI      0.095700
     38 H6          7.1960   -2.3130   -1.1130 ho        1 1EI      0.437000
     39 H7          6.8820   -2.4090   -4.3110 h1        1 1EI      0.101700
     40 H8          8.8320   -1.3100   -2.5850 ho        1 1EI      0.430000
     41 H9          8.3510    0.1000   -4.6680 h1        1 1EI      0.120700
     42 H10         5.4570   -0.7650   -5.5170 h1        1 1EI      0.065700
     43 H11         7.0250   -0.9620   -6.4730 h1        1 1EI      0.065700
     44 H14         4.4520   -0.7040   -9.3880 hn        1 1EI      0.473800
     45 H15        -1.1250   -2.4220   -7.2130 ho        1 1EI      0.436000
     46 H16         1.0990    2.7230   -7.3620 hn        1 1EI      0.461133
     47 H17         2.5410    2.2790   -6.6450 hn        1 1EI      0.461133
     48 H19         1.0140    0.2100   -9.9150 hc        1 1EI      0.074200
     49 H20         0.0830    1.5400   -9.1470 hc        1 1EI      0.074200
     50 H21        -1.2050   -0.3880   -8.7250 hc        1 1EI      0.092700
     51 H22        -0.3550   -0.1040   -7.1440 hc        1 1EI      0.092700
     52 HAQ2        2.8080   -0.8700   -9.7870 hn        1 1EI      0.473800
     53 HN3         1.1280    1.4490   -6.2740 hn        1 1EI      0.461133
@<TRIPOS>BOND
     1    1    2 2   
     2    2    3 1   
     3    2    6 1   
     4    3    4 1   
     5    3   33 1   
     6    4    5 2   
     7    4   34 1   
     8    5    7 1   
     9    6    7 2   
    10    6    8 1   
    11    7   10 1   
    12    8    9 2   
    13    9   10 1   
    14    9   35 1   
    15   10   11 1   
    16   11   12 1   
    17   11   13 1   
    18   11   36 1   
    19   12   17 1   
    20   13   14 1   
    21   13   15 1   
    22   13   37 1   
    23   14   38 1   
    24   15   16 1   
    25   15   17 1   
    26   15   39 1   
    27   16   40 1   
    28   17   18 1   
    29   17   41 1   
    30   18   19 1   
    31   18   42 1   
    32   18   43 1   
    33   19   20 1   
    34   20   21 2   
    35   20   22 2   
    36   20   25 1   
    37   23   24 1   
    38   23   44 1   
    39   23   52 1   
    40   24   25 1   
    41   24   26 2   
    42   26   27 1   
    43   26   28 1   
    44   27   46 1   
    45   27   47 1   
    46   27   53 1   
    47   28   29 1   
    48   28   48 1   
    49   28   49 1   
    50   29   30 1   
    51   29   50 1   
    52   29   51 1   
    53   30   31 1   
    54   30   32 2   
    55   31   45 1   
@<TRIPOS>SUBSTRUCTURE
     1 1EI         1 TEMP              0 ****  ****    0 ROOT
