@<TRIPOS>MOLECULE
1EI
   51    48     1     0     0
SMALL
bcc


@<TRIPOS>ATOM
      1 O6         -7.4260    1.2300    5.0640 o         1 1EI     -0.344000
      2 C6         -6.2340    1.0310    5.1040 c1        1 1EI      0.383000
      3 N1         -5.5780    0.9510    6.3340 n2        1 1EI     -0.341000
      4 C2         -4.1860    0.7100    6.3770 c2        1 1EI      0.057000
      5 N3         -3.4500    0.5460    5.1570 n1        1 1EI     -0.153000
      6 C5         -5.4560    0.8600    3.8250 c2        1 1EI     -0.221000
      7 C4         -4.1380    0.6260    3.8680 c1        1 1EI      0.029000
      8 N7         -5.8300    0.9320    2.5130 n2        1 1EI     -0.081000
      9 C8         -4.7370    0.7420    1.7600 c1        1 1EI     -0.080000
     10 N9         -3.6840    0.5510    2.5920 n2        1 1EI     -0.137000
     11 C1'        -2.4960    0.0880    2.5960 c2        1 1EI      0.108000
     12 O4'        -1.4920    1.1330    1.9490 os        1 1EI     -0.269000
     13 C2'        -2.4110   -1.1670    1.7190 c3        1 1EI     -0.009000
     14 O2'        -1.6690   -2.2600    2.4390 oh        1 1EI     -0.324000
     15 C3'        -1.7430   -0.7860    0.6370 c3        1 1EI     -0.008000
     16 O3'        -0.9360   -1.8640    0.1530 oh        1 1EI     -0.334000
     17 C4'        -0.8020    0.4490    1.1000 c3        1 1EI     -0.073000
     18 C5'        -0.4290    1.3280   -0.1200 c3        1 1EI      0.032000
     19 O5'         0.8770    0.9620   -0.5960 os        1 1EI     -0.699000
     20 SBF         1.1160    1.1410   -2.1210 s4        1 1EI      2.030800
     21 OAE        -0.1820    1.1410   -2.8820 o         1 1EI     -0.540400
     22 OAF         1.6430    2.5380   -2.4380 o         1 1EI     -0.540400
     23 NAQ         2.1230   -0.0120   -2.6760 n2        1 1EI     -0.888000
     24 C           2.7790    0.1620   -3.9280 c2        1 1EI      0.352000
     25 O           2.4160    1.0240   -4.6810 o         1 1EI     -0.364000
     26 CA          3.9110   -0.7710   -4.3280 c3        1 1EI     -0.046000
     27 N           3.7760   -1.1190   -5.6820 n3        1 1EI     -0.332000
     28 CB          5.2320   -0.0680   -4.1190 c3        1 1EI     -0.169000
     29 CG          6.2300   -1.0350   -3.4740 c3        1 1EI     -0.211000
     30 CD          7.1270   -0.2690   -2.5080 c2        1 1EI      0.333000
     31 OE1         6.8310   -0.2260   -1.2600 o         1 1EI     -0.601500
     32 OE2         8.2110    0.1900   -2.9020 o         1 1EI     -0.601500
     33 H1         -6.0310    1.1380    7.1020 hn        1 1EI      0.244000
     34 H2         -3.7100    0.6530    7.2650 h5        1 1EI      0.180000
     35 H3         -4.7140    0.6810    0.7640 DU        1 1EI      0.205000
     36 H4         -2.2230   -0.1210    3.5010 h4        1 1EI      0.166000
     37 H5         -3.3340   -1.4790    1.4670 h1        1 1EI      0.124000
     38 H6         -2.2010   -3.0200    2.4810 ho        1 1EI      0.278000
     39 H7         -2.3730   -0.4890   -0.0630 h1        1 1EI      0.103000
     40 H8         -0.1700   -1.8840    0.5980 ho        1 1EI      0.260000
     41 H9          0.0210    0.1040    1.5330 h1        1 1EI      0.173000
     42 H10        -0.4270    2.2840    0.1500 h1        1 1EI      0.105500
     43 H11        -1.0870    1.1910   -0.8350 h1        1 1EI      0.105500
     44 H14         2.2370   -0.7740   -2.2100 hn        1 1EI      0.314000
     45 H15         3.8770   -1.5920   -3.7700 h1        1 1EI      0.157000
     46 H16         3.0260   -1.5810   -5.7970 hn        1 1EI      0.147000
     47 H17         4.4870   -1.6270   -5.9360 hn        1 1EI      0.147000
     48 H19         5.1020    0.6940   -3.5410 hc        1 1EI      0.083000
     49 H20         5.5910    0.2430   -5.0090 hc        1 1EI      0.083000
     50 H21         6.7880   -1.4580   -4.1820 hc        1 1EI      0.083500
     51 H22         5.7490   -1.7200   -2.9920 hc        1 1EI      0.083500
@<TRIPOS>BOND
     1    1    2 1   
     2    2    6 1   
     3    3    4 1   
     4    3   33 1   
     5    4    5 1   
     6    4   34 1   
     7    6    7 1   
     8    6    8 1   
     9    7   10 1   
    10    8    9 1   
    11    9   10 1   
    12   11   12 1   
    13   11   13 1   
    14   11   36 1   
    15   12   17 1   
    16   13   14 1   
    17   13   15 1   
    18   13   37 1   
    19   14   38 1   
    20   15   16 1   
    21   15   17 1   
    22   15   39 1   
    23   16   40 1   
    24   17   18 1   
    25   17   41 1   
    26   18   19 1   
    27   18   42 1   
    28   18   43 1   
    29   19   20 1   
    30   20   21 1   
    31   20   22 1   
    32   23   24 1   
    33   23   44 1   
    34   24   25 1   
    35   24   26 1   
    36   26   27 1   
    37   26   28 1   
    38   26   45 1   
    39   27   46 1   
    40   27   47 1   
    41   28   29 1   
    42   28   48 1   
    43   28   49 1   
    44   29   30 1   
    45   29   50 1   
    46   29   51 1   
    47   30   31 1   
    48   30   32 1   
@<TRIPOS>SUBSTRUCTURE
     1 1EI         1 TEMP              0 ****  ****    0 ROOT
