@<TRIPOS>MOLECULE
1EI
   51    53     1     0     0
SMALL
bcc


@<TRIPOS>ATOM
      1 O6          7.0320   -2.6710    0.3780 o         1 1EI     -0.617500
      2 C6          6.3960   -1.7780   -0.2030 c         1 1EI      0.636000
      3 N1          6.7910   -1.4170   -1.5190 n         1 1EI     -0.501400
      4 C2          6.1410   -0.4210   -2.2340 cc        1 1EI      0.475800
      5 N3          5.1180    0.3120   -1.8330 nd        1 1EI     -0.580100
      6 C5          5.2650   -1.0100    0.2920 cc        1 1EI      0.205800
      7 C4          4.6710    0.0050   -0.5490 cd        1 1EI      0.057800
      8 N7          4.5940   -1.0760    1.5120 nc        1 1EI     -0.608000
      9 C8          3.6260   -0.1400    1.4290 cd        1 1EI      0.428400
     10 N9          3.6220    0.5490    0.1950 na        1 1EI     -0.201900
     11 C1'         2.7970    1.6860   -0.1720 c3        1 1EI      0.243800
     12 O4'         1.8170    1.9190    0.8400 os        1 1EI     -0.412600
     13 C2'         2.0390    1.5290   -1.5270 c3        1 1EI      0.081100
     14 O2'         2.4540    2.6160   -2.3330 oh        1 1EI     -0.603800
     15 C3'         0.5370    1.6340   -1.1630 c3        1 1EI      0.067100
     16 O3'         0.0110    2.8470   -1.6570 oh        1 1EI     -0.581800
     17 C4'         0.4990    1.5670    0.3740 c3        1 1EI      0.059100
     18 C5'         0.0970    0.1800    0.8810 c3        1 1EI      0.144400
     19 O5'        -0.4800    0.2620    2.1610 os        1 1EI     -0.562500
     20 SBF        -2.0690    0.6980    2.4970 s6        1 1EI      1.716100
     21 OAE        -2.1340    0.4640    3.8610 o         1 1EI     -0.658300
     22 OAF        -2.1520    2.0060    2.0400 o         1 1EI     -0.658300
     23 NAQ        -2.9210   -0.3570    1.6140 n         1 1EI     -0.719300
     24 C          -4.2950   -0.4080    1.4120 c         1 1EI      0.662100
     25 O          -5.0470    0.3600    2.0430 o         1 1EI     -0.625100
     26 CA         -4.8400   -1.4460    0.3970 c3        1 1EI      0.101500
     27 N          -6.2040   -1.8330    0.6810 n3        1 1EI     -0.888800
     28 CB         -4.6560   -0.8600   -1.0190 c3        1 1EI     -0.053400
     29 CG         -3.6920   -1.6790   -1.8490 c3        1 1EI     -0.187400
     30 CD         -2.2580   -1.5270   -1.3520 c         1 1EI      0.903600
     31 OE1        -1.4820   -0.7120   -1.9280 o         1 1EI     -0.859300
     32 OE2        -1.8770   -2.2070   -0.3430 o         1 1EI     -0.859300
     33 H1          7.5450   -1.9130   -1.9360 hn        1 1EI      0.329500
     34 H2          6.5280   -0.2200   -3.2560 h5        1 1EI      0.047800
     35 H3          2.8850    0.0960    2.2070 h5        1 1EI      0.094100
     36 H4          3.4580    2.6050   -0.1870 h2        1 1EI      0.103700
     37 H5          2.2660    0.5630   -2.0470 h1        1 1EI      0.088700
     38 H6          1.7760    2.7280   -3.0160 ho        1 1EI      0.425000
     39 H7         -0.0870    0.8260   -1.6490 h1        1 1EI      0.184700
     40 H8          0.4480    3.5680   -1.1830 ho        1 1EI      0.399000
     41 H9         -0.1740    2.3600    0.8100 h1        1 1EI      0.119700
     42 H10        -0.5910   -0.3360    0.1460 h1        1 1EI      0.100700
     43 H11         1.0120   -0.4610    1.0230 h1        1 1EI      0.100700
     44 H14        -2.4270   -1.0830    1.0930 hn        1 1EI      0.403500
     45 H15        -4.2000   -2.3820    0.4780 h1        1 1EI      0.120700
     46 H16        -6.2730   -2.1780    1.6200 hn        1 1EI      0.349800
     47 H17        -6.8200   -1.0480    0.5850 hn        1 1EI      0.349800
     48 H19        -5.6450   -0.8160   -1.5480 hc        1 1EI      0.045700
     49 H20        -4.2780    0.1940   -0.9480 hc        1 1EI      0.045700
     50 H21        -3.9780   -2.7610   -1.8190 hc        1 1EI      0.044700
     51 H22        -3.7430   -1.3300   -2.9120 hc        1 1EI      0.044700
@<TRIPOS>BOND
     1    1    2 2   
     2    2    3 1   
     3    2    6 1   
     4    3    4 1   
     5    3   33 1   
     6    4    5 2   
     7    4   34 1   
     8    5    7 1   
     9    6    7 2   
    10    6    8 1   
    11    7   10 1   
    12    8    9 2   
    13    9   10 1   
    14    9   35 1   
    15   10   11 1   
    16   11   12 1   
    17   11   13 1   
    18   11   36 1   
    19   12   17 1   
    20   13   14 1   
    21   13   15 1   
    22   13   37 1   
    23   14   38 1   
    24   15   16 1   
    25   15   17 1   
    26   15   39 1   
    27   16   40 1   
    28   17   18 1   
    29   17   41 1   
    30   18   19 1   
    31   18   42 1   
    32   18   43 1   
    33   19   20 1   
    34   20   21 2   
    35   20   22 2   
    36   20   23 1   
    37   23   24 1   
    38   23   44 1   
    39   24   25 2   
    40   24   26 1   
    41   26   27 1   
    42   26   28 1   
    43   26   45 1   
    44   27   46 1   
    45   27   47 1   
    46   28   29 1   
    47   28   48 1   
    48   28   49 1   
    49   29   30 1   
    50   29   50 1   
    51   29   51 1   
    52   30   31 1   
    53   30   32 1   
@<TRIPOS>SUBSTRUCTURE
     1 1EI         1 TEMP              0 ****  ****    0 ROOT
