@<TRIPOS>MOLECULE
1EJ
   34    23     1     0     0
SMALL
bcc


@<TRIPOS>ATOM
      1 C01        -1.1540    0.0140   -4.0970 c1        1 1EJ     -0.127000
      2 C02        -0.2870    1.0630   -4.3580 c1        1 1EJ     -0.079000
      3 C03        -0.0960    2.0580   -3.4110 c1        1 1EJ     -0.111500
      4 C04        -0.7730    2.0030   -2.2030 c1        1 1EJ     -0.080000
      5 C05        -1.6410    0.9540   -1.9410 c1        1 1EJ     -0.020000
      6 C06        -1.8310   -0.0410   -2.8880 c1        1 1EJ     -0.127000
      7 C07        -2.4390    0.9350   -0.6540 c2        1 1EJ     -0.040000
      8 N08        -2.0420    0.4010    0.5120 n2        1 1EJ     -0.080000
      9 C09        -3.0490    0.5260    1.3910 c1        1 1EJ     -0.239000
     10 N10        -4.0680    1.1370    0.7680 n2        1 1EJ     -0.117000
     11 N11        -3.6900    1.3900   -0.4970 n2        1 1EJ     -0.085000
     12 C12        -0.7660   -0.1610    0.7810 c1        1 1EJ     -0.079000
     13 C13         0.1550    0.5500    1.5590 c1        1 1EJ     -0.111500
     14 C14         1.3630   -0.0330    1.9080 c1        1 1EJ     -0.079000
     15 C15         1.6670   -1.3620    1.4730 c1        1 1EJ     -0.079000
     16 C16         0.7530   -2.0640    0.7040 c1        1 1EJ     -0.111500
     17 C17        -0.4660   -1.4730    0.3520 c1        1 1EJ     -0.111500
     18 S18        -3.0560   -0.0700    3.0610 s         1 1EJ      0.242000
     19 S19         2.5760    0.4850    2.7570 s         1 1EJ      0.541000
     20 C20         3.6330   -0.6430    2.7950 c1        1 1EJ     -0.277000
     21 C21         3.1180   -1.7600    2.0370 c1        1 1EJ     -0.136000
     22 C22         4.9820   -0.7100    3.4770 c1        1 1EJ      0.383000
     23 O23         5.9910   -0.1940    2.9280 os        1 1EJ     -0.523000
     24 O24         5.0980   -1.2880    4.5900 o         1 1EJ     -0.521000
     25 CL2         3.9020   -3.2390    1.5500 cl        1 1EJ      0.007000
     26 F26         0.3600    1.1210   -5.5290 f         1 1EJ     -0.111000
     27 H011       -1.2820   -0.6900   -4.7600 ha        1 1EJ      0.149000
     28 H031        0.5140    2.7970   -3.5950 ha        1 1EJ      0.145000
     29 H041       -0.6390    2.7030   -1.5360 ha        1 1EJ      0.161000
     30 H061       -2.4510   -0.7730   -2.7090 ha        1 1EJ      0.149000
     31 H131       -0.0600    1.4510    1.8670 ha        1 1EJ      0.145000
     32 H161        0.9600   -2.9700    0.4060 ha        1 1EJ      0.145000
     33 H171       -1.1130   -1.9710   -0.1830 ha        1 1EJ      0.145000
     34 H181       -4.1670   -0.1490    3.4450 hs        1 1EJ      0.032000
@<TRIPOS>BOND
     1    1    6 1   
     2    1   27 1   
     3    2    3 1   
     4    3   28 1   
     5    4    5 1   
     6    4   29 1   
     7    5    7 1   
     8    6   30 1   
     9    7    8 1   
    10    7   11 1   
    11    8    9 1   
    12    9   10 1   
    13   10   11 1   
    14   12   17 1   
    15   13   14 1   
    16   13   31 1   
    17   15   16 1   
    18   16   32 1   
    19   17   33 1   
    20   18   34 1   
    21   19   20 1   
    22   20   21 1   
    23   22   24 1   
@<TRIPOS>SUBSTRUCTURE
     1 1EJ         1 TEMP              0 ****  ****    0 ROOT
