@<TRIPOS>MOLECULE
1EJ
   34    37     1     0     0
SMALL
bcc


@<TRIPOS>ATOM
      1 C01         0.0210   -0.1540   -0.0240 ca        1 1EJ     -0.172500
      2 C02         1.3950    0.1460   -0.0500 ca        1 1EJ      0.126900
      3 C03         2.0880    0.3990    1.1480 ca        1 1EJ     -0.172500
      4 C04         1.4050    0.3510    2.3580 ca        1 1EJ     -0.077000
      5 C05         0.0370    0.0490    2.3930 ca        1 1EJ     -0.127500
      6 C06        -0.6480   -0.2020    1.1940 ca        1 1EJ     -0.077000
      7 C07        -0.7050    0.0140    3.6470 cc        1 1EJ      0.419000
      8 N08        -0.1960   -0.3590    4.9100 na        1 1EJ     -0.211800
      9 C09        -1.2840   -0.2340    5.7900 cc        1 1EJ      0.439800
     10 N10        -2.3720    0.1990    5.0620 nd        1 1EJ     -0.380000
     11 N11        -2.0330    0.3430    3.8090 nd        1 1EJ     -0.348000
     12 C12         1.1040   -0.8130    5.2490 ca        1 1EJ     -0.073200
     13 C13         2.0270    0.0680    5.8250 ca        1 1EJ     -0.062000
     14 C14         3.3010   -0.3980    6.1520 ca        1 1EJ     -0.128100
     15 C15         3.6580   -1.7570    5.9030 ca        1 1EJ     -0.036800
     16 C16         2.7210   -2.6290    5.3310 ca        1 1EJ     -0.095000
     17 C17         1.4590   -2.1700    5.0070 ca        1 1EJ     -0.124000
     18 S18        -1.2210   -0.5660    7.4440 sh        1 1EJ     -0.257100
     19 S19         4.5920    0.4360    6.8420 ss        1 1EJ      0.073500
     20 C20         5.6250   -0.8960    6.8350 cc        1 1EJ     -0.055600
     21 C21         5.0160   -2.0120    6.3110 cd        1 1EJ     -0.039800
     22 C22         7.0570   -0.7860    7.3620 c         1 1EJ      0.932800
     23 O23         7.2310   -1.0300    8.5820 o         1 1EJ     -0.787300
     24 O24         7.9370   -0.4380    6.5360 o         1 1EJ     -0.787300
     25 Cl2         5.7240   -3.5290    6.1400 cl        1 1EJ     -0.077400
     26 F26         2.0520    0.1930   -1.2350 f         1 1EJ     -0.145900
     27 H011       -0.5120   -0.3490   -0.9650 ha        1 1EJ      0.150500
     28 H031        3.1630    0.6290    1.1210 ha        1 1EJ      0.150500
     29 H041        1.9540    0.5500    3.2940 ha        1 1EJ      0.157500
     30 H061       -1.7250   -0.4340    1.2120 ha        1 1EJ      0.157500
     31 H131        1.7630    1.1180    6.0260 ha        1 1EJ      0.142000
     32 H161        2.9990   -3.6770    5.1450 ha        1 1EJ      0.145000
     33 H171        0.7250   -2.8560    4.5590 ha        1 1EJ      0.136000
     34 H181       -2.4720   -0.2510    7.7490 hs        1 1EJ      0.203800
@<TRIPOS>BOND
     1    1    2 ar  
     2    1    6 ar  
     3    1   27 1   
     4    2    3 ar  
     5    2   26 1   
     6    3    4 ar  
     7    3   28 1   
     8    4    5 ar  
     9    4   29 1   
    10    5    6 ar  
    11    5    7 1   
    12    6   30 1   
    13    7    8 1   
    14    7   11 2   
    15    8    9 1   
    16    8   12 1   
    17    9   10 2   
    18    9   18 1   
    19   10   11 1   
    20   12   13 ar  
    21   12   17 ar  
    22   13   14 ar  
    23   13   31 1   
    24   14   15 ar  
    25   14   19 1   
    26   15   16 ar  
    27   15   21 1   
    28   16   17 ar  
    29   16   32 1   
    30   17   33 1   
    31   18   34 1   
    32   19   20 1   
    33   20   21 2   
    34   20   22 1   
    35   21   25 1   
    36   22   23 1   
    37   22   24 1   
@<TRIPOS>SUBSTRUCTURE
     1 1EJ         1 TEMP              0 ****  ****    0 ROOT
