@<TRIPOS>MOLECULE
1EJ
   34    37     1     0     0
SMALL
bcc


@<TRIPOS>ATOM
      1 C01         0.0200   -0.1530   -0.0240 ca        1 1EJ     -0.172500
      2 C02         1.3940    0.1480   -0.0500 ca        1 1EJ      0.126900
      3 C03         2.0870    0.4010    1.1480 ca        1 1EJ     -0.172500
      4 C04         1.4030    0.3520    2.3590 ca        1 1EJ     -0.077000
      5 C05         0.0360    0.0480    2.3930 ca        1 1EJ     -0.127500
      6 C06        -0.6490   -0.2030    1.1940 ca        1 1EJ     -0.077000
      7 C07        -0.7060    0.0120    3.6470 cc        1 1EJ      0.419000
      8 N08        -0.1970   -0.3620    4.9110 na        1 1EJ     -0.211800
      9 C09        -1.2840   -0.2380    5.7900 cc        1 1EJ      0.439800
     10 N10        -2.3730    0.1940    5.0630 nd        1 1EJ     -0.380000
     11 N11        -2.0340    0.3390    3.8090 nd        1 1EJ     -0.348000
     12 C12         1.1040   -0.8150    5.2490 ca        1 1EJ     -0.073200
     13 C13         2.0270    0.0680    5.8250 ca        1 1EJ     -0.062000
     14 C14         3.3010   -0.3970    6.1520 ca        1 1EJ     -0.128100
     15 C15         3.6590   -1.7560    5.9020 ca        1 1EJ     -0.036800
     16 C16         2.7230   -2.6280    5.3300 ca        1 1EJ     -0.095000
     17 C17         1.4610   -2.1710    5.0060 ca        1 1EJ     -0.124000
     18 S18        -1.2200   -0.5710    7.4440 sh        1 1EJ     -0.257100
     19 S19         4.5910    0.4370    6.8430 ss        1 1EJ      0.073500
     20 C20         5.6260   -0.8940    6.8350 cc        1 1EJ     -0.055600
     21 C21         5.0180   -2.0100    6.3100 cd        1 1EJ     -0.039800
     22 C22         7.0580   -0.7820    7.3620 c         1 1EJ      0.932800
     23 O23         7.2320   -1.0280    8.5820 o         1 1EJ     -0.787300
     24 O24         7.9370   -0.4310    6.5360 o         1 1EJ     -0.787300
     25 CL2         5.7270   -3.5260    6.1380 cl        1 1EJ     -0.077400
     26 F26         2.0510    0.1960   -1.2340 f         1 1EJ     -0.145900
     27 H011       -0.5130   -0.3490   -0.9650 ha        1 1EJ      0.150500
     28 H031        3.1620    0.6320    1.1220 ha        1 1EJ      0.150500
     29 H041        1.9530    0.5500    3.2950 ha        1 1EJ      0.157500
     30 H061       -1.7250   -0.4360    1.2120 ha        1 1EJ      0.157500
     31 H131        1.7610    1.1170    6.0270 ha        1 1EJ      0.142000
     32 H161        3.0030   -3.6760    5.1430 ha        1 1EJ      0.145000
     33 H171        0.7270   -2.8570    4.5580 ha        1 1EJ      0.136000
     34 H181       -2.4720   -0.2580    7.7500 hs        1 1EJ      0.203800
@<TRIPOS>BOND
     1    1    2 ar  
     2    1    6 ar  
     3    1   27 1   
     4    2    3 ar  
     5    2   26 1   
     6    3    4 ar  
     7    3   28 1   
     8    4    5 ar  
     9    4   29 1   
    10    5    6 ar  
    11    5    7 1   
    12    6   30 1   
    13    7    8 1   
    14    7   11 2   
    15    8    9 1   
    16    8   12 1   
    17    9   10 2   
    18    9   18 1   
    19   10   11 1   
    20   12   13 ar  
    21   12   17 ar  
    22   13   14 ar  
    23   13   31 1   
    24   14   15 ar  
    25   14   19 1   
    26   15   16 ar  
    27   15   21 1   
    28   16   17 ar  
    29   16   32 1   
    30   17   33 1   
    31   18   34 1   
    32   19   20 1   
    33   20   21 2   
    34   20   22 1   
    35   21   25 1   
    36   22   23 1   
    37   22   24 1   
@<TRIPOS>SUBSTRUCTURE
     1 1EJ         1 TEMP              0 ****  ****    0 ROOT
