@<TRIPOS>MOLECULE
1EJ
   34    37     1     0     0
SMALL
bcc


@<TRIPOS>ATOM
      1 C01        -4.7530    2.7100   -0.0060 ca        1 1EJ     -0.172000
      2 C02        -3.6980    3.4850    0.5090 ca        1 1EJ      0.126900
      3 C03        -2.5020    2.8680    0.9190 ca        1 1EJ     -0.172000
      4 C04        -2.3700    1.4880    0.8130 ca        1 1EJ     -0.077500
      5 C05        -3.4150    0.7100    0.2970 ca        1 1EJ     -0.126500
      6 C06        -4.6070    1.3320   -0.1090 ca        1 1EJ     -0.077500
      7 C07        -3.3090   -0.7400    0.1950 cc        1 1EJ      0.422000
      8 N08        -2.1280   -1.4800   -0.0300 na        1 1EJ     -0.237800
      9 C09        -2.5390   -2.8270   -0.0510 cc        1 1EJ      0.440800
     10 N10        -3.9000   -2.8570    0.1610 nd        1 1EJ     -0.342000
     11 N11        -4.3480   -1.6360    0.3040 nd        1 1EJ     -0.351000
     12 C12        -0.8090   -1.0140   -0.2560 ca        1 1EJ     -0.089200
     13 C13         0.1250   -1.0150    0.7890 ca        1 1EJ     -0.071000
     14 C14         1.4240   -0.5710    0.5440 ca        1 1EJ     -0.133100
     15 C15         1.7960   -0.1140   -0.7570 ca        1 1EJ     -0.036800
     16 C16         0.8490   -0.1120   -1.7910 ca        1 1EJ     -0.094000
     17 C17        -0.4360   -0.5550   -1.5500 ca        1 1EJ     -0.128000
     18 S18        -1.5780   -4.1940   -0.2840 sh        1 1EJ     -0.262100
     19 S19         2.7310   -0.4750    1.6000 ss        1 1EJ      0.081500
     20 C20         3.7890    0.1420    0.4430 cc        1 1EJ     -0.055600
     21 C21         3.1780    0.2920   -0.7800 cd        1 1EJ     -0.040800
     22 C22         5.2430    0.4660    0.7950 c         1 1EJ      0.932800
     23 O23         6.0780   -0.4600    0.6440 o         1 1EJ     -0.785300
     24 O24         5.4730    1.6230    1.2260 o         1 1EJ     -0.785300
     25 CL2         3.9080    0.8780   -2.1780 cl        1 1EJ     -0.074400
     26 F26        -3.8360    4.8290    0.6110 f         1 1EJ     -0.145900
     27 H011       -5.6840    3.2000   -0.3230 ha        1 1EJ      0.150000
     28 H031       -1.6790    3.4790    1.3180 ha        1 1EJ      0.150000
     29 H041       -1.4290    1.0110    1.1360 ha        1 1EJ      0.157000
     30 H061       -5.4360    0.7270   -0.5100 ha        1 1EJ      0.157000
     31 H131       -0.1520   -1.3600    1.7980 ha        1 1EJ      0.144000
     32 H161        1.1400    0.2460   -2.7910 ha        1 1EJ      0.146000
     33 H171       -1.1790   -0.5500   -2.3630 ha        1 1EJ      0.138000
     34 H181       -0.3990   -3.6010   -0.4380 hs        1 1EJ      0.208800
@<TRIPOS>BOND
     1    1    2 ar  
     2    1    6 ar  
     3    1   27 1   
     4    2    3 ar  
     5    2   26 1   
     6    3    4 ar  
     7    3   28 1   
     8    4    5 ar  
     9    4   29 1   
    10    5    6 ar  
    11    5    7 1   
    12    6   30 1   
    13    7    8 1   
    14    7   11 2   
    15    8    9 1   
    16    8   12 1   
    17    9   10 2   
    18    9   18 1   
    19   10   11 1   
    20   12   13 ar  
    21   12   17 ar  
    22   13   14 ar  
    23   13   31 1   
    24   14   15 ar  
    25   14   19 1   
    26   15   16 ar  
    27   15   21 1   
    28   16   17 ar  
    29   16   32 1   
    30   17   33 1   
    31   18   34 1   
    32   19   20 1   
    33   20   21 2   
    34   20   22 1   
    35   21   25 1   
    36   22   23 1   
    37   22   24 1   
@<TRIPOS>SUBSTRUCTURE
     1 1EJ         1 TEMP              0 ****  ****    0 ROOT
