@<TRIPOS>MOLECULE
1EK
   37    27     1     0     0
SMALL
bcc


@<TRIPOS>ATOM
      1 C01        -5.1730    0.1980   -3.2250 c1        1 1EK     -0.124833
      2 C02        -3.7860    0.0170   -3.2120 c1        1 1EK     -0.107667
      3 C03        -3.0960    0.0290   -2.0100 c1        1 1EK     -0.107333
      4 C04        -3.8040    0.2270   -0.7820 c1        1 1EK     -0.107333
      5 C05        -5.1770    0.4050   -0.7970 c1        1 1EK     -0.107667
      6 C06        -5.8720    0.3930   -2.0120 c1        1 1EK     -0.124833
      7 S07        -1.5720   -0.1180   -1.6690 s         1 1EK      0.517000
      8 C08        -1.4240    0.0080   -0.1350 c1        1 1EK     -0.215000
      9 C09        -2.7410    0.2140    0.4220 c1        1 1EK     -0.080000
     10 C10        -0.4330   -0.0290    1.0070 c1        1 1EK     -0.147500
     11 N11         0.9040   -0.0750    0.8900 n2        1 1EK     -0.140000
     12 C12         1.4270   -0.1210    2.1260 c1        1 1EK     -0.147500
     13 N13         0.4150   -0.1020    3.0050 n2        1 1EK     -0.077500
     14 N14        -0.7360   -0.0460    2.3120 n2        1 1EK     -0.077500
     15 S15         3.1530   -0.1730    2.5260 s         1 1EK      0.373000
     16 C16         3.3500   -0.2820    4.2860 c3        1 1EK     -0.385000
     17 C17         4.8170   -0.4190    4.6220 c1        1 1EK      0.345000
     18 O18         5.4900    0.5980    4.9330 os        1 1EK     -0.544000
     19 O19         5.3620   -1.5540    4.6090 o         1 1EK     -0.541000
     20 C20         1.6370   -0.0400   -0.3240 c1        1 1EK     -0.107333
     21 C21         2.0760    1.1720   -0.8330 c1        1 1EK     -0.124833
     22 C22         2.8500    1.2020   -1.9820 c1        1 1EK     -0.124833
     23 C23         3.1860    0.0200   -2.6230 c1        1 1EK     -0.124833
     24 C24         2.7470   -1.1930   -2.1140 c1        1 1EK     -0.124833
     25 C25         1.9730   -1.2230   -0.9650 c1        1 1EK     -0.107667
     26 CL2        -3.3270    0.2890    2.0630 cl        1 1EK      0.047000
     27 H1         -5.6580    0.1890   -4.0710 ha        1 1EK      0.135833
     28 H2         -3.3040   -0.1170   -4.0500 ha        1 1EK      0.142333
     29 H3         -5.6610    0.5400    0.0400 ha        1 1EK      0.142333
     30 H4         -6.8380    0.5260   -2.0230 ha        1 1EK      0.135833
     31 H5          2.8640   -1.0620    4.6210 h1        1 1EK      0.112500
     32 H6          2.9940    0.5280    4.7040 h1        1 1EK      0.112500
     33 H8          1.8400    2.0050   -0.3810 ha        1 1EK      0.135833
     34 H9          3.1600    2.0560   -2.3400 ha        1 1EK      0.135833
     35 H10         3.7310    0.0410   -3.4320 ha        1 1EK      0.135833
     36 H11         2.9770   -2.0260   -2.5700 ha        1 1EK      0.135833
     37 H12         1.6500   -2.0750   -0.6160 ha        1 1EK      0.142333
@<TRIPOS>BOND
     1    1    6 1   
     2    1   27 1   
     3    2    3 1   
     4    2   28 1   
     5    4    5 1   
     6    5   29 1   
     7    6   30 1   
     8    7    8 1   
     9    8    9 1   
    10   10   11 1   
    11   10   14 1   
    12   11   12 1   
    13   12   13 1   
    14   13   14 1   
    15   15   16 1   
    16   16   17 1   
    17   16   31 1   
    18   16   32 1   
    19   17   19 1   
    20   20   25 1   
    21   21   22 1   
    22   21   33 1   
    23   22   34 1   
    24   23   24 1   
    25   23   35 1   
    26   24   36 1   
    27   25   37 1   
@<TRIPOS>SUBSTRUCTURE
     1 1EK         1 TEMP              0 ****  ****    0 ROOT
