@<TRIPOS>MOLECULE
1EK
   37    40     1     0     0
SMALL
bcc


@<TRIPOS>ATOM
      1 C01        -6.2300    0.5930   -0.0170 ca        1 1EK     -0.133000
      2 C02        -5.0050    1.2160   -0.1910 ca        1 1EK     -0.096000
      3 C03        -3.8340    0.4500   -0.1660 ca        1 1EK     -0.099100
      4 C04        -3.9120   -0.9550    0.0400 ca        1 1EK     -0.066800
      5 C05        -5.1590   -1.5720    0.2160 ca        1 1EK     -0.088000
      6 C06        -6.3060   -0.7970    0.1860 ca        1 1EK     -0.142000
      7 S07        -2.2370    0.9450   -0.3580 ss        1 1EK      0.048500
      8 C08        -1.5980   -0.6250   -0.1660 cc        1 1EK     -0.073200
      9 C09        -2.5980   -1.5550    0.0390 cd        1 1EK      0.006200
     10 C10        -0.1890   -0.8910   -0.2110 cc        1 1EK      0.360300
     11 N11         0.8470    0.0840   -0.0980 na        1 1EK     -0.272800
     12 C12         2.0520   -0.6500   -0.0840 cc        1 1EK      0.435800
     13 N13         1.7120   -1.9870   -0.2170 nd        1 1EK     -0.408000
     14 N14         0.4170   -2.1220   -0.2870 nd        1 1EK     -0.290000
     15 S15         3.5660    0.0530    0.0980 ss        1 1EK     -0.062400
     16 C16         4.6760   -1.3260   -0.0110 c3        1 1EK     -0.174300
     17 C17         5.9920   -0.5630    0.2130 c         1 1EK      0.921600
     18 O18         7.0930   -1.1560    0.2130 o         1 1EK     -0.797300
     19 O19         5.8090    0.6900    0.3890 o         1 1EK     -0.797300
     20 C20         0.7280    1.4860   -0.0430 ca        1 1EK      0.020800
     21 C21         1.3950    2.2150    0.9660 ca        1 1EK     -0.130000
     22 C22         1.2740    3.6000    1.0170 ca        1 1EK     -0.117500
     23 C23         0.5010    4.2820    0.0770 ca        1 1EK     -0.138000
     24 C24        -0.1390    3.5720   -0.9360 ca        1 1EK     -0.117500
     25 C25        -0.0290    2.1840   -1.0110 ca        1 1EK     -0.130000
     26 CL2        -2.3890   -3.2010    0.2770 cl        1 1EK     -0.041400
     27 H1         -7.1550    1.1860   -0.0350 ha        1 1EK      0.123000
     28 H2         -4.9470    2.3030   -0.3480 ha        1 1EK      0.130000
     29 H3         -5.2120   -2.6590    0.3740 ha        1 1EK      0.140000
     30 H4         -7.2910   -1.2670    0.3220 ha        1 1EK      0.124000
     31 H5          4.5070   -2.0880    0.7780 h1        1 1EK      0.073700
     32 H6          4.6570   -1.8250   -1.0020 h1        1 1EK      0.073700
     33 H8          2.0380    1.6900    1.6940 ha        1 1EK      0.161500
     34 H9          1.8050    4.1580    1.8030 ha        1 1EK      0.132000
     35 H10         0.4120    5.3760    0.1260 ha        1 1EK      0.127000
     36 H11        -0.7270    4.1070   -1.6960 ha        1 1EK      0.132000
     37 H12        -0.4780    1.6490   -1.8660 ha        1 1EK      0.161500
@<TRIPOS>BOND
     1    1    2 ar  
     2    1    6 ar  
     3    1   27 1   
     4    2    3 ar  
     5    2   28 1   
     6    3    4 ar  
     7    3    7 1   
     8    4    5 ar  
     9    4    9 1   
    10    5    6 ar  
    11    5   29 1   
    12    6   30 1   
    13    7    8 1   
    14    8    9 2   
    15    8   10 1   
    16    9   26 1   
    17   10   11 1   
    18   10   14 2   
    19   11   12 1   
    20   11   20 1   
    21   12   13 2   
    22   12   15 1   
    23   13   14 1   
    24   15   16 1   
    25   16   17 1   
    26   16   31 1   
    27   16   32 1   
    28   17   18 1   
    29   17   19 1   
    30   20   21 ar  
    31   20   25 ar  
    32   21   22 ar  
    33   21   33 1   
    34   22   23 ar  
    35   22   34 1   
    36   23   24 ar  
    37   23   35 1   
    38   24   25 ar  
    39   24   36 1   
    40   25   37 1   
@<TRIPOS>SUBSTRUCTURE
     1 1EK         1 TEMP              0 ****  ****    0 ROOT
