@<TRIPOS>MOLECULE
1EK
   37    40     1     0     0
SMALL
bcc


@<TRIPOS>ATOM
      1 C01         0.1790   -0.0560   -0.1050 ca        1 1EK     -0.133000
      2 C02         1.5500   -0.2200    0.0180 ca        1 1EK     -0.096000
      3 C03         2.1350   -0.1870    1.2890 ca        1 1EK     -0.099100
      4 C04         1.3210    0.0160    2.4370 ca        1 1EK     -0.066800
      5 C05        -0.0640    0.1810    2.2980 ca        1 1EK     -0.088000
      6 C06        -0.6250    0.1430    1.0320 ca        1 1EK     -0.142000
      7 S07         3.7520   -0.3660    1.7180 ss        1 1EK      0.048500
      8 C08         3.4590   -0.1710    3.3870 cc        1 1EK     -0.073200
      9 C09         2.1160    0.0250    3.6440 cd        1 1EK      0.006200
     10 C10         4.5110   -0.2060    4.3610 cc        1 1EK      0.360300
     11 N11         5.9070   -0.0820    4.0840 na        1 1EK     -0.272800
     12 C12         6.5380   -0.0600    5.3460 cc        1 1EK      0.435800
     13 N13         5.5410   -0.1990    6.2990 nd        1 1EK     -0.408000
     14 N14         4.3730   -0.2790    5.7260 nd        1 1EK     -0.290000
     15 S15         8.1930    0.1350    5.5530 ss        1 1EK     -0.062400
     16 C16         8.4020    0.0320    7.3120 c3        1 1EK     -0.174300
     17 C17         9.9200    0.2680    7.3640 c         1 1EK      0.921600
     18 O18        10.5380    0.2750    8.4500 o         1 1EK     -0.797300
     19 O19        10.4290    0.4450    6.2050 o         1 1EK     -0.797300
     20 C20         6.5490   -0.0260    2.8330 ca        1 1EK      0.020800
     21 C21         7.4950    0.9900    2.5670 ca        1 1EK     -0.130000
     22 C22         8.1270    1.0420    1.3280 ca        1 1EK     -0.117500
     23 C23         7.8410    0.0980    0.3430 ca        1 1EK     -0.138000
     24 C24         6.9300   -0.9220    0.6070 ca        1 1EK     -0.117500
     25 C25         6.2870   -0.9980    1.8420 ca        1 1EK     -0.130000
     26 CL2         1.4170    0.2610    5.1490 cl        1 1EK     -0.041400
     27 H1         -0.2900   -0.0810   -1.0990 ha        1 1EK      0.123000
     28 H2          2.1780   -0.3740   -0.8720 ha        1 1EK      0.130000
     29 H3         -0.6870    0.3370    3.1910 ha        1 1EK      0.140000
     30 H4         -1.7100    0.2710    0.9070 ha        1 1EK      0.124000
     31 H5          7.8480    0.8180    7.8660 h1        1 1EK      0.073700
     32 H6          8.1280   -0.9600    7.7270 h1        1 1EK      0.073700
     33 H8          7.7550    1.7220    3.3510 ha        1 1EK      0.161500
     34 H9          8.8670    1.8340    1.1360 ha        1 1EK      0.132000
     35 H10         8.3460    0.1480   -0.6320 ha        1 1EK      0.127000
     36 H11         6.7210   -1.6860   -0.1560 ha        1 1EK      0.132000
     37 H12         5.6280   -1.8580    2.0590 ha        1 1EK      0.161500
@<TRIPOS>BOND
     1    1    2 ar  
     2    1    6 ar  
     3    1   27 1   
     4    2    3 ar  
     5    2   28 1   
     6    3    4 ar  
     7    3    7 1   
     8    4    5 ar  
     9    4    9 1   
    10    5    6 ar  
    11    5   29 1   
    12    6   30 1   
    13    7    8 1   
    14    8    9 2   
    15    8   10 1   
    16    9   26 1   
    17   10   11 1   
    18   10   14 2   
    19   11   12 1   
    20   11   20 1   
    21   12   13 2   
    22   12   15 1   
    23   13   14 1   
    24   15   16 1   
    25   16   17 1   
    26   16   31 1   
    27   16   32 1   
    28   17   18 1   
    29   17   19 1   
    30   20   21 ar  
    31   20   25 ar  
    32   21   22 ar  
    33   21   33 1   
    34   22   23 ar  
    35   22   34 1   
    36   23   24 ar  
    37   23   35 1   
    38   24   25 ar  
    39   24   36 1   
    40   25   37 1   
@<TRIPOS>SUBSTRUCTURE
     1 1EK         1 TEMP              0 ****  ****    0 ROOT
