@<TRIPOS>MOLECULE
1EL
   35    38     1     0     0
SMALL
bcc


@<TRIPOS>ATOM
      1 C1          0.0900   -0.0770   -0.0080 ca        1 1EL      0.101100
      2 O1         -0.4870   -0.1160   -1.2600 oh        1 1EL     -0.498100
      3 C2          1.4970   -0.0160    0.0120 ca        1 1EL     -0.128000
      4 C3          2.1780    0.0110    1.2230 ca        1 1EL     -0.119000
      5 C4          1.4320   -0.0110    2.4050 ca        1 1EL     -0.051200
      6 C5         -0.0130   -0.0460    2.3860 cp        1 1EL     -0.027000
      7 C6         -0.6750   -0.0990    1.1660 ca        1 1EL     -0.166000
      8 N7          1.8850   -0.0650    3.7380 na        1 1EL     -0.181300
      9 C8          0.7620   -0.0350    4.5750 ca        1 1EL      0.032800
     10 C9         -0.4450   -0.0450    3.7780 cp        1 1EL     -0.103000
     11 C10         0.7140   -0.0390    5.9790 ca        1 1EL     -0.128300
     12 C11         1.9440   -0.0070    6.8010 c3        1 1EL     -0.044800
     13 C12        -0.5520   -0.0680    6.5760 ca        1 1EL     -0.012300
     14 C13        -1.7350   -0.1050    5.8060 ca        1 1EL     -0.213600
     15 C14        -1.6930   -0.0510    4.4010 ca        1 1EL      0.059700
     16 C15        -2.9350    0.0230    3.5970 c3        1 1EL     -0.068800
     17 C16        -0.6290   -0.0480    8.0660 c3        1 1EL     -0.154400
     18 C17        -2.0090    0.2290    8.5720 c2        1 1EL      0.480200
     19 N18        -3.1000    0.1560    7.8990 ne        1 1EL     -0.623100
     20 C19        -3.0360   -0.2360    6.5200 c         1 1EL      0.696100
     21 O19        -4.0620   -0.6770    5.9830 o         1 1EL     -0.511100
     22 HO1        -1.4460   -0.1710   -1.1450 ho        1 1EL      0.419000
     23 H2          2.0450    0.0030   -0.9410 ha        1 1EL      0.154000
     24 H3          3.2760    0.0440    1.2430 ha        1 1EL      0.141000
     25 H6         -1.7690   -0.1730    1.1090 ha        1 1EL      0.144000
     26 H11         2.0910    1.0150    7.2360 hc        1 1EL      0.043367
     27 H11A        2.8560   -0.2700    6.2120 hc        1 1EL      0.043367
     28 H11B        1.8700   -0.7370    7.6470 hc        1 1EL      0.043367
     29 H15        -3.3150   -1.0100    3.3890 hc        1 1EL      0.061700
     30 H15A       -3.7400    0.5770    4.1440 hc        1 1EL      0.061700
     31 H15B       -2.7540    0.5520    2.6300 hc        1 1EL      0.061700
     32 H16         0.0680    0.7390    8.4690 hc        1 1EL      0.084200
     33 H16A       -0.2840   -1.0400    8.4740 hc        1 1EL      0.084200
     34 H17        -2.0860    0.5240    9.6390 h4        1 1EL      0.027800
     35 HN7         2.7850    0.2290    4.0180 hn        1 1EL      0.295700
@<TRIPOS>BOND
     1    1    2 1   
     2    1    3 ar  
     3    1    7 ar  
     4    2   22 1   
     5    3    4 ar  
     6    3   23 1   
     7    4    5 ar  
     8    4   24 1   
     9    5    6 ar  
    10    5    8 1   
    11    6    7 ar  
    12    6   10 1   
    13    7   25 1   
    14    8    9 1   
    15    8   35 1   
    16    9   10 ar  
    17    9   11 ar  
    18   10   15 ar  
    19   11   12 1   
    20   11   13 ar  
    21   12   26 1   
    22   12   27 1   
    23   12   28 1   
    24   13   14 ar  
    25   13   17 1   
    26   14   15 ar  
    27   14   20 1   
    28   15   16 1   
    29   16   29 1   
    30   16   30 1   
    31   16   31 1   
    32   17   18 1   
    33   17   32 1   
    34   17   33 1   
    35   18   19 2   
    36   18   34 1   
    37   19   20 1   
    38   20   21 2   
@<TRIPOS>SUBSTRUCTURE
     1 1EL         1 TEMP              0 ****  ****    0 ROOT
