@<TRIPOS>MOLECULE
1EL
   35    38     1     0     0
SMALL
bcc


@<TRIPOS>ATOM
      1 C1          4.1760    0.7850    0.0400 ca        1 1EL      0.102100
      2 O1          5.1650    1.7460    0.0150 oh        1 1EL     -0.498100
      3 C2          4.6250   -0.5500    0.0620 ca        1 1EL     -0.129000
      4 C3          3.7100   -1.5950    0.0770 ca        1 1EL     -0.118000
      5 C4          2.3470   -1.2840    0.0740 ca        1 1EL     -0.055200
      6 C5          1.8850    0.0850    0.0660 cp        1 1EL     -0.026000
      7 C6          2.8140    1.1160    0.0380 ca        1 1EL     -0.166000
      8 N7          1.2390   -2.1560    0.1220 na        1 1EL     -0.176300
      9 C8          0.0790   -1.3740    0.0280 ca        1 1EL      0.029800
     10 C9          0.4290    0.0290    0.0560 cp        1 1EL     -0.103000
     11 C10        -1.2600   -1.7940   -0.0290 ca        1 1EL     -0.127300
     12 C11        -1.6280   -3.2280   -0.0470 c3        1 1EL     -0.042800
     13 C12        -2.2440   -0.7970   -0.0530 ca        1 1EL     -0.013300
     14 C13        -1.9110    0.5750   -0.0360 ca        1 1EL     -0.212600
     15 C14        -0.5730    1.0000    0.0650 ca        1 1EL      0.059700
     16 C15        -0.2300    2.4340    0.1990 c3        1 1EL     -0.068800
     17 C16        -3.6750   -1.2190   -0.0860 c3        1 1EL     -0.154400
     18 C17        -4.6190   -0.0950    0.2010 c2        1 1EL      0.480200
     19 N18        -4.3450    1.1590    0.1790 ne        1 1EL     -0.623100
     20 C19        -3.0130    1.5700   -0.1590 c         1 1EL      0.696100
     21 O19        -2.8340    2.7320   -0.5490 o         1 1EL     -0.511100
     22 HO1         4.7360    2.6140   -0.0000 ho        1 1EL      0.419000
     23 H2          5.7070   -0.7500    0.0630 ha        1 1EL      0.154000
     24 H3          4.0560   -2.6380    0.0910 ha        1 1EL      0.141000
     25 H6          2.5030    2.1690    0.0010 ha        1 1EL      0.144000
     26 H11        -1.9960   -3.5430    0.9630 hc        1 1EL      0.042700
     27 H11A       -2.4430   -3.4170   -0.7910 hc        1 1EL      0.042700
     28 H11B       -0.7650   -3.8820   -0.3200 hc        1 1EL      0.042700
     29 H15        -0.1490    2.9020   -0.8150 hc        1 1EL      0.061367
     30 H15A       -1.0210    2.9880    0.7660 hc        1 1EL      0.061367
     31 H15B        0.7360    2.5640    0.7450 hc        1 1EL      0.061367
     32 H16        -3.9180   -1.6490   -1.0990 hc        1 1EL      0.084200
     33 H16A       -3.8440   -2.0340    0.6720 hc        1 1EL      0.084200
     34 H17        -5.6590   -0.3860    0.4550 h4        1 1EL      0.027800
     35 HN7         1.2850   -3.0930   -0.1890 hn        1 1EL      0.291700
@<TRIPOS>BOND
     1    1    2 1   
     2    1    3 ar  
     3    1    7 ar  
     4    2   22 1   
     5    3    4 ar  
     6    3   23 1   
     7    4    5 ar  
     8    4   24 1   
     9    5    6 ar  
    10    5    8 1   
    11    6    7 ar  
    12    6   10 1   
    13    7   25 1   
    14    8    9 1   
    15    8   35 1   
    16    9   10 ar  
    17    9   11 ar  
    18   10   15 ar  
    19   11   12 1   
    20   11   13 ar  
    21   12   26 1   
    22   12   27 1   
    23   12   28 1   
    24   13   14 ar  
    25   13   17 1   
    26   14   15 ar  
    27   14   20 1   
    28   15   16 1   
    29   16   29 1   
    30   16   30 1   
    31   16   31 1   
    32   17   18 1   
    33   17   32 1   
    34   17   33 1   
    35   18   19 2   
    36   18   34 1   
    37   19   20 1   
    38   20   21 2   
@<TRIPOS>SUBSTRUCTURE
     1 1EL         1 TEMP              0 ****  ****    0 ROOT
