@<TRIPOS>MOLECULE
1EL
   35    28     1     0     0
SMALL
bcc


@<TRIPOS>ATOM
      1 C1          0.3880   -0.0720   -4.2620 c1        1 1EL      0.056000
      2 O1          0.0020   -0.3170   -5.5930 o         1 1EL     -0.252000
      3 C2          1.7780   -0.0720   -4.2620 c2        1 1EL     -0.128000
      4 C3          2.4720   -0.0720   -3.0600 c1        1 1EL     -0.119000
      5 C4          1.7700   -0.0720   -1.8440 c1        1 1EL     -0.016500
      6 C5          0.3950   -0.0720   -1.8440 c1        1 1EL     -0.016500
      7 C6         -0.3060   -0.0720   -3.0600 c1        1 1EL     -0.166000
      8 N7          2.2000   -0.0720   -0.5240 n1        1 1EL     -0.222000
      9 C8          1.0810   -0.0720    0.2920 c1        1 1EL      0.078000
     10 C9         -0.0350   -0.0720   -0.5160 c1        1 1EL     -0.103000
     11 C10         0.9360   -0.0720    1.6930 c1        1 1EL     -0.121000
     12 C11         2.1870   -0.3600    2.4920 c3        1 1EL     -0.170000
     13 C12        -0.3460   -0.0720    2.2660 c1        1 1EL     -0.005000
     14 C13        -1.4650   -0.0720    1.4550 c1        1 1EL     -0.193000
     15 C14        -1.3210   -0.0720    0.0580 c1        1 1EL      0.067000
     16 C15        -2.2580    0.9460   -0.5540 c3        1 1EL     -0.194000
     17 C16        -0.5030   -0.0720    3.7960 c3        1 1EL     -0.165000
     18 C17        -1.9520   -0.0720    4.2490 c2        1 1EL     -0.012000
     19 N18        -2.9440    0.5630    3.4570 n1        1 1EL     -0.196000
     20 C19        -2.8590   -0.0720    2.0800 c1        1 1EL      0.297000
     21 O19        -3.8410    0.0430    1.3740 o         1 1EL     -0.272000
     22 HO1        -0.6580   -0.9110   -5.6040 ho        1 1EL      0.218000
     23 H2          2.2660   -0.0410   -5.1070 ha        1 1EL      0.154000
     24 H3          3.4480   -0.0720   -3.0600 ha        1 1EL      0.141000
     25 H6         -1.2820   -0.1030   -3.0610 ha        1 1EL      0.144000
     26 H11         2.9710   -0.0890    1.9780 hc        1 1EL      0.082667
     27 H11A        2.2380   -1.3160    2.6830 hc        1 1EL      0.082667
     28 H11B        2.1600    0.1380    3.3310 hc        1 1EL      0.082667
     29 H15        -2.5500    1.5750    0.1330 hc        1 1EL      0.101000
     30 H15A       -1.7940    1.4320   -1.2630 hc        1 1EL      0.101000
     31 H15B       -3.0360    0.4890   -0.9280 hc        1 1EL      0.101000
     32 H16         0.1200    0.5850    4.1620 hc        1 1EL      0.123500
     33 H16A       -0.1340   -0.8880    4.1820 hc        1 1EL      0.123500
     34 H17        -2.1950   -0.4760    5.1040 h4        1 1EL      0.157000
     35 HN7         3.0670   -0.0540   -0.2430 DU        1 1EL      0.245000
@<TRIPOS>BOND
     1    1    3 1   
     2    1    7 1   
     3    2   22 1   
     4    3    4 1   
     5    3   23 1   
     6    4   24 1   
     7    5    6 1   
     8    7   25 1   
     9    8    9 1   
    10    9   10 1   
    11   11   12 1   
    12   11   13 1   
    13   12   26 1   
    14   12   27 1   
    15   12   28 1   
    16   13   17 1   
    17   14   15 1   
    18   14   20 1   
    19   15   16 1   
    20   16   29 1   
    21   16   30 1   
    22   16   31 1   
    23   17   18 1   
    24   17   32 1   
    25   17   33 1   
    26   18   19 1   
    27   18   34 1   
    28   20   21 1   
@<TRIPOS>SUBSTRUCTURE
     1 1EL         1 TEMP              0 ****  ****    0 ROOT
