@<TRIPOS>MOLECULE
1EL
   35    38     1     0     0
SMALL
bcc


@<TRIPOS>ATOM
      1 C1          0.0940    0.0830   -0.0080 ca        1 1EL      0.101100
      2 O1         -0.4820    0.1250   -1.2600 oh        1 1EL     -0.498100
      3 C2          1.5010    0.0220    0.0140 ca        1 1EL     -0.128000
      4 C3          2.1810   -0.0070    1.2250 ca        1 1EL     -0.119000
      5 C4          1.4330    0.0120    2.4060 ca        1 1EL     -0.051200
      6 C5         -0.0110    0.0470    2.3860 cp        1 1EL     -0.027000
      7 C6         -0.6720    0.1020    1.1660 ca        1 1EL     -0.166000
      8 N7          1.8860    0.0630    3.7400 na        1 1EL     -0.181300
      9 C8          0.7620    0.0320    4.5760 ca        1 1EL      0.032800
     10 C9         -0.4440    0.0430    3.7780 cp        1 1EL     -0.103000
     11 C10         0.7130    0.0330    5.9800 ca        1 1EL     -0.128300
     12 C11         1.9430   -0.0020    6.8030 c3        1 1EL     -0.044800
     13 C12        -0.5530    0.0600    6.5760 ca        1 1EL     -0.012300
     14 C13        -1.7360    0.0990    5.8050 ca        1 1EL     -0.213600
     15 C14        -1.6930    0.0470    4.4000 ca        1 1EL      0.059700
     16 C15        -2.9340   -0.0250    3.5950 c3        1 1EL     -0.068800
     17 C16        -0.6320    0.0360    8.0660 c3        1 1EL     -0.154400
     18 C17        -2.0120   -0.2410    8.5700 c2        1 1EL      0.480200
     19 N18        -3.1030   -0.1670    7.8960 ne        1 1EL     -0.623100
     20 C19        -3.0380    0.2280    6.5190 c         1 1EL      0.696100
     21 O19        -4.0630    0.6690    5.9810 o         1 1EL     -0.511100
     22 HO1        -1.4420    0.1780   -1.1450 ho        1 1EL      0.419000
     23 H2          2.0500    0.0060   -0.9390 ha        1 1EL      0.154000
     24 H3          3.2790   -0.0400    1.2460 ha        1 1EL      0.141000
     25 H6         -1.7660    0.1760    1.1070 ha        1 1EL      0.144000
     26 H11         2.8540    0.2620    6.2150 hc        1 1EL      0.043367
     27 H11A        2.0890   -1.0240    7.2370 hc        1 1EL      0.043367
     28 H11B        1.8680    0.7280    7.6500 hc        1 1EL      0.043367
     29 H15        -3.3140    1.0080    3.3890 hc        1 1EL      0.061700
     30 H15A       -2.7520   -0.5510    2.6270 hc        1 1EL      0.061700
     31 H15B       -3.7390   -0.5810    4.1400 hc        1 1EL      0.061700
     32 H16        -0.2870    1.0270    8.4760 hc        1 1EL      0.084200
     33 H16A        0.0650   -0.7510    8.4680 hc        1 1EL      0.084200
     34 H17        -2.0900   -0.5380    9.6360 h4        1 1EL      0.027800
     35 HN7         2.7860   -0.2320    4.0200 hn        1 1EL      0.294700
@<TRIPOS>BOND
     1    1    2 1   
     2    1    3 ar  
     3    1    7 ar  
     4    2   22 1   
     5    3    4 ar  
     6    3   23 1   
     7    4    5 ar  
     8    4   24 1   
     9    5    6 ar  
    10    5    8 1   
    11    6    7 ar  
    12    6   10 1   
    13    7   25 1   
    14    8    9 1   
    15    8   35 1   
    16    9   10 ar  
    17    9   11 ar  
    18   10   15 ar  
    19   11   12 1   
    20   11   13 ar  
    21   12   26 1   
    22   12   27 1   
    23   12   28 1   
    24   13   14 ar  
    25   13   17 1   
    26   14   15 ar  
    27   14   20 1   
    28   15   16 1   
    29   16   29 1   
    30   16   30 1   
    31   16   31 1   
    32   17   18 1   
    33   17   32 1   
    34   17   33 1   
    35   18   19 2   
    36   18   34 1   
    37   19   20 1   
    38   20   21 2   
@<TRIPOS>SUBSTRUCTURE
     1 1EL         1 TEMP              0 ****  ****    0 ROOT
