@<TRIPOS>MOLECULE
1EL
   35    38     1     0     0
SMALL
bcc


@<TRIPOS>ATOM
      1 C1          0.0960   -0.0790   -0.0060 ca        1 1EL      0.101100
      2 O1         -0.4800   -0.1230   -1.2580 oh        1 1EL     -0.498100
      3 C2          1.5030   -0.0100    0.0150 ca        1 1EL     -0.128000
      4 C3          2.1820    0.0240    1.2260 ca        1 1EL     -0.119000
      5 C4          1.4350   -0.0020    2.4080 ca        1 1EL     -0.051200
      6 C5         -0.0090   -0.0460    2.3880 cp        1 1EL     -0.027000
      7 C6         -0.6690   -0.1040    1.1680 ca        1 1EL     -0.166000
      8 N7          1.8890   -0.0500    3.7410 na        1 1EL     -0.181300
      9 C8          0.7650   -0.0270    4.5780 ca        1 1EL      0.032800
     10 C9         -0.4420   -0.0450    3.7800 cp        1 1EL     -0.103000
     11 C10         0.7160   -0.0290    5.9820 ca        1 1EL     -0.128300
     12 C11         1.9450    0.0120    6.8050 c3        1 1EL     -0.044800
     13 C12        -0.5500   -0.0650    6.5780 ca        1 1EL     -0.012300
     14 C13        -1.7330   -0.1110    5.8080 ca        1 1EL     -0.213600
     15 C14        -1.6910   -0.0580    4.4020 ca        1 1EL      0.059700
     16 C15        -2.9320    0.0070    3.5970 c3        1 1EL     -0.068800
     17 C16        -0.6290   -0.0430    8.0680 c3        1 1EL     -0.154400
     18 C17        -2.0110    0.2260    8.5730 c2        1 1EL      0.480200
     19 N18        -3.1010    0.1450    7.8990 ne        1 1EL     -0.623100
     20 C19        -3.0340   -0.2490    6.5210 c         1 1EL      0.696100
     21 O19        -4.0560   -0.6960    5.9830 o         1 1EL     -0.511100
     22 HO1        -1.4390   -0.1830   -1.1430 ho        1 1EL      0.419000
     23 H2          2.0510    0.0110   -0.9380 ha        1 1EL      0.154000
     24 H3          3.2800    0.0630    1.2480 ha        1 1EL      0.141000
     25 H6         -1.7640   -0.1840    1.1100 ha        1 1EL      0.144000
     26 H11         2.0860    1.0350    7.2390 hc        1 1EL      0.043367
     27 H11A        2.8580   -0.2460    6.2160 hc        1 1EL      0.043367
     28 H11B        1.8750   -0.7180    7.6520 hc        1 1EL      0.043367
     29 H15        -3.7400    0.5570    4.1430 hc        1 1EL      0.061700
     30 H15A       -3.3050   -1.0280    3.3910 hc        1 1EL      0.061700
     31 H15B       -2.7530    0.5360    2.6300 hc        1 1EL      0.061700
     32 H16        -0.2790   -1.0320    8.4770 hc        1 1EL      0.084200
     33 H16A        0.0630    0.7490    8.4700 hc        1 1EL      0.084200
     34 H17        -2.0910    0.5220    9.6390 h4        1 1EL      0.027800
     35 HN7         2.7860    0.2500    4.0220 hn        1 1EL      0.294700
@<TRIPOS>BOND
     1    1    2 1   
     2    1    3 ar  
     3    1    7 ar  
     4    2   22 1   
     5    3    4 ar  
     6    3   23 1   
     7    4    5 ar  
     8    4   24 1   
     9    5    6 ar  
    10    5    8 1   
    11    6    7 ar  
    12    6   10 1   
    13    7   25 1   
    14    8    9 1   
    15    8   35 1   
    16    9   10 ar  
    17    9   11 ar  
    18   10   15 ar  
    19   11   12 1   
    20   11   13 ar  
    21   12   26 1   
    22   12   27 1   
    23   12   28 1   
    24   13   14 ar  
    25   13   17 1   
    26   14   15 ar  
    27   14   20 1   
    28   15   16 1   
    29   16   29 1   
    30   16   30 1   
    31   16   31 1   
    32   17   18 1   
    33   17   32 1   
    34   17   33 1   
    35   18   19 2   
    36   18   34 1   
    37   19   20 1   
    38   20   21 2   
@<TRIPOS>SUBSTRUCTURE
     1 1EL         1 TEMP              0 ****  ****    0 ROOT
