@<TRIPOS>MOLECULE
1EM
   81    80     1     0     0
SMALL
bcc


@<TRIPOS>ATOM
      1 O11         0.5510   -1.0260    0.0390 o         1 1EM     -0.537000
      2 C11         1.7100   -0.6680    0.2540 c         1 1EM      0.631100
      3 C12         2.4370   -0.5400    1.5560 c3        1 1EM     -0.126400
      4 C13         1.5220   -0.0030    2.6370 c3        1 1EM     -0.079400
      5 C14         2.2190   -0.0060    3.9800 c3        1 1EM     -0.078400
      6 C15         1.3170    0.5490    5.0620 c3        1 1EM     -0.079400
      7 C16         2.0090    0.5440    6.4080 c3        1 1EM     -0.079400
      8 C17         1.1090    1.1010    7.4900 c3        1 1EM     -0.079400
      9 C18         1.7990    1.0950    8.8380 c3        1 1EM     -0.080400
     10 C19         0.9060    1.6490    9.9180 c3        1 1EM     -0.093100
     11 O21         1.2240    1.8540   -4.0690 o         1 1EM     -0.538000
     12 C21         2.2170    2.3200   -3.5080 c         1 1EM      0.636100
     13 C22         2.6090    3.7530   -3.3130 c3        1 1EM     -0.126400
     14 C23         1.4200    4.6090   -2.9300 c3        1 1EM     -0.078400
     15 C24         1.0000    4.3850   -1.4920 c3        1 1EM     -0.082400
     16 C25        -0.1940    5.2420   -1.1330 c3        1 1EM     -0.078400
     17 C26        -0.6160    5.0190    0.3030 c3        1 1EM     -0.079400
     18 C27        -1.8070    5.8790    0.6660 c3        1 1EM     -0.079400
     19 C28        -2.2310    5.6540    2.1010 c3        1 1EM     -0.079400
     20 C29        -3.4220    6.5140    2.4640 c3        1 1EM     -0.079400
     21 C30        -3.8460    6.2870    3.8990 c3        1 1EM     -0.078400
     22 C31        -5.0380    7.1470    4.2630 c3        1 1EM     -0.079400
     23 C32        -5.4630    6.9200    5.6970 c3        1 1EM     -0.079400
     24 C33        -6.6550    7.7800    6.0620 c3        1 1EM     -0.080400
     25 C34        -7.0820    7.5560    7.4890 c3        1 1EM     -0.092100
     26 C41         1.8900   -0.4530   -2.1160 c3        1 1EM      0.116400
     27 O41         2.4990   -0.3510   -0.8200 os        1 1EM     -0.443900
     28 C42         2.9010    0.0420   -3.1430 c3        1 1EM      0.108100
     29 O42         3.1430    1.4510   -2.9920 os        1 1EM     -0.447900
     30 C43         4.2720   -0.6190   -2.9710 c3        1 1EM      0.135400
     31 O43         5.1580   -0.2330   -3.9990 oh        1 1EM     -0.595800
     32 H121        2.8100   -1.5630    1.8330 hc        1 1EM      0.078200
     33 H122        3.3290    0.1280    1.4270 hc        1 1EM      0.078200
     34 H131        1.2040    1.0400    2.3770 hc        1 1EM      0.058200
     35 H132        0.5920   -0.6310    2.6850 hc        1 1EM      0.058200
     36 H141        2.5240   -1.0530    4.2450 hc        1 1EM      0.041200
     37 H142        3.1570    0.6070    3.9200 hc        1 1EM      0.041200
     38 H151        0.3780   -0.0620    5.1190 hc        1 1EM      0.042700
     39 H152        1.0150    1.5970    4.7980 hc        1 1EM      0.042700
     40 H161        2.9500    1.1530    6.3510 hc        1 1EM      0.039700
     41 H162        2.3110   -0.5040    6.6720 hc        1 1EM      0.039700
     42 H171        0.8080    2.1490    7.2260 hc        1 1EM      0.040200
     43 H172        0.1680    0.4910    7.5470 hc        1 1EM      0.040200
     44 H181        2.7400    1.7030    8.7780 hc        1 1EM      0.038700
     45 H182        2.1000    0.0460    9.0990 hc        1 1EM      0.038700
     46 H191        1.4330    1.6360   10.9020 hc        1 1EM      0.032700
     47 H192        0.6150    2.7030    9.6870 hc        1 1EM      0.032700
     48 H193       -0.0270    1.0420   10.0090 hc        1 1EM      0.032700
     49 H221        3.0380    4.1090   -4.2880 hc        1 1EM      0.078700
     50 H222        3.4120    3.8210   -2.5330 hc        1 1EM      0.078700
     51 H231        0.5600    4.3810   -3.6140 hc        1 1EM      0.058200
     52 H232        1.6950    5.6870   -3.0760 hc        1 1EM      0.058200
     53 H241        1.8550    4.6220   -0.8060 hc        1 1EM      0.043700
     54 H242        0.7450    3.3020   -1.3440 hc        1 1EM      0.043700
     55 H251       -1.0500    5.0020   -1.8180 hc        1 1EM      0.042200
     56 H252        0.0600    6.3240   -1.2870 hc        1 1EM      0.042200
     57 H261       -0.8720    3.9370    0.4560 hc        1 1EM      0.040200
     58 H262        0.2410    5.2550    0.9890 hc        1 1EM      0.040200
     59 H271       -2.6630    5.6430   -0.0200 hc        1 1EM      0.040200
     60 H272       -1.5510    6.9610    0.5150 hc        1 1EM      0.040200
     61 H281       -1.3750    5.8880    2.7880 hc        1 1EM      0.039700
     62 H282       -2.4880    4.5720    2.2520 hc        1 1EM      0.039700
     63 H291       -4.2780    6.2800    1.7780 hc        1 1EM      0.039700
     64 H292       -3.1640    7.5960    2.3150 hc        1 1EM      0.039700
     65 H301       -2.9910    6.5210    4.5860 hc        1 1EM      0.039200
     66 H302       -4.1040    5.2050    4.0490 hc        1 1EM      0.039200
     67 H311       -4.7800    8.2290    4.1140 hc        1 1EM      0.039200
     68 H312       -5.8930    6.9150    3.5750 hc        1 1EM      0.039200
     69 H321       -4.6080    7.1520    6.3850 hc        1 1EM      0.039200
     70 H322       -5.7210    5.8380    5.8460 hc        1 1EM      0.039200
     71 H331       -7.5080    7.5470    5.3720 hc        1 1EM      0.038700
     72 H332       -6.3950    8.8610    5.9110 hc        1 1EM      0.038700
     73 H341       -6.2530    7.8060    8.1940 hc        1 1EM      0.032367
     74 H342       -7.9610    8.1990    7.7370 hc        1 1EM      0.032367
     75 H343       -7.3690    6.4890    7.6520 hc        1 1EM      0.032367
     76 H411        0.9600    0.1740   -2.1410 h1        1 1EM      0.070700
     77 H412        1.6280   -1.5260   -2.3080 h1        1 1EM      0.070700
     78 H42         2.4860   -0.1540   -4.1730 h1        1 1EM      0.090700
     79 H431        4.6940   -0.3610   -1.9640 h1        1 1EM      0.064700
     80 H432        4.1640   -1.7310   -3.0740 h1        1 1EM      0.064700
     81 HO43        5.2710    0.7230   -3.9300 ho        1 1EM      0.409000
@<TRIPOS>BOND
     1    1    2 2   
     2    2    3 1   
     3    2   27 1   
     4    3    4 1   
     5    3   32 1   
     6    3   33 1   
     7    4    5 1   
     8    4   34 1   
     9    4   35 1   
    10    5    6 1   
    11    5   36 1   
    12    5   37 1   
    13    6    7 1   
    14    6   38 1   
    15    6   39 1   
    16    7    8 1   
    17    7   40 1   
    18    7   41 1   
    19    8    9 1   
    20    8   42 1   
    21    8   43 1   
    22    9   10 1   
    23    9   44 1   
    24    9   45 1   
    25   10   46 1   
    26   10   47 1   
    27   10   48 1   
    28   11   12 2   
    29   12   13 1   
    30   12   29 1   
    31   13   14 1   
    32   13   49 1   
    33   13   50 1   
    34   14   15 1   
    35   14   51 1   
    36   14   52 1   
    37   15   16 1   
    38   15   53 1   
    39   15   54 1   
    40   16   17 1   
    41   16   55 1   
    42   16   56 1   
    43   17   18 1   
    44   17   57 1   
    45   17   58 1   
    46   18   19 1   
    47   18   59 1   
    48   18   60 1   
    49   19   20 1   
    50   19   61 1   
    51   19   62 1   
    52   20   21 1   
    53   20   63 1   
    54   20   64 1   
    55   21   22 1   
    56   21   65 1   
    57   21   66 1   
    58   22   23 1   
    59   22   67 1   
    60   22   68 1   
    61   23   24 1   
    62   23   69 1   
    63   23   70 1   
    64   24   25 1   
    65   24   71 1   
    66   24   72 1   
    67   25   73 1   
    68   25   74 1   
    69   25   75 1   
    70   26   27 1   
    71   26   28 1   
    72   26   76 1   
    73   26   77 1   
    74   28   29 1   
    75   28   30 1   
    76   28   78 1   
    77   30   31 1   
    78   30   79 1   
    79   30   80 1   
    80   31   81 1   
@<TRIPOS>SUBSTRUCTURE
     1 1EM         1 TEMP              0 ****  ****    0 ROOT
