@<TRIPOS>MOLECULE
1EM
   81    80     1     0     0
SMALL
bcc


@<TRIPOS>ATOM
      1 O11         5.4080    7.4850   -5.3710 o         1 1EM     -0.537000
      2 C11         5.9640    7.4400   -6.4690 c         1 1EM      0.631100
      3 C12         6.9930    6.4770   -6.9730 c3        1 1EM     -0.126400
      4 C13         7.9670    6.1010   -5.8770 c3        1 1EM     -0.079400
      5 C14         8.9200    5.0250   -6.3510 c3        1 1EM     -0.078400
      6 C15         9.9100    4.6580   -5.2660 c3        1 1EM     -0.079400
      7 C16        10.8610    3.5780   -5.7350 c3        1 1EM     -0.079400
      8 C17        11.8520    3.2120   -4.6510 c3        1 1EM     -0.079400
      9 C18        12.8050    2.1320   -5.1180 c3        1 1EM     -0.080400
     10 C19        13.7930    1.7640   -4.0420 c3        1 1EM     -0.093100
     11 O21         5.0060   12.3770   -6.6230 o         1 1EM     -0.538000
     12 C21         5.8440   12.1620   -7.5000 c         1 1EM      0.636100
     13 C22         7.0960   12.9200   -7.8190 c3        1 1EM     -0.126400
     14 C23         7.8320   13.3360   -6.5620 c3        1 1EM     -0.078400
     15 C24         8.5420   12.1700   -5.9090 c3        1 1EM     -0.082400
     16 C25         9.2630   12.6050   -4.6510 c3        1 1EM     -0.078400
     17 C26         9.9740   11.4410   -3.9970 c3        1 1EM     -0.079400
     18 C27        10.6990   11.8760   -2.7410 c3        1 1EM     -0.079400
     19 C28        11.4090   10.7110   -2.0850 c3        1 1EM     -0.079400
     20 C29        12.1350   11.1460   -0.8300 c3        1 1EM     -0.079400
     21 C30        12.8450    9.9810   -0.1740 c3        1 1EM     -0.078400
     22 C31        13.5710   10.4160    1.0810 c3        1 1EM     -0.079400
     23 C32        14.2800    9.2520    1.7370 c3        1 1EM     -0.079400
     24 C33        15.0070    9.6860    2.9920 c3        1 1EM     -0.080400
     25 C34        15.7150    8.5290    3.6490 c3        1 1EM     -0.092100
     26 C41         4.6190    9.3320   -7.0220 c3        1 1EM      0.116400
     27 O41         5.6100    8.3700   -7.4110 os        1 1EM     -0.443900
     28 C42         4.4530   10.3170   -8.1740 c3        1 1EM      0.108100
     29 O42         5.6410   11.1080   -8.3520 os        1 1EM     -0.447900
     30 C43         4.2400    9.6100   -9.5150 c3        1 1EM      0.135400
     31 O43         3.9760   10.5370  -10.5450 oh        1 1EM     -0.595800
     32 H121        7.5350    6.9270   -7.8460 hc        1 1EM      0.078200
     33 H122        6.4480    5.5660   -7.3400 hc        1 1EM      0.078200
     34 H131        8.5470    7.0080   -5.5610 hc        1 1EM      0.058200
     35 H132        7.3980    5.7430   -4.9780 hc        1 1EM      0.058200
     36 H141        9.4720    5.3830   -7.2600 hc        1 1EM      0.041200
     37 H142        8.3390    4.1140   -6.6540 hc        1 1EM      0.041200
     38 H151       10.4920    5.5680   -4.9650 hc        1 1EM      0.042700
     39 H152        9.3560    4.3040   -4.3570 hc        1 1EM      0.042700
     40 H161       10.2790    2.6680   -6.0350 hc        1 1EM      0.039700
     41 H162       11.4130    3.9320   -6.6460 hc        1 1EM      0.039700
     42 H171       11.3000    2.8580   -3.7410 hc        1 1EM      0.040200
     43 H172       12.4350    4.1220   -4.3510 hc        1 1EM      0.040200
     44 H181       13.3550    2.4870   -6.0290 hc        1 1EM      0.038200
     45 H182       12.2200    1.2230   -5.4190 hc        1 1EM      0.038200
     46 H191       13.2650    1.3840   -3.1340 hc        1 1EM      0.032700
     47 H192       14.4030    2.6520   -3.7460 hc        1 1EM      0.032700
     48 H193       14.4860    0.9670   -4.4070 hc        1 1EM      0.032700
     49 H221        6.7880   13.8310   -8.4010 hc        1 1EM      0.078700
     50 H222        7.7570   12.2950   -8.4750 hc        1 1EM      0.078700
     51 H231        7.1050   13.7900   -5.8370 hc        1 1EM      0.058200
     52 H232        8.5810   14.1270   -6.8330 hc        1 1EM      0.058200
     53 H241        9.2770   11.7210   -6.6280 hc        1 1EM      0.043700
     54 H242        7.7930   11.3720   -5.6570 hc        1 1EM      0.043700
     55 H251       10.0070   13.4070   -4.9020 hc        1 1EM      0.042200
     56 H252        8.5270   13.0500   -3.9310 hc        1 1EM      0.042200
     57 H261        9.2290   10.6410   -3.7420 hc        1 1EM      0.040700
     58 H262       10.7070   10.9930   -4.7180 hc        1 1EM      0.040700
     59 H271        9.9660   12.3240   -2.0200 hc        1 1EM      0.040200
     60 H272       11.4440   12.6760   -2.9950 hc        1 1EM      0.040200
     61 H281       12.1410   10.2620   -2.8070 hc        1 1EM      0.039700
     62 H282       10.6640    9.9120   -1.8300 hc        1 1EM      0.039700
     63 H291       11.4020   11.5950   -0.1090 hc        1 1EM      0.039700
     64 H292       12.8800   11.9460   -1.0850 hc        1 1EM      0.039700
     65 H301       12.0990    9.1820    0.0810 hc        1 1EM      0.039200
     66 H302       13.5770    9.5320   -0.8960 hc        1 1EM      0.039200
     67 H311       14.3160   11.2160    0.8260 hc        1 1EM      0.039200
     68 H312       12.8380   10.8660    1.8020 hc        1 1EM      0.039200
     69 H321       15.0130    8.8020    1.0160 hc        1 1EM      0.039200
     70 H322       13.5350    8.4530    1.9920 hc        1 1EM      0.039200
     71 H331       15.7510   10.4860    2.7350 hc        1 1EM      0.038700
     72 H332       14.2730   10.1360    3.7120 hc        1 1EM      0.038700
     73 H341       16.2440    8.8710    4.5720 hc        1 1EM      0.032367
     74 H342       14.9870    7.7320    3.9350 hc        1 1EM      0.032367
     75 H343       16.4680    8.0820    2.9560 hc        1 1EM      0.032367
     76 H411        3.6550    8.7970   -6.8220 h1        1 1EM      0.070700
     77 H412        4.9590    9.8620   -6.0930 h1        1 1EM      0.070700
     78 H42         3.5880   10.9990   -7.9360 h1        1 1EM      0.090700
     79 H431        3.3240    8.9650   -9.4540 h1        1 1EM      0.064700
     80 H432        5.1390    8.9850   -9.7620 h1        1 1EM      0.064700
     81 HO43        4.7550   11.1030  -10.6220 ho        1 1EM      0.409000
@<TRIPOS>BOND
     1    1    2 2   
     2    2    3 1   
     3    2   27 1   
     4    3    4 1   
     5    3   32 1   
     6    3   33 1   
     7    4    5 1   
     8    4   34 1   
     9    4   35 1   
    10    5    6 1   
    11    5   36 1   
    12    5   37 1   
    13    6    7 1   
    14    6   38 1   
    15    6   39 1   
    16    7    8 1   
    17    7   40 1   
    18    7   41 1   
    19    8    9 1   
    20    8   42 1   
    21    8   43 1   
    22    9   10 1   
    23    9   44 1   
    24    9   45 1   
    25   10   46 1   
    26   10   47 1   
    27   10   48 1   
    28   11   12 2   
    29   12   13 1   
    30   12   29 1   
    31   13   14 1   
    32   13   49 1   
    33   13   50 1   
    34   14   15 1   
    35   14   51 1   
    36   14   52 1   
    37   15   16 1   
    38   15   53 1   
    39   15   54 1   
    40   16   17 1   
    41   16   55 1   
    42   16   56 1   
    43   17   18 1   
    44   17   57 1   
    45   17   58 1   
    46   18   19 1   
    47   18   59 1   
    48   18   60 1   
    49   19   20 1   
    50   19   61 1   
    51   19   62 1   
    52   20   21 1   
    53   20   63 1   
    54   20   64 1   
    55   21   22 1   
    56   21   65 1   
    57   21   66 1   
    58   22   23 1   
    59   22   67 1   
    60   22   68 1   
    61   23   24 1   
    62   23   69 1   
    63   23   70 1   
    64   24   25 1   
    65   24   71 1   
    66   24   72 1   
    67   25   73 1   
    68   25   74 1   
    69   25   75 1   
    70   26   27 1   
    71   26   28 1   
    72   26   76 1   
    73   26   77 1   
    74   28   29 1   
    75   28   30 1   
    76   28   78 1   
    77   30   31 1   
    78   30   79 1   
    79   30   80 1   
    80   31   81 1   
@<TRIPOS>SUBSTRUCTURE
     1 1EM         1 TEMP              0 ****  ****    0 ROOT
