@<TRIPOS>MOLECULE
1EM
   81    80     1     0     0
SMALL
bcc


@<TRIPOS>ATOM
      1 O11         0.3500    1.0900   -0.6090 o         1 1EM     -0.541000
      2 C11         1.2890    0.5510   -0.0210 c         1 1EM      0.637100
      3 C12         1.6600    0.6270    1.4280 c3        1 1EM     -0.126400
      4 C13         0.5010    1.1430    2.2550 c3        1 1EM     -0.083400
      5 C14         0.8870    1.2840    3.7110 c3        1 1EM     -0.077400
      6 C15        -0.2900    1.7680    4.5320 c3        1 1EM     -0.083400
      7 C16         0.0870    1.9500    5.9870 c3        1 1EM     -0.078400
      8 C17        -1.1120    2.3650    6.8120 c3        1 1EM     -0.084400
      9 C18        -0.7320    2.6040    8.2580 c3        1 1EM     -0.079400
     10 C19        -1.9360    2.9590    9.0930 c3        1 1EM     -0.097100
     11 O21         1.6830    1.3310   -4.7010 o         1 1EM     -0.538000
     12 C21         2.4120    2.0490   -4.0160 c         1 1EM      0.639100
     13 C22         2.6060    3.5330   -4.0910 c3        1 1EM     -0.125400
     14 C23         1.4220    4.2760   -3.5040 c3        1 1EM     -0.074400
     15 C24         1.3220    4.0640   -2.0100 c3        1 1EM     -0.090400
     16 C25         0.1650    4.8300   -1.4030 c3        1 1EM     -0.071400
     17 C26        -0.0340    4.4080    0.0370 c3        1 1EM     -0.088400
     18 C27        -1.1160    5.2090    0.7270 c3        1 1EM     -0.076400
     19 C28        -1.2990    4.7280    2.1510 c3        1 1EM     -0.081400
     20 C29        -2.3060    5.5660    2.9080 c3        1 1EM     -0.078400
     21 C30        -2.4180    5.1000    4.3440 c3        1 1EM     -0.081400
     22 C31        -3.4080    5.9340    5.1270 c3        1 1EM     -0.078400
     23 C32        -3.4600    5.4950    6.5750 c3        1 1EM     -0.082400
     24 C33        -4.4580    6.3100    7.3690 c3        1 1EM     -0.080400
     25 C34        -4.4900    5.8830    8.8130 c3        1 1EM     -0.094100
     26 C41         1.9190   -0.4230   -2.1350 c3        1 1EM      0.109400
     27 O41         2.1500   -0.2410   -0.7350 os        1 1EM     -0.445900
     28 C42         3.1400    0.0260   -2.9330 c3        1 1EM      0.092100
     29 O42         3.1880    1.4590   -3.0510 os        1 1EM     -0.452900
     30 C43         4.4560   -0.3640   -2.2530 c3        1 1EM      0.138400
     31 O43         5.5630   -0.0730   -3.0770 oh        1 1EM     -0.596800
     32 H121        1.9780   -0.3890    1.7800 hc        1 1EM      0.079700
     33 H122        2.5460    1.3120    1.5200 hc        1 1EM      0.079700
     34 H131        0.1660    2.1380    1.8510 hc        1 1EM      0.059700
     35 H132       -0.3690    0.4410    2.1570 hc        1 1EM      0.059700
     36 H141        1.2430    0.2960    4.1070 hc        1 1EM      0.040700
     37 H142        1.7390    2.0070    3.8090 hc        1 1EM      0.040700
     38 H151       -1.1310    1.0290    4.4520 hc        1 1EM      0.044700
     39 H152       -0.6650    2.7420    4.1160 hc        1 1EM      0.044700
     40 H161        0.8910    2.7280    6.0720 hc        1 1EM      0.039700
     41 H162        0.5090    0.9930    6.3910 hc        1 1EM      0.039700
     42 H171       -1.5630    3.3000    6.3830 hc        1 1EM      0.042200
     43 H172       -1.8980    1.5660    6.7590 hc        1 1EM      0.042200
     44 H181        0.0230    3.4320    8.3130 hc        1 1EM      0.037700
     45 H182       -0.2430    1.6840    8.6750 hc        1 1EM      0.037700
     46 H191       -1.6290    3.1680   10.1460 hc        1 1EM      0.034367
     47 H192       -2.4470    3.8680    8.6860 hc        1 1EM      0.034367
     48 H193       -2.6720    2.1190    9.1000 hc        1 1EM      0.034367
     49 H221        2.7240    3.7990   -5.1750 hc        1 1EM      0.076200
     50 H222        3.5460    3.8170   -3.5480 hc        1 1EM      0.076200
     51 H231        0.4770    3.9310   -4.0020 hc        1 1EM      0.055200
     52 H232        1.5420    5.3690   -3.7270 hc        1 1EM      0.055200
     53 H241        2.2790    4.3850   -1.5190 hc        1 1EM      0.050200
     54 H242        1.1940    2.9660   -1.8020 hc        1 1EM      0.050200
     55 H251       -0.7720    4.6310   -1.9860 hc        1 1EM      0.038700
     56 H252        0.3650    5.9320   -1.4590 hc        1 1EM      0.038700
     57 H261       -0.2980    3.3150    0.0630 hc        1 1EM      0.047200
     58 H262        0.9310    4.5290    0.5970 hc        1 1EM      0.047200
     59 H271       -2.0820    5.1080    0.1660 hc        1 1EM      0.039200
     60 H272       -0.8440    6.2970    0.7250 hc        1 1EM      0.039200
     61 H281       -0.3120    4.7590    2.6850 hc        1 1EM      0.038700
     62 H282       -1.6330    3.6560    2.1430 hc        1 1EM      0.038700
     63 H291       -3.3080    5.4980    2.4080 hc        1 1EM      0.040700
     64 H292       -1.9970    6.6440    2.8840 hc        1 1EM      0.040700
     65 H301       -1.4100    5.1560    4.8350 hc        1 1EM      0.039200
     66 H302       -2.7320    4.0230    4.3660 hc        1 1EM      0.039200
     67 H311       -3.1180    7.0160    5.0720 hc        1 1EM      0.040200
     68 H312       -4.4270    5.8410    4.6670 hc        1 1EM      0.040200
     69 H321       -2.4410    5.5970    7.0350 hc        1 1EM      0.040200
     70 H322       -3.7350    4.4070    6.6290 hc        1 1EM      0.040200
     71 H331       -5.4790    6.1930    6.9180 hc        1 1EM      0.038700
     72 H332       -4.1900    7.3970    7.3020 hc        1 1EM      0.038700
     73 H341       -3.4880    6.0220    9.2870 hc        1 1EM      0.033033
     74 H342       -5.2370    6.4880    9.3820 hc        1 1EM      0.033033
     75 H343       -4.7680    4.8050    8.9000 hc        1 1EM      0.033033
     76 H411        1.0090    0.1340   -2.4850 h1        1 1EM      0.082700
     77 H412        1.7730   -1.5290   -2.2640 h1        1 1EM      0.082700
     78 H42         3.0770   -0.4250   -3.9630 h1        1 1EM      0.089700
     79 H431        4.5460    0.1610   -1.2660 h1        1 1EM      0.063200
     80 H432        4.4800   -1.4760   -2.1020 h1        1 1EM      0.063200
     81 HO43        5.5620    0.8810   -3.2250 ho        1 1EM      0.408000
@<TRIPOS>BOND
     1    1    2 2   
     2    2    3 1   
     3    2   27 1   
     4    3    4 1   
     5    3   32 1   
     6    3   33 1   
     7    4    5 1   
     8    4   34 1   
     9    4   35 1   
    10    5    6 1   
    11    5   36 1   
    12    5   37 1   
    13    6    7 1   
    14    6   38 1   
    15    6   39 1   
    16    7    8 1   
    17    7   40 1   
    18    7   41 1   
    19    8    9 1   
    20    8   42 1   
    21    8   43 1   
    22    9   10 1   
    23    9   44 1   
    24    9   45 1   
    25   10   46 1   
    26   10   47 1   
    27   10   48 1   
    28   11   12 2   
    29   12   13 1   
    30   12   29 1   
    31   13   14 1   
    32   13   49 1   
    33   13   50 1   
    34   14   15 1   
    35   14   51 1   
    36   14   52 1   
    37   15   16 1   
    38   15   53 1   
    39   15   54 1   
    40   16   17 1   
    41   16   55 1   
    42   16   56 1   
    43   17   18 1   
    44   17   57 1   
    45   17   58 1   
    46   18   19 1   
    47   18   59 1   
    48   18   60 1   
    49   19   20 1   
    50   19   61 1   
    51   19   62 1   
    52   20   21 1   
    53   20   63 1   
    54   20   64 1   
    55   21   22 1   
    56   21   65 1   
    57   21   66 1   
    58   22   23 1   
    59   22   67 1   
    60   22   68 1   
    61   23   24 1   
    62   23   69 1   
    63   23   70 1   
    64   24   25 1   
    65   24   71 1   
    66   24   72 1   
    67   25   73 1   
    68   25   74 1   
    69   25   75 1   
    70   26   27 1   
    71   26   28 1   
    72   26   76 1   
    73   26   77 1   
    74   28   29 1   
    75   28   30 1   
    76   28   78 1   
    77   30   31 1   
    78   30   79 1   
    79   30   80 1   
    80   31   81 1   
@<TRIPOS>SUBSTRUCTURE
     1 1EM         1 TEMP              0 ****  ****    0 ROOT
