@<TRIPOS>MOLECULE
1EM
   81    78     1     0     0
SMALL
bcc


@<TRIPOS>ATOM
      1 O11        -0.3550    0.9170    5.5450 o         1 1EM     -0.348000
      2 C11         0.8470    0.8460    5.4350 c1        1 1EM      0.306000
      3 C12         1.7480    1.6290    6.3920 c2        1 1EM     -0.156000
      4 C13         0.9620    2.8230    6.9750 c3        1 1EM     -0.158000
      5 C14         1.9330    3.9330    7.3540 c3        1 1EM     -0.157000
      6 C15         1.2170    4.9480    8.3190 c3        1 1EM     -0.157000
      7 C16         1.9520    6.3420    8.2550 c3        1 1EM     -0.158000
      8 C17         1.4710    7.2390    9.4270 c3        1 1EM     -0.158000
      9 C18         2.0390    8.6600    9.2500 c3        1 1EM     -0.159000
     10 C19         1.8240    9.4510   10.5190 c3        1 1EM     -0.211000
     11 O21         0.1230   -4.1950    2.4410 o         1 1EM     -0.348000
     12 C21         0.2580   -3.4650    1.4730 c1        1 1EM      0.308000
     13 C22         0.4590   -4.0700    0.0850 c2        1 1EM     -0.155000
     14 C23        -0.9200   -4.3070   -0.5800 c3        1 1EM     -0.159000
     15 C24        -0.7260   -5.1130   -1.9260 c3        1 1EM     -0.157000
     16 C25        -1.5350   -4.4470   -3.0400 c3        1 1EM     -0.157000
     17 C26        -1.4450   -5.3120   -4.3420 c3        1 1EM     -0.156000
     18 C27        -0.9070   -4.4320   -5.5110 c3        1 1EM     -0.157000
     19 C28        -1.9090   -4.4660   -6.6950 c3        1 1EM     -0.158000
     20 C29        -1.2800   -3.7510   -7.9290 c3        1 1EM     -0.158000
     21 C30        -2.3770   -3.0770   -8.7380 c3        1 1EM     -0.158000
     22 C31        -1.7520   -2.2980   -9.9030 c3        1 1EM     -0.158000
     23 C32        -2.6750   -1.1640  -10.3040 c3        1 1EM     -0.158000
     24 C33        -2.0380   -0.3680  -11.4380 c3        1 1EM     -0.159000
     25 C34        -2.8470    0.9040  -11.6850 c3        1 1EM     -0.210000
     26 C41         0.4670   -0.7010    3.6020 c3        1 1EM     -0.033000
     27 O41         1.4310    0.0780    4.3530 os        1 1EM     -0.283000
     28 C42         1.1960   -1.6890    2.7100 c3        1 1EM      0.033000
     29 O42         0.3630   -2.0650    1.6540 os        1 1EM     -0.280000
     30 C43         2.4490   -1.0390    2.1590 c3        1 1EM     -0.022000
     31 O43         3.5910   -1.8540    2.4740 oh        1 1EM     -0.325000
     32 H121        2.5220    1.9550    5.9120 ha        1 1EM      0.119000
     33 H122        2.0410    1.0360    7.1280 ha        1 1EM      0.119000
     34 H131        0.3360    3.1540    6.3100 hc        1 1EM      0.097000
     35 H132        0.4680    2.5320    7.7750 hc        1 1EM      0.097000
     36 H141        2.2200    4.3960    6.5540 hc        1 1EM      0.081000
     37 H142        2.7150    3.5450    7.8060 hc        1 1EM      0.081000
     38 H151        0.2830    5.0580    8.0430 hc        1 1EM      0.082000
     39 H152        1.2490    4.6000    9.2470 hc        1 1EM      0.082000
     40 H161        2.9220    6.2050    8.3250 hc        1 1EM      0.079500
     41 H162        1.7480    6.7770    7.4100 hc        1 1EM      0.079500
     42 H171        0.4920    7.2760    9.4290 hc        1 1EM      0.079500
     43 H172        1.7880    6.8610   10.2810 hc        1 1EM      0.079500
     44 H181        1.5830    9.1020    8.5110 hc        1 1EM      0.078000
     45 H182        2.9850    8.6070    9.0600 hc        1 1EM      0.078000
     46 H191        2.0450   10.3880   10.3590 hc        1 1EM      0.072000
     47 H192        0.8800    9.3790   10.7960 hc        1 1EM      0.072000
     48 H193        2.3960    9.0980   11.2220 hc        1 1EM      0.072000
     49 H221        0.9320   -4.9220    0.1670 ha        1 1EM      0.119000
     50 H222        0.9820   -3.4590   -0.4620 ha        1 1EM      0.119000
     51 H231       -1.3440   -3.4380   -0.7760 hc        1 1EM      0.097000
     52 H232       -1.5010   -4.8270    0.0370 hc        1 1EM      0.097000
     53 H241        0.2170   -5.1180   -2.1680 hc        1 1EM      0.080500
     54 H242       -1.0370   -6.0340   -1.8030 hc        1 1EM      0.080500
     55 H251       -2.4680   -4.3710   -2.7630 hc        1 1EM      0.082500
     56 H252       -1.1770   -3.5630   -3.2150 hc        1 1EM      0.082500
     57 H261       -0.8320   -6.0700   -4.1920 hc        1 1EM      0.079500
     58 H262       -2.3360   -5.6530   -4.5720 hc        1 1EM      0.079500
     59 H271       -0.0350   -4.7800   -5.8080 hc        1 1EM      0.079000
     60 H272       -0.8020   -3.5190   -5.2040 hc        1 1EM      0.079000
     61 H281       -2.1150   -5.4050   -6.9270 hc        1 1EM      0.079500
     62 H282       -2.7290   -4.0080   -6.4390 hc        1 1EM      0.079500
     63 H291       -0.6400   -3.0790   -7.6250 hc        1 1EM      0.078000
     64 H292       -0.8170   -4.4140   -8.4930 hc        1 1EM      0.078000
     65 H301       -2.8740   -2.4610   -8.1630 hc        1 1EM      0.079000
     66 H302       -2.9920   -3.7630   -9.0930 hc        1 1EM      0.079000
     67 H311       -0.8950   -1.9350   -9.6260 hc        1 1EM      0.078500
     68 H312       -1.6210   -2.9010  -10.6680 hc        1 1EM      0.078500
     69 H321       -2.8220   -0.5790   -9.5380 hc        1 1EM      0.079000
     70 H322       -3.5410   -1.5350  -10.6070 hc        1 1EM      0.079000
     71 H331       -1.1260   -0.1300  -11.1940 hc        1 1EM      0.077500
     72 H332       -2.0270   -0.9170  -12.2600 hc        1 1EM      0.077500
     73 H341       -2.7910    1.4830  -10.9010 hc        1 1EM      0.072000
     74 H342       -2.4850    1.3750  -12.4650 hc        1 1EM      0.072000
     75 H343       -3.7890    0.6680  -11.8530 hc        1 1EM      0.072000
     76 H411       -0.1170   -1.1910    4.2260 h1        1 1EM      0.105000
     77 H412       -0.0790   -0.0990    3.0450 h1        1 1EM      0.105000
     78 H42         1.4410   -2.4850    3.2340 h1        1 1EM      0.146000
     79 H431        2.3700   -0.9480    1.1750 h1        1 1EM      0.083000
     80 H432        2.5590   -0.1610    2.5570 h1        1 1EM      0.083000
     81 HO43        4.2570   -1.6890    1.8750 ho        1 1EM      0.202000
@<TRIPOS>BOND
     1    1    2 1   
     2    2   27 1   
     3    3    4 1   
     4    3   32 1   
     5    3   33 1   
     6    4    5 1   
     7    4   34 1   
     8    4   35 1   
     9    5    6 1   
    10    5   36 1   
    11    5   37 1   
    12    6    7 1   
    13    6   38 1   
    14    6   39 1   
    15    7    8 1   
    16    7   40 1   
    17    7   41 1   
    18    8    9 1   
    19    8   42 1   
    20    8   43 1   
    21    9   10 1   
    22    9   44 1   
    23    9   45 1   
    24   10   46 1   
    25   10   47 1   
    26   10   48 1   
    27   11   12 1   
    28   12   29 1   
    29   13   14 1   
    30   13   49 1   
    31   13   50 1   
    32   14   15 1   
    33   14   51 1   
    34   14   52 1   
    35   15   16 1   
    36   15   53 1   
    37   15   54 1   
    38   16   17 1   
    39   16   55 1   
    40   16   56 1   
    41   17   18 1   
    42   17   57 1   
    43   17   58 1   
    44   18   19 1   
    45   18   59 1   
    46   18   60 1   
    47   19   20 1   
    48   19   61 1   
    49   19   62 1   
    50   20   21 1   
    51   20   63 1   
    52   20   64 1   
    53   21   22 1   
    54   21   65 1   
    55   21   66 1   
    56   22   23 1   
    57   22   67 1   
    58   22   68 1   
    59   23   24 1   
    60   23   69 1   
    61   23   70 1   
    62   24   25 1   
    63   24   71 1   
    64   24   72 1   
    65   25   73 1   
    66   25   74 1   
    67   25   75 1   
    68   26   27 1   
    69   26   28 1   
    70   26   76 1   
    71   26   77 1   
    72   28   29 1   
    73   28   30 1   
    74   28   78 1   
    75   30   31 1   
    76   30   79 1   
    77   30   80 1   
    78   31   81 1   
@<TRIPOS>SUBSTRUCTURE
     1 1EM         1 TEMP              0 ****  ****    0 ROOT
