@<TRIPOS>MOLECULE
1EN
   42    46     1     0     0
SMALL
bcc


@<TRIPOS>ATOM
      1 C1          0.2410    0.6780   -0.0800 cc        1 1EN     -0.132000
      2 C2          1.6030    0.4960   -0.0250 cd        1 1EN     -0.089300
      3 N3          2.1820    0.0210    1.1330 na        1 1EN     -0.044200
      4 C4          1.3920   -0.2640    2.2910 cd        1 1EN     -0.119300
      5 C5         -0.0280   -0.0630    2.2120 cd        1 1EN      0.163100
      6 C6         -0.5900    0.3900    1.0390 cc        1 1EN     -0.155000
      7 C7          3.5030   -0.2610    1.5260 cd        1 1EN      0.318800
      8 N8          3.4650   -0.6870    2.8370 nc        1 1EN     -0.338700
      9 N9          2.2430   -0.6940    3.2900 nc        1 1EN     -0.067000
     10 C10         4.6870   -0.1230    0.6600 cx        1 1EN     -0.089000
     11 C11         4.8860    1.2440    0.1350 ca        1 1EN     -0.060300
     12 C12         5.9110   -0.9500    1.0110 cx        1 1EN     -0.100900
     13 C13         5.0860   -1.3240   -0.1770 cx        1 1EN     -0.100900
     14 C14         5.2130    2.2840    1.0160 ca        1 1EN     -0.112000
     15 C15         5.4100    3.5780    0.5410 ca        1 1EN     -0.124500
     16 C16         5.2780    3.8390   -0.8270 ca        1 1EN      0.020400
     17 C17         4.9500    2.8110   -1.7160 ca        1 1EN     -0.124500
     18 C18         4.7530    1.5190   -1.2310 ca        1 1EN     -0.112000
     19 CL19        5.5190    5.4150   -1.4130 cl        1 1EN     -0.089400
     20 O20        -0.8600   -0.2100    3.3080 os        1 1EN     -0.226200
     21 C21        -0.5390   -1.2320    4.2030 ca        1 1EN      0.059100
     22 C22        -0.3400   -0.8700    5.5550 ca        1 1EN      0.149900
     23 C23        -0.1530   -1.8880    6.5100 ca        1 1EN     -0.155000
     24 C24        -0.1540   -3.2210    6.1110 ca        1 1EN     -0.104000
     25 C25        -0.3450   -3.5650    4.7710 ca        1 1EN     -0.131000
     26 C26        -0.5390   -2.5740    3.8120 ca        1 1EN     -0.115000
     27 F27        -0.3440    0.4260    5.9320 f         1 1EN     -0.122900
     28 H1         -0.2200    1.0540   -1.0040 ha        1 1EN      0.158000
     29 H2          2.2930    0.7200   -0.8580 h4        1 1EN      0.177000
     30 H3         -1.6760    0.5510    0.9680 ha        1 1EN      0.164000
     31 H4          5.8860   -1.5870    1.9140 hc        1 1EN      0.084700
     32 H5          6.9030   -0.4880    0.8550 hc        1 1EN      0.084700
     33 H6          4.4560   -2.2310   -0.1300 hc        1 1EN      0.084700
     34 H7          5.4900   -1.1500   -1.1910 hc        1 1EN      0.084700
     35 H8          5.3140    2.0730    2.0930 ha        1 1EN      0.145000
     36 H9          5.6670    4.3880    1.2400 ha        1 1EN      0.150000
     37 H10         4.8490    3.0170   -2.7920 ha        1 1EN      0.150000
     38 H11         4.4990    0.7110   -1.9340 ha        1 1EN      0.145000
     39 H12         0.0020   -1.6130    7.5630 ha        1 1EN      0.152000
     40 H13         0.0020   -4.0100    6.8610 ha        1 1EN      0.139000
     41 H14        -0.3400   -4.6220    4.4690 ha        1 1EN      0.139000
     42 H15        -0.6860   -2.8320    2.7540 ha        1 1EN      0.145000
@<TRIPOS>BOND
     1    1    2 2   
     2    1    6 1   
     3    1   28 1   
     4    2    3 1   
     5    2   29 1   
     6    3    4 1   
     7    3    7 1   
     8    4    5 1   
     9    4    9 2   
    10    5    6 2   
    11    5   20 1   
    12    6   30 1   
    13    7    8 2   
    14    7   10 1   
    15    8    9 1   
    16   10   11 1   
    17   10   12 1   
    18   10   13 1   
    19   11   14 ar  
    20   11   18 ar  
    21   12   13 1   
    22   12   31 1   
    23   12   32 1   
    24   13   33 1   
    25   13   34 1   
    26   14   15 ar  
    27   14   35 1   
    28   15   16 ar  
    29   15   36 1   
    30   16   17 ar  
    31   16   19 1   
    32   17   18 ar  
    33   17   37 1   
    34   18   38 1   
    35   20   21 1   
    36   21   22 ar  
    37   21   26 ar  
    38   22   23 ar  
    39   22   27 1   
    40   23   24 ar  
    41   23   39 1   
    42   24   25 ar  
    43   24   40 1   
    44   25   26 ar  
    45   25   41 1   
    46   26   42 1   
@<TRIPOS>SUBSTRUCTURE
     1 1EN         1 TEMP              0 ****  ****    0 ROOT
