@<TRIPOS>MOLECULE
1EN
   42    46     1     0     0
SMALL
bcc


@<TRIPOS>ATOM
      1 C1          0.2510    0.6510   -0.1030 cc        1 1EN     -0.132000
      2 C2          1.6130    0.4780   -0.0360 cd        1 1EN     -0.089300
      3 N3          2.1860    0.0150    1.1300 na        1 1EN     -0.044200
      4 C4          1.3880   -0.2670    2.2830 cd        1 1EN     -0.119300
      5 C5         -0.0320   -0.0750    2.1920 cd        1 1EN      0.163100
      6 C6         -0.5880    0.3660    1.0110 cc        1 1EN     -0.155000
      7 C7          3.5050   -0.2570    1.5350 cd        1 1EN      0.318800
      8 N8          3.4590   -0.6750    2.8480 nc        1 1EN     -0.338700
      9 N9          2.2340   -0.6850    3.2920 nc        1 1EN     -0.068000
     10 C10         4.6950   -0.1190    0.6770 cx        1 1EN     -0.089000
     11 C11         4.8900    1.2460    0.1440 ca        1 1EN     -0.060300
     12 C12         5.9210   -0.9350    1.0440 cx        1 1EN     -0.100900
     13 C13         5.1070   -1.3230   -0.1490 cx        1 1EN     -0.100900
     14 C14         5.2050    2.2940    1.0210 ca        1 1EN     -0.112000
     15 C15         5.3970    3.5860    0.5380 ca        1 1EN     -0.124500
     16 C16         5.2750    3.8370   -0.8320 ca        1 1EN      0.020400
     17 C17         4.9600    2.8010   -1.7170 ca        1 1EN     -0.124500
     18 C18         4.7670    1.5120   -1.2250 ca        1 1EN     -0.112000
     19 Cl19        5.5110    5.4110   -1.4280 cl        1 1EN     -0.089400
     20 O20        -0.8720   -0.2200    3.2820 os        1 1EN     -0.226200
     21 C21        -0.5500   -1.2320    4.1880 ca        1 1EN      0.058100
     22 C22        -0.3580   -0.8580    5.5380 ca        1 1EN      0.149900
     23 C23        -0.1720   -1.8660    6.5020 ca        1 1EN     -0.155000
     24 C24        -0.1660   -3.2030    6.1150 ca        1 1EN     -0.104000
     25 C25        -0.3500   -3.5590    4.7780 ca        1 1EN     -0.131000
     26 C26        -0.5440   -2.5770    3.8090 ca        1 1EN     -0.114000
     27 F27        -0.3680    0.4420    5.9030 f         1 1EN     -0.122900
     28 H1         -0.2060    1.0190   -1.0330 ha        1 1EN      0.158000
     29 H2          2.3080    0.7000   -0.8650 h4        1 1EN      0.177000
     30 H3         -1.6740    0.5200    0.9310 ha        1 1EN      0.164000
     31 H4          6.9110   -0.4690    0.8920 hc        1 1EN      0.084700
     32 H5          5.8930   -1.5660    1.9510 hc        1 1EN      0.084700
     33 H6          4.4830   -2.2330   -0.1000 hc        1 1EN      0.084700
     34 H7          5.5180   -1.1530   -1.1600 hc        1 1EN      0.084700
     35 H8          5.2970    2.0910    2.1000 ha        1 1EN      0.145000
     36 H9          5.6440    4.4020    1.2340 ha        1 1EN      0.150000
     37 H10         4.8660    2.9990   -2.7950 ha        1 1EN      0.150000
     38 H11         4.5230    0.6970   -1.9240 ha        1 1EN      0.145000
     39 H12        -0.0210   -1.5810    7.5530 ha        1 1EN      0.152000
     40 H13        -0.0100   -3.9850    6.8730 ha        1 1EN      0.139000
     41 H14        -0.3410   -4.6190    4.4850 ha        1 1EN      0.139000
     42 H15        -0.6860   -2.8460    2.7520 ha        1 1EN      0.145000
@<TRIPOS>BOND
     1    1    2 2   
     2    1    6 1   
     3    1   28 1   
     4    2    3 1   
     5    2   29 1   
     6    3    4 1   
     7    3    7 1   
     8    4    5 1   
     9    4    9 2   
    10    5    6 2   
    11    5   20 1   
    12    6   30 1   
    13    7    8 2   
    14    7   10 1   
    15    8    9 1   
    16   10   11 1   
    17   10   12 1   
    18   10   13 1   
    19   11   14 ar  
    20   11   18 ar  
    21   12   13 1   
    22   12   31 1   
    23   12   32 1   
    24   13   33 1   
    25   13   34 1   
    26   14   15 ar  
    27   14   35 1   
    28   15   16 ar  
    29   15   36 1   
    30   16   17 ar  
    31   16   19 1   
    32   17   18 ar  
    33   17   37 1   
    34   18   38 1   
    35   20   21 1   
    36   21   22 ar  
    37   21   26 ar  
    38   22   23 ar  
    39   22   27 1   
    40   23   24 ar  
    41   23   39 1   
    42   24   25 ar  
    43   24   40 1   
    44   25   26 ar  
    45   25   41 1   
    46   26   42 1   
@<TRIPOS>SUBSTRUCTURE
     1 1EN         1 TEMP              0 ****  ****    0 ROOT
