@<TRIPOS>MOLECULE
1EO
   43    47     1     0     0
SMALL
bcc


@<TRIPOS>ATOM
      1 C1         -0.2000   -0.2360    0.2170 ca        1 1EO      0.055100
      2 C2          0.8740    0.6220   -0.1130 ca        1 1EO      0.152900
      3 C3          1.7530    1.0330    0.9070 ca        1 1EO     -0.156000
      4 C4          1.5460    0.6030    2.2140 ca        1 1EO     -0.101000
      5 C5          0.4780   -0.2390    2.5280 ca        1 1EO     -0.132000
      6 C6         -0.3990   -0.6620    1.5330 ca        1 1EO     -0.110000
      7 C7         -2.7880    0.8660   -0.3610 cc        1 1EO     -0.123300
      8 C8         -4.3250    2.4540    0.0390 cc        1 1EO      0.312800
      9 N9         -3.0850    2.8550    0.4930 nd        1 1EO     -0.334700
     10 N10        -2.1870    1.9400    0.2650 nd        1 1EO     -0.066000
     11 C11        -5.0350    0.2790   -1.1280 cc        1 1EO     -0.098300
     12 C12        -2.3070   -0.3970   -0.8480 cc        1 1EO      0.171100
     13 C13        -3.1840   -1.2790   -1.4420 cd        1 1EO     -0.163000
     14 C14        -4.5550   -0.9250   -1.5840 cd        1 1EO     -0.127000
     15 N15        -4.1770    1.1720   -0.5180 na        1 1EO     -0.049200
     16 C16        -5.5860    3.2090    0.1130 c3        1 1EO     -0.075300
     17 C17        -6.2070    3.5780   -1.2590 c3        1 1EO     -0.070400
     18 C18        -7.1680    4.7320   -0.9320 c3        1 1EO     -0.110400
     19 C19        -7.0010    4.9150    0.5970 c3        1 1EO      0.127800
     20 C20        -7.6610    3.6940    1.2830 c3        1 1EO     -0.110400
     21 C21        -6.7000    2.5390    0.9570 c3        1 1EO     -0.070400
     22 C22        -5.4880    4.6070    0.7900 c3        1 1EO     -0.043400
     23 O23        -7.3650    6.1650    1.1030 oh        1 1EO     -0.562800
     24 O24        -0.9690   -0.7450   -0.8310 os        1 1EO     -0.227200
     25 F25         1.0680    1.0310   -1.3850 f         1 1EO     -0.122900
     26 H1          2.5890    1.7020    0.6570 ha        1 1EO      0.152000
     27 H2          2.2310    0.9370    3.0080 ha        1 1EO      0.139000
     28 H3          0.3240   -0.5690    3.5660 ha        1 1EO      0.139000
     29 H4         -1.2460   -1.3230    1.7680 ha        1 1EO      0.146000
     30 H7         -2.8270   -2.2470   -1.8210 ha        1 1EO      0.164000
     31 H8         -5.2400   -1.6350   -2.0690 ha        1 1EO      0.157000
     32 H9         -5.4110    3.9070   -1.9690 hc        1 1EO      0.049450
     33 H10        -6.7450    2.7100   -1.7070 hc        1 1EO      0.049450
     34 H11        -8.2200    4.4850   -1.2030 hc        1 1EO      0.053200
     35 H12        -6.8740    5.6680   -1.4640 hc        1 1EO      0.053200
     36 H13        -7.7320    3.8650    2.3840 hc        1 1EO      0.053200
     37 H14        -8.6850    3.5050    0.8860 hc        1 1EO      0.053200
     38 H15        -6.2710    2.1000    1.8890 hc        1 1EO      0.049450
     39 H16        -7.2110    1.7290    0.3850 hc        1 1EO      0.049450
     40 H17        -4.8280    5.3130    0.2420 hc        1 1EO      0.076200
     41 H18        -5.1890    4.5560    1.8580 hc        1 1EO      0.076200
     42 H19        -8.3100    6.2650    0.9300 ho        1 1EO      0.403000
     43 H6         -6.0870    0.5960   -1.2180 h4        1 1EO      0.171000
@<TRIPOS>BOND
     1    1    2 ar  
     2    1    6 ar  
     3    1   24 1   
     4    2    3 ar  
     5    2   25 1   
     6    3    4 ar  
     7    3   26 1   
     8    4    5 ar  
     9    4   27 1   
    10    5    6 ar  
    11    5   28 1   
    12    6   29 1   
    13    7   10 2   
    14    7   12 1   
    15    7   15 1   
    16    8    9 2   
    17    8   15 1   
    18    8   16 1   
    19    9   10 1   
    20   11   14 2   
    21   11   15 1   
    22   11   43 1   
    23   12   13 2   
    24   12   24 1   
    25   13   14 1   
    26   13   30 1   
    27   14   31 1   
    28   16   17 1   
    29   16   21 1   
    30   16   22 1   
    31   17   18 1   
    32   17   32 1   
    33   17   33 1   
    34   18   19 1   
    35   18   34 1   
    36   18   35 1   
    37   19   20 1   
    38   19   22 1   
    39   19   23 1   
    40   20   21 1   
    41   20   36 1   
    42   20   37 1   
    43   21   38 1   
    44   21   39 1   
    45   22   40 1   
    46   22   41 1   
    47   23   42 1   
@<TRIPOS>SUBSTRUCTURE
     1 1EO         1 TEMP              0 ****  ****    0 ROOT
