@<TRIPOS>MOLECULE
1EP
   45    42     1     0     0
SMALL
bcc


@<TRIPOS>ATOM
      1 N1         -0.1830    1.9570    0.9240 n         1 1EP     -0.336000
      2 C2         -1.5420    1.7450    0.7130 c1        1 1EP      0.369000
      3 O3         -2.2820    1.0910    1.4230 o         1 1EP     -0.335000
      4 N4         -1.9310    2.4870   -0.4590 n2        1 1EP     -0.324000
      5 C5         -0.8950    3.4460   -0.7440 c3        1 1EP     -0.034000
      6 C6          0.1740    3.1340    0.2720 c2        1 1EP      0.302000
      7 O7          1.1500    3.8150    0.5120 o         1 1EP     -0.302000
      8 C8         -1.4610    4.8300   -0.6270 c3        1 1EP     -0.114000
      9 C9         -2.4170    5.0840   -1.7760 c3        1 1EP     -0.220000
     10 C10        -0.3290    5.8460   -0.6760 c3        1 1EP     -0.220000
     11 C11         0.6980    1.1170    1.7060 c3        1 1EP      0.034000
     12 C12         0.6680   -0.3250    1.1470 c1        1 1EP     -0.127000
     13 C13        -0.1650   -1.2740    1.7270 c1        1 1EP     -0.121000
     14 C14        -0.0760   -2.6120    1.3380 c1        1 1EP     -0.121000
     15 C15         0.8440   -2.9950    0.3720 c1        1 1EP     -0.046000
     16 C16         1.6770   -2.0470   -0.2080 c1        1 1EP     -0.136000
     17 C17         1.5890   -0.7090    0.1800 c1        1 1EP     -0.107000
     18 C18         0.9420   -4.4670   -0.0540 c3        1 1EP     -0.019000
     19 C19        -0.4050   -5.1430    0.1430 c3        1 1EP     -0.204000
     20 C20         1.3380   -4.5440   -1.5120 c3        1 1EP     -0.204000
     21 C21         1.9930   -5.1730    0.7940 c3        1 1EP     -0.204000
     22 H1         -2.6750    2.3370   -0.9650 hn        1 1EP      0.231000
     23 H2         -0.5250    3.4660   -1.6490 h1        1 1EP      0.144000
     24 H3         -1.9390    4.9150    0.2190 hc        1 1EP      0.099000
     25 H4         -1.9710    4.8760   -2.6260 hc        1 1EP      0.085333
     26 H5         -2.6900    6.0260   -1.7710 hc        1 1EP      0.085333
     27 H6         -3.2090    4.5140   -1.6740 hc        1 1EP      0.085333
     28 H7          0.2000    5.7060   -1.4880 hc        1 1EP      0.085333
     29 H8         -0.7030    6.7510   -0.6810 hc        1 1EP      0.085333
     30 H9          0.2450    5.7340    0.1110 hc        1 1EP      0.085333
     31 H10         0.4010    1.1110    2.6400 h1        1 1EP      0.115500
     32 H11         1.6140    1.4670    1.6570 h1        1 1EP      0.115500
     33 H12        -0.8110   -1.0060    2.4050 ha        1 1EP      0.145000
     34 H13        -0.6610   -3.2790    1.7460 ha        1 1EP      0.145000
     35 H14         2.3240   -2.3160   -0.8870 ha        1 1EP      0.133000
     36 H15         2.1760   -0.0410   -0.2300 ha        1 1EP      0.138000
     37 H16        -0.3870   -6.0370   -0.2690 hc        1 1EP      0.076556
     38 H17        -1.1080   -4.6020   -0.2800 hc        1 1EP      0.076556
     39 H18        -0.5910   -5.2280    1.1020 hc        1 1EP      0.076556
     40 H19         0.8450   -3.8680   -2.0210 hc        1 1EP      0.076556
     41 H20         2.2980   -4.3800   -1.5980 hc        1 1EP      0.076556
     42 H21         1.1250   -5.4390   -1.8630 hc        1 1EP      0.076556
     43 H22         2.8560   -4.7280    0.6810 hc        1 1EP      0.076556
     44 H23         1.7290   -5.1370    1.7370 hc        1 1EP      0.076556
     45 H24         2.0680   -6.1090    0.5100 hc        1 1EP      0.076556
@<TRIPOS>BOND
     1    1    2 1   
     2    1    6 1   
     3    1   11 1   
     4    2    3 1   
     5    4    5 1   
     6    4   22 1   
     7    5    6 1   
     8    5    8 1   
     9    5   23 1   
    10    6    7 1   
    11    8    9 1   
    12    8   10 1   
    13    8   24 1   
    14    9   25 1   
    15    9   26 1   
    16    9   27 1   
    17   10   28 1   
    18   10   29 1   
    19   10   30 1   
    20   11   12 1   
    21   11   31 1   
    22   11   32 1   
    23   12   17 1   
    24   13   14 1   
    25   13   33 1   
    26   14   34 1   
    27   15   16 1   
    28   15   18 1   
    29   16   35 1   
    30   17   36 1   
    31   18   19 1   
    32   18   20 1   
    33   18   21 1   
    34   19   37 1   
    35   19   38 1   
    36   19   39 1   
    37   20   40 1   
    38   20   41 1   
    39   20   42 1   
    40   21   43 1   
    41   21   44 1   
    42   21   45 1   
@<TRIPOS>SUBSTRUCTURE
     1 1EP         1 TEMP              0 ****  ****    0 ROOT
