@<TRIPOS>MOLECULE
1EP
   45    46     1     0     0
SMALL
bcc


@<TRIPOS>ATOM
      1 N1          1.6290    0.3920    0.8380 n         1 1EP     -0.507400
      2 C2          1.9690    1.5150    0.0200 c         1 1EP      0.778500
      3 O3          1.5120    2.6610    0.1570 o         1 1EP     -0.610500
      4 N4          2.8860    1.1080   -0.9940 n         1 1EP     -0.514900
      5 C5          3.2950   -0.2780   -0.7400 c3        1 1EP     -0.007300
      6 C6          2.3490   -0.7410    0.4090 c         1 1EP      0.694500
      7 O7          2.2470   -1.8770    0.8750 o         1 1EP     -0.577500
      8 C8          4.7670   -0.4980   -0.3600 c3        1 1EP     -0.074700
      9 C9          5.0860   -1.9790   -0.4130 c3        1 1EP     -0.102100
     10 C10         5.6950    0.2650   -1.2840 c3        1 1EP     -0.102100
     11 C11         0.5190    0.3820    1.7530 c3        1 1EP      0.157300
     12 C12        -0.8280    0.1720    1.1230 ca        1 1EP     -0.134300
     13 C13        -1.4530    1.2210    0.4400 ca        1 1EP     -0.107500
     14 C14        -2.7170    1.0400   -0.1100 ca        1 1EP     -0.134500
     15 C15        -3.3870   -0.1880    0.0070 ca        1 1EP     -0.053300
     16 C16        -2.7510   -1.2320    0.6870 ca        1 1EP     -0.134500
     17 C17        -1.4810   -1.0560    1.2380 ca        1 1EP     -0.107500
     18 C18        -4.7560   -0.3380   -0.6010 c3        1 1EP     -0.011700
     19 C19        -5.7040    0.6810    0.0280 c3        1 1EP     -0.086100
     20 C20        -4.6730   -0.0880   -2.1040 c3        1 1EP     -0.086100
     21 C21        -5.3410   -1.7280   -0.3820 c3        1 1EP     -0.086100
     22 H1          3.5930    1.7620   -1.2420 hn        1 1EP      0.317500
     23 H2          3.0530   -0.8800   -1.6630 h1        1 1EP      0.104700
     24 H3          4.9260   -0.1330    0.6940 hc        1 1EP      0.059700
     25 H4          6.1190   -2.1580   -0.0300 hc        1 1EP      0.046033
     26 H5          4.3660   -2.5590    0.2160 hc        1 1EP      0.046033
     27 H6          5.0260   -2.3560   -1.4620 hc        1 1EP      0.046033
     28 H7          5.7020    1.3550   -1.0430 hc        1 1EP      0.046033
     29 H8          6.7400   -0.1150   -1.1680 hc        1 1EP      0.046033
     30 H9          5.3900    0.1330   -2.3500 hc        1 1EP      0.046033
     31 H10         0.7190   -0.4390    2.5020 h1        1 1EP      0.076200
     32 H11         0.5170    1.3780    2.2860 h1        1 1EP      0.076200
     33 H12        -0.9320    2.1880    0.3360 ha        1 1EP      0.145500
     34 H13        -3.1960    1.8760   -0.6440 ha        1 1EP      0.134500
     35 H14        -3.2380   -2.2120    0.7980 ha        1 1EP      0.134500
     36 H15        -0.9940   -1.8920    1.7620 ha        1 1EP      0.145500
     37 H16        -5.3420    1.7200   -0.1560 hc        1 1EP      0.037256
     38 H17        -6.7230    0.5760   -0.4150 hc        1 1EP      0.037256
     39 H18        -5.7730    0.5160    1.1300 hc        1 1EP      0.037256
     40 H19        -3.9790   -0.8210   -2.5800 hc        1 1EP      0.037256
     41 H20        -5.6840   -0.2000   -2.5650 hc        1 1EP      0.037256
     42 H21        -4.3000    0.9440   -2.3120 hc        1 1EP      0.037256
     43 H22        -5.4430   -1.9460    0.7080 hc        1 1EP      0.037256
     44 H23        -6.3540   -1.7870   -0.8490 hc        1 1EP      0.037256
     45 H24        -4.6930   -2.5070   -0.8520 hc        1 1EP      0.037256
@<TRIPOS>BOND
     1    1    2 1   
     2    1    6 1   
     3    1   11 1   
     4    2    3 2   
     5    2    4 1   
     6    4    5 1   
     7    4   22 1   
     8    5    6 1   
     9    5    8 1   
    10    5   23 1   
    11    6    7 2   
    12    8    9 1   
    13    8   10 1   
    14    8   24 1   
    15    9   25 1   
    16    9   26 1   
    17    9   27 1   
    18   10   28 1   
    19   10   29 1   
    20   10   30 1   
    21   11   12 1   
    22   11   31 1   
    23   11   32 1   
    24   12   13 ar  
    25   12   17 ar  
    26   13   14 ar  
    27   13   33 1   
    28   14   15 ar  
    29   14   34 1   
    30   15   16 ar  
    31   15   18 1   
    32   16   17 ar  
    33   16   35 1   
    34   17   36 1   
    35   18   19 1   
    36   18   20 1   
    37   18   21 1   
    38   19   37 1   
    39   19   38 1   
    40   19   39 1   
    41   20   40 1   
    42   20   41 1   
    43   20   42 1   
    44   21   43 1   
    45   21   44 1   
    46   21   45 1   
@<TRIPOS>SUBSTRUCTURE
     1 1EP         1 TEMP              0 ****  ****    0 ROOT
