@<TRIPOS>MOLECULE
1EP
   45    46     1     0     0
SMALL
bcc


@<TRIPOS>ATOM
      1 N1          0.1420    0.1130   -0.0930 n         1 1EP     -0.506400
      2 C2          1.5640    0.0420    0.0440 c         1 1EP      0.777500
      3 O3          2.3730    0.0750   -0.8970 o         1 1EP     -0.605500
      4 N4          1.9050   -0.0960    1.4220 n         1 1EP     -0.514900
      5 C5          0.6910    0.0610    2.2320 c3        1 1EP     -0.007300
      6 C6         -0.4590    0.0750    1.1810 c         1 1EP      0.694500
      7 O7         -1.6710    0.0610    1.4060 o         1 1EP     -0.582500
      8 C8          0.6260    1.3040    3.1330 c3        1 1EP     -0.074700
      9 C9         -0.5390    1.1700    4.0940 c3        1 1EP     -0.101600
     10 C10         1.9160    1.4940    3.9050 c3        1 1EP     -0.101600
     11 C11        -0.5400   -0.0490   -1.3490 c3        1 1EP      0.157300
     12 C12        -0.9060   -1.4620   -1.7000 ca        1 1EP     -0.134300
     13 C13        -0.1570   -2.1750   -2.6410 ca        1 1EP     -0.107500
     14 C14        -0.5260   -3.4700   -2.9910 ca        1 1EP     -0.135000
     15 C15        -1.6460   -4.0840   -2.4090 ca        1 1EP     -0.053300
     16 C16        -2.3840   -3.3650   -1.4620 ca        1 1EP     -0.135000
     17 C17        -2.0170   -2.0670   -1.1090 ca        1 1EP     -0.107500
     18 C18        -2.0100   -5.4860   -2.8200 c3        1 1EP     -0.011700
     19 C19        -2.2860   -5.5190   -4.3210 c3        1 1EP     -0.086100
     20 C20        -0.8490   -6.4250   -2.5010 c3        1 1EP     -0.086100
     21 C21        -3.2490   -6.0010   -2.0970 c3        1 1EP     -0.086100
     22 H1          2.7270    0.3740    1.7260 hn        1 1EP      0.317500
     23 H2          0.5810   -0.8660    2.8660 h1        1 1EP      0.104700
     24 H3          0.4560    2.2090    2.4850 hc        1 1EP      0.059700
     25 H4         -1.4870    0.9660    3.5370 hc        1 1EP      0.046033
     26 H5         -0.6620    2.1160    4.6740 hc        1 1EP      0.046033
     27 H6         -0.3600    0.3340    4.8130 hc        1 1EP      0.046033
     28 H7          2.7250    1.8990    3.2510 hc        1 1EP      0.046033
     29 H8          1.7540    2.2230    4.7370 hc        1 1EP      0.046033
     30 H9          2.2600    0.5280    4.3470 hc        1 1EP      0.046033
     31 H10         0.1310    0.3770   -2.1510 h1        1 1EP      0.076700
     32 H11        -1.4860    0.5670   -1.2920 h1        1 1EP      0.076700
     33 H12         0.7300   -1.7120   -3.1010 ha        1 1EP      0.144500
     34 H13         0.0730   -4.0170   -3.7350 ha        1 1EP      0.135000
     35 H14        -3.2660   -3.8110   -0.9770 ha        1 1EP      0.135000
     36 H15        -2.6010   -1.5140   -0.3540 ha        1 1EP      0.144500
     37 H16        -3.1300   -4.8330   -4.5730 hc        1 1EP      0.037256
     38 H17        -1.3830   -5.2010   -4.8950 hc        1 1EP      0.037256
     39 H18        -2.5600   -6.5550   -4.6340 hc        1 1EP      0.037256
     40 H19        -0.6290   -6.4090   -1.4070 hc        1 1EP      0.037256
     41 H20        -1.1110   -7.4680   -2.7990 hc        1 1EP      0.037256
     42 H21         0.0700   -6.1170   -3.0550 hc        1 1EP      0.037256
     43 H22        -3.0820   -6.0220   -0.9940 hc        1 1EP      0.037256
     44 H23        -4.1320   -5.3560   -2.3210 hc        1 1EP      0.037256
     45 H24        -3.4780   -7.0400   -2.4380 hc        1 1EP      0.037256
@<TRIPOS>BOND
     1    1    2 1   
     2    1    6 1   
     3    1   11 1   
     4    2    3 2   
     5    2    4 1   
     6    4    5 1   
     7    4   22 1   
     8    5    6 1   
     9    5    8 1   
    10    5   23 1   
    11    6    7 2   
    12    8    9 1   
    13    8   10 1   
    14    8   24 1   
    15    9   25 1   
    16    9   26 1   
    17    9   27 1   
    18   10   28 1   
    19   10   29 1   
    20   10   30 1   
    21   11   12 1   
    22   11   31 1   
    23   11   32 1   
    24   12   13 ar  
    25   12   17 ar  
    26   13   14 ar  
    27   13   33 1   
    28   14   15 ar  
    29   14   34 1   
    30   15   16 ar  
    31   15   18 1   
    32   16   17 ar  
    33   16   35 1   
    34   17   36 1   
    35   18   19 1   
    36   18   20 1   
    37   18   21 1   
    38   19   37 1   
    39   19   38 1   
    40   19   39 1   
    41   20   40 1   
    42   20   41 1   
    43   20   42 1   
    44   21   43 1   
    45   21   44 1   
    46   21   45 1   
@<TRIPOS>SUBSTRUCTURE
     1 1EP         1 TEMP              0 ****  ****    0 ROOT
