@<TRIPOS>MOLECULE
1EP
   45    46     1     0     0
SMALL
bcc


@<TRIPOS>ATOM
      1 N1          0.1300    0.1180   -0.0760 n         1 1EP     -0.506400
      2 C2          1.5540    0.0540    0.0530 c         1 1EP      0.777500
      3 O3          2.3570    0.0990   -0.8920 o         1 1EP     -0.605500
      4 N4          1.9010   -0.0940    1.4290 n         1 1EP     -0.514900
      5 C5          0.6920    0.0490    2.2460 c3        1 1EP     -0.007300
      6 C6         -0.4640    0.0650    1.2010 c         1 1EP      0.694500
      7 O7         -1.6750    0.0430    1.4310 o         1 1EP     -0.582500
      8 C8          0.6240    1.2840    3.1570 c3        1 1EP     -0.074700
      9 C9         -0.5350    1.1350    4.1230 c3        1 1EP     -0.101600
     10 C10         1.9160    1.4750    3.9250 c3        1 1EP     -0.101600
     11 C11        -0.5580   -0.0380   -1.3300 c3        1 1EP      0.157300
     12 C12        -0.9180   -1.4500   -1.6910 ca        1 1EP     -0.134300
     13 C13        -0.1700   -2.1500   -2.6420 ca        1 1EP     -0.107500
     14 C14        -0.5340   -3.4440   -3.0020 ca        1 1EP     -0.135000
     15 C15        -1.6470   -4.0700   -2.4180 ca        1 1EP     -0.053300
     16 C16        -2.3840   -3.3640   -1.4600 ca        1 1EP     -0.135000
     17 C17        -2.0220   -2.0670   -1.0990 ca        1 1EP     -0.107500
     18 C18        -2.0050   -5.4710   -2.8390 c3        1 1EP     -0.011700
     19 C19        -2.2900   -5.4920   -4.3380 c3        1 1EP     -0.086100
     20 C20        -0.8360   -6.4050   -2.5350 c3        1 1EP     -0.086100
     21 C21        -3.2370   -5.9990   -2.1130 c3        1 1EP     -0.086100
     22 H1          2.7230    0.3780    1.7320 hn        1 1EP      0.317500
     23 H2          0.5900   -0.8840    2.8730 h1        1 1EP      0.104700
     24 H3          0.4460    2.1940    2.5180 hc        1 1EP      0.059700
     25 H4         -1.4850    0.9300    3.5690 hc        1 1EP      0.046033
     26 H5         -0.3480    0.2950    4.8340 hc        1 1EP      0.046033
     27 H6         -0.6600    2.0760    4.7120 hc        1 1EP      0.046033
     28 H7          2.2680    0.5070    4.3570 hc        1 1EP      0.046033
     29 H8          1.7550    2.1960    4.7630 hc        1 1EP      0.046033
     30 H9          2.7200    1.8900    3.2700 hc        1 1EP      0.046033
     31 H10        -1.5060    0.5730   -1.2630 h1        1 1EP      0.076700
     32 H11         0.1070    0.3990   -2.1310 h1        1 1EP      0.076700
     33 H12         0.7120   -1.6790   -3.1030 ha        1 1EP      0.144500
     34 H13         0.0640   -3.9810   -3.7530 ha        1 1EP      0.135000
     35 H14        -3.2600   -3.8180   -0.9750 ha        1 1EP      0.135000
     36 H15        -2.6040   -1.5230   -0.3360 ha        1 1EP      0.144500
     37 H16        -2.5600   -6.5270   -4.6590 hc        1 1EP      0.037256
     38 H17        -3.1390   -4.8090   -4.5800 hc        1 1EP      0.037256
     39 H18        -1.3930   -5.1640   -4.9150 hc        1 1EP      0.037256
     40 H19         0.0770   -6.0870   -3.0920 hc        1 1EP      0.037256
     41 H20        -0.6090   -6.3970   -1.4420 hc        1 1EP      0.037256
     42 H21        -1.0940   -7.4470   -2.8400 hc        1 1EP      0.037256
     43 H22        -3.0620   -6.0280   -1.0110 hc        1 1EP      0.037256
     44 H23        -4.1250   -5.3570   -2.3260 hc        1 1EP      0.037256
     45 H24        -3.4610   -7.0360   -2.4610 hc        1 1EP      0.037256
@<TRIPOS>BOND
     1    1    2 1   
     2    1    6 1   
     3    1   11 1   
     4    2    3 2   
     5    2    4 1   
     6    4    5 1   
     7    4   22 1   
     8    5    6 1   
     9    5    8 1   
    10    5   23 1   
    11    6    7 2   
    12    8    9 1   
    13    8   10 1   
    14    8   24 1   
    15    9   25 1   
    16    9   26 1   
    17    9   27 1   
    18   10   28 1   
    19   10   29 1   
    20   10   30 1   
    21   11   12 1   
    22   11   31 1   
    23   11   32 1   
    24   12   13 ar  
    25   12   17 ar  
    26   13   14 ar  
    27   13   33 1   
    28   14   15 ar  
    29   14   34 1   
    30   15   16 ar  
    31   15   18 1   
    32   16   17 ar  
    33   16   35 1   
    34   17   36 1   
    35   18   19 1   
    36   18   20 1   
    37   18   21 1   
    38   19   37 1   
    39   19   38 1   
    40   19   39 1   
    41   20   40 1   
    42   20   41 1   
    43   20   42 1   
    44   21   43 1   
    45   21   44 1   
    46   21   45 1   
@<TRIPOS>SUBSTRUCTURE
     1 1EP         1 TEMP              0 ****  ****    0 ROOT
