@<TRIPOS>MOLECULE
1EP
   45    46     1     0     0
SMALL
bcc


@<TRIPOS>ATOM
      1 N1          0.1360    0.1140   -0.0840 n         1 1EP     -0.507400
      2 C2          1.5590    0.0480    0.0480 c         1 1EP      0.777500
      3 O3          2.3630    0.0890   -0.8960 o         1 1EP     -0.605500
      4 N4          1.9050   -0.0980    1.4240 ns        1 1EP     -0.514900
      5 C5          0.6940    0.0500    2.2400 c3        1 1EP     -0.007300
      6 C6         -0.4600    0.0660    1.1930 c         1 1EP      0.694500
      7 O7         -1.6710    0.0470    1.4220 o         1 1EP     -0.582500
      8 C8          0.6280    1.2880    3.1470 c3        1 1EP     -0.074700
      9 C9         -0.5330    1.1450    4.1120 c3        1 1EP     -0.101600
     10 C10         1.9200    1.4790    3.9160 c3        1 1EP     -0.101600
     11 C11        -0.5510   -0.0430   -1.3380 c3        1 1EP      0.157300
     12 C12        -0.9130   -1.4560   -1.6960 ca        1 1EP     -0.134300
     13 C13        -0.1660   -2.1590   -2.6440 ca        1 1EP     -0.107500
     14 C14        -0.5330   -3.4540   -3.0010 ca        1 1EP     -0.135000
     15 C15        -1.6470   -4.0750   -2.4170 ca        1 1EP     -0.053300
     16 C16        -2.3830   -3.3650   -1.4610 ca        1 1EP     -0.135000
     17 C17        -2.0190   -2.0680   -1.1020 ca        1 1EP     -0.107500
     18 C18        -2.0080   -5.4770   -2.8350 c3        1 1EP     -0.011700
     19 C19        -2.2930   -5.5000   -4.3350 c3        1 1EP     -0.086100
     20 C20        -0.8420   -6.4120   -2.5290 c3        1 1EP     -0.086100
     21 C21        -3.2410   -6.0000   -2.1090 c3        1 1EP     -0.086100
     22 H1          2.7270    0.3730    1.7270 hn        1 1EP      0.317500
     23 H2          0.5900   -0.8800    2.8690 h1        1 1EP      0.104700
     24 H3          0.4520    2.1970    2.5050 hc        1 1EP      0.059700
     25 H4         -1.4820    0.9400    3.5570 hc        1 1EP      0.046033
     26 H5         -0.3480    0.3060    4.8250 hc        1 1EP      0.046033
     27 H6         -0.6570    2.0870    4.6970 hc        1 1EP      0.046033
     28 H7          2.7260    1.8900    3.2610 hc        1 1EP      0.046033
     29 H8          1.7590    2.2030    4.7520 hc        1 1EP      0.046033
     30 H9          2.2690    0.5110    4.3510 hc        1 1EP      0.046033
     31 H10        -1.4980    0.5700   -1.2730 h1        1 1EP      0.076700
     32 H11         0.1170    0.3900   -2.1390 h1        1 1EP      0.076700
     33 H12         0.7170   -1.6910   -3.1070 ha        1 1EP      0.144500
     34 H13         0.0650   -3.9940   -3.7520 ha        1 1EP      0.135000
     35 H14        -3.2610   -3.8170   -0.9760 ha        1 1EP      0.135000
     36 H15        -2.6010   -1.5220   -0.3410 ha        1 1EP      0.144500
     37 H16        -3.1410   -4.8170   -4.5780 hc        1 1EP      0.037256
     38 H17        -2.5640   -6.5350   -4.6530 hc        1 1EP      0.037256
     39 H18        -1.3950   -5.1760   -4.9110 hc        1 1EP      0.037256
     40 H19         0.0730   -6.0980   -3.0860 hc        1 1EP      0.037256
     41 H20        -1.1010   -7.4550   -2.8320 hc        1 1EP      0.037256
     42 H21        -0.6150   -6.4030   -1.4360 hc        1 1EP      0.037256
     43 H22        -3.0680   -6.0280   -1.0060 hc        1 1EP      0.037256
     44 H23        -4.1280   -5.3580   -2.3240 hc        1 1EP      0.037256
     45 H24        -3.4680   -7.0380   -2.4540 hc        1 1EP      0.037256
@<TRIPOS>BOND
     1    1    2 1   
     2    1    6 1   
     3    1   11 1   
     4    2    3 2   
     5    2    4 1   
     6    4    5 1   
     7    4   22 1   
     8    5    6 1   
     9    5    8 1   
    10    5   23 1   
    11    6    7 2   
    12    8    9 1   
    13    8   10 1   
    14    8   24 1   
    15    9   25 1   
    16    9   26 1   
    17    9   27 1   
    18   10   28 1   
    19   10   29 1   
    20   10   30 1   
    21   11   12 1   
    22   11   31 1   
    23   11   32 1   
    24   12   13 ar  
    25   12   17 ar  
    26   13   14 ar  
    27   13   33 1   
    28   14   15 ar  
    29   14   34 1   
    30   15   16 ar  
    31   15   18 1   
    32   16   17 ar  
    33   16   35 1   
    34   17   36 1   
    35   18   19 1   
    36   18   20 1   
    37   18   21 1   
    38   19   37 1   
    39   19   38 1   
    40   19   39 1   
    41   20   40 1   
    42   20   41 1   
    43   20   42 1   
    44   21   43 1   
    45   21   44 1   
    46   21   45 1   
@<TRIPOS>SUBSTRUCTURE
     1 1EP         1 TEMP              0 ****  ****    0 ROOT
