@<TRIPOS>MOLECULE
1EQ
   38    42     1     0     0
SMALL
bcc


@<TRIPOS>ATOM
      1 C1          0.1640    0.5750   -0.0000 cc        1 1EQ     -0.150000
      2 C2          1.5300    0.4260    0.0070 cd        1 1EQ     -0.073300
      3 N3          2.1760    0.1920    1.2000 na        1 1EQ     -0.055200
      4 C4          1.4530    0.1150    2.4340 cd        1 1EQ     -0.077300
      5 C5          0.0220    0.2710    2.4240 cd        1 1EQ      0.019700
      6 C6         -0.5850    0.4940    1.2070 cc        1 1EQ     -0.131000
      7 C7          3.5240   -0.0000    1.5540 cd        1 1EQ      0.309800
      8 N8          3.5720   -0.1750    2.9190 nc        1 1EQ     -0.337700
      9 N9          2.3770   -0.1120    3.4360 nc        1 1EQ     -0.093000
     10 C10         4.6510   -0.0110    0.6060 cx        1 1EQ     -0.088000
     11 C11         4.8070    1.2520   -0.1480 ca        1 1EQ     -0.058300
     12 C12         5.8990   -0.7730    1.0100 cx        1 1EQ     -0.101400
     13 C13         5.0050   -1.3340   -0.0480 cx        1 1EQ     -0.101400
     14 C14         5.1820    2.4200    0.5290 ca        1 1EQ     -0.112500
     15 C15         5.3390    3.6190   -0.1620 ca        1 1EQ     -0.125000
     16 C16         5.1200    3.6530   -1.5430 ca        1 1EQ      0.019400
     17 C17         4.7450    2.4940   -2.2300 ca        1 1EQ     -0.125000
     18 C18         4.5890    1.3000   -1.5300 ca        1 1EQ     -0.112500
     19 Cl19        5.3120    5.1120   -2.3930 cl        1 1EQ     -0.091400
     20 C20        -0.7800    0.2000    3.6460 cx        1 1EQ     -0.102400
     21 C21        -0.3020    0.7370    4.9750 cx        1 1EQ     -0.108900
     22 C22        -0.4600   -0.7390    4.7860 cx        1 1EQ     -0.108900
     23 H1         -0.3590    0.7620   -0.9490 ha        1 1EQ      0.154000
     24 H2          2.1680    0.4930   -0.8920 h4        1 1EQ      0.174000
     25 H3         -1.6780    0.6200    1.1480 ha        1 1EQ      0.146000
     26 H4          5.9330   -1.2530    2.0050 hc        1 1EQ      0.084700
     27 H5          6.8770   -0.3480    0.7200 hc        1 1EQ      0.084700
     28 H6          5.3450   -1.3300   -1.0990 hc        1 1EQ      0.084700
     29 H7          4.3850   -2.2180    0.1860 hc        1 1EQ      0.084700
     30 H8          5.3500    2.3880    1.6180 ha        1 1EQ      0.145000
     31 H9          5.6330    4.5320    0.3780 ha        1 1EQ      0.149500
     32 H10         4.5750    2.5220   -3.3170 ha        1 1EQ      0.149500
     33 H11         4.2970    0.3880   -2.0740 ha        1 1EQ      0.145000
     34 H12        -1.8620    0.3440    3.4240 hc        1 1EQ      0.079700
     35 H13         0.7120    1.1670    5.0590 hc        1 1EQ      0.080950
     36 H14        -1.0320    1.2820    5.6010 hc        1 1EQ      0.080950
     37 H15        -1.3040   -1.2580    5.2760 hc        1 1EQ      0.080950
     38 H16         0.4400   -1.3770    4.7330 hc        1 1EQ      0.080950
@<TRIPOS>BOND
     1    1    2 2   
     2    1    6 1   
     3    1   23 1   
     4    2    3 1   
     5    2   24 1   
     6    3    4 1   
     7    3    7 1   
     8    4    5 1   
     9    4    9 2   
    10    5    6 2   
    11    5   20 1   
    12    6   25 1   
    13    7    8 2   
    14    7   10 1   
    15    8    9 1   
    16   10   11 1   
    17   10   12 1   
    18   10   13 1   
    19   11   14 ar  
    20   11   18 ar  
    21   12   13 1   
    22   12   26 1   
    23   12   27 1   
    24   13   28 1   
    25   13   29 1   
    26   14   15 ar  
    27   14   30 1   
    28   15   16 ar  
    29   15   31 1   
    30   16   17 ar  
    31   16   19 1   
    32   17   18 ar  
    33   17   32 1   
    34   18   33 1   
    35   20   21 1   
    36   20   22 1   
    37   20   34 1   
    38   21   22 1   
    39   21   35 1   
    40   21   36 1   
    41   22   37 1   
    42   22   38 1   
@<TRIPOS>SUBSTRUCTURE
     1 1EQ         1 TEMP              0 ****  ****    0 ROOT
