@<TRIPOS>MOLECULE
1EQ
   38    42     1     0     0
SMALL
bcc


@<TRIPOS>ATOM
      1 C1          0.1600    0.6160    0.0030 cc        1 1EQ     -0.150000
      2 C2          1.5240    0.4500    0.0060 cd        1 1EQ     -0.073300
      3 N3          2.1690    0.1980    1.1960 na        1 1EQ     -0.055200
      4 C4          1.4480    0.1210    2.4320 cd        1 1EQ     -0.077300
      5 C5          0.0190    0.2950    2.4250 cd        1 1EQ      0.019700
      6 C6         -0.5880    0.5360    1.2110 cc        1 1EQ     -0.131000
      7 C7          3.5150   -0.0140    1.5470 cd        1 1EQ      0.309800
      8 N8          3.5630   -0.2000    2.9100 nc        1 1EQ     -0.337700
      9 N9          2.3700   -0.1250    3.4300 nc        1 1EQ     -0.093000
     10 C10         4.6400   -0.0320    0.5960 cx        1 1EQ     -0.088000
     11 C11         4.8120    1.2340   -0.1470 ca        1 1EQ     -0.058300
     12 C12         5.8790   -0.8140    0.9920 cx        1 1EQ     -0.101400
     13 C13         4.9750   -1.3540   -0.0690 cx        1 1EQ     -0.101400
     14 C14         5.2040    2.3920    0.5390 ca        1 1EQ     -0.112500
     15 C15         5.3760    3.5940   -0.1420 ca        1 1EQ     -0.125000
     16 C16         5.1550    3.6430   -1.5230 ca        1 1EQ      0.019400
     17 C17         4.7630    2.4960   -2.2190 ca        1 1EQ     -0.125000
     18 C18         4.5910    1.2980   -1.5280 ca        1 1EQ     -0.112500
     19 CL19        5.3640    5.1070   -2.3600 cl        1 1EQ     -0.091400
     20 C20        -0.7820    0.2260    3.6480 cx        1 1EQ     -0.102400
     21 C21        -0.2940    0.7470    4.9800 cx        1 1EQ     -0.108900
     22 C22        -0.4710   -0.7250    4.7810 cx        1 1EQ     -0.108900
     23 H1         -0.3620    0.8170   -0.9430 ha        1 1EQ      0.154000
     24 H2          2.1620    0.5150   -0.8930 h4        1 1EQ      0.174000
     25 H3         -1.6790    0.6760    1.1550 ha        1 1EQ      0.146000
     26 H4          6.8620   -0.4000    0.7030 hc        1 1EQ      0.084700
     27 H5          5.9080   -1.3040    1.9830 hc        1 1EQ      0.084700
     28 H6          4.3440   -2.2320    0.1580 hc        1 1EQ      0.084700
     29 H7          5.3140   -1.3460   -1.1210 hc        1 1EQ      0.084700
     30 H8          5.3750    2.3480    1.6270 ha        1 1EQ      0.145000
     31 H9          5.6840    4.4980    0.4050 ha        1 1EQ      0.149500
     32 H10         4.5910    2.5350   -3.3050 ha        1 1EQ      0.149500
     33 H11         4.2870    0.3950   -2.0790 ha        1 1EQ      0.145000
     34 H12        -1.8620    0.3860    3.4290 hc        1 1EQ      0.079700
     35 H13         0.7250    1.1630    5.0650 hc        1 1EQ      0.080950
     36 H14        -1.0160    1.2960    5.6110 hc        1 1EQ      0.080950
     37 H15        -1.3210   -1.2360    5.2680 hc        1 1EQ      0.080950
     38 H16         0.4190   -1.3750    4.7210 hc        1 1EQ      0.080950
@<TRIPOS>BOND
     1    1    2 2   
     2    1    6 1   
     3    1   23 1   
     4    2    3 1   
     5    2   24 1   
     6    3    4 1   
     7    3    7 1   
     8    4    5 1   
     9    4    9 2   
    10    5    6 2   
    11    5   20 1   
    12    6   25 1   
    13    7    8 2   
    14    7   10 1   
    15    8    9 1   
    16   10   11 1   
    17   10   12 1   
    18   10   13 1   
    19   11   14 ar  
    20   11   18 ar  
    21   12   13 1   
    22   12   26 1   
    23   12   27 1   
    24   13   28 1   
    25   13   29 1   
    26   14   15 ar  
    27   14   30 1   
    28   15   16 ar  
    29   15   31 1   
    30   16   17 ar  
    31   16   19 1   
    32   17   18 ar  
    33   17   32 1   
    34   18   33 1   
    35   20   21 1   
    36   20   22 1   
    37   20   34 1   
    38   21   22 1   
    39   21   35 1   
    40   21   36 1   
    41   22   37 1   
    42   22   38 1   
@<TRIPOS>SUBSTRUCTURE
     1 1EQ         1 TEMP              0 ****  ****    0 ROOT
