@<TRIPOS>MOLECULE
1ER
   34    35     1     0     0
SMALL
bcc


@<TRIPOS>ATOM
      1 O           0.0770    0.8780    0.1380 o         1 1ER     -0.640500
      2 C13         1.2390    0.4390    0.0210 c         1 1ER      0.689700
      3 N           2.0200    0.3940    1.1950 ns        1 1ER     -0.439100
      4 C12         3.3180   -0.0500    1.1860 cc        1 1ER      0.010600
      5 C11         3.9210   -0.4750    0.0280 cd        1 1ER     -0.249000
      6 C10         3.1780   -0.4630   -1.1880 cd        1 1ER     -0.039000
      7 C9          1.8780   -0.0350   -1.2180 cc        1 1ER     -0.136400
      8 C8          1.1020   -0.0360   -2.4530 ca        1 1ER     -0.041800
      9 C7          0.1900    0.9890   -2.7400 ca        1 1ER     -0.099000
     10 C6         -0.5120    0.9750   -3.9410 ca        1 1ER     -0.134000
     11 C5         -0.3230   -0.0530   -4.8640 ca        1 1ER     -0.122000
     12 C14         1.2800   -1.0710   -3.3820 ca        1 1ER     -0.121000
     13 C4          0.5740   -1.0910   -4.5930 ca        1 1ER     -0.071300
     14 C1          0.8030   -2.2300   -5.5530 c3        1 1ER     -0.008700
     15 C3          2.2740   -2.2650   -5.9570 c3        1 1ER     -0.085433
     16 C2          0.4350   -3.5470   -4.8740 c3        1 1ER     -0.085433
     17 C          -0.0340   -2.0980   -6.8190 c3        1 1ER     -0.085433
     18 H1          3.8450   -0.0430    2.1570 h4        1 1ER      0.151000
     19 H2          4.9610   -0.8220    0.0320 ha        1 1ER      0.151000
     20 H3          3.6780   -0.8050   -2.1090 ha        1 1ER      0.144000
     21 H5          0.0190    1.7920   -2.0050 ha        1 1ER      0.155000
     22 H6         -1.2270    1.7820   -4.1630 ha        1 1ER      0.132000
     23 H7         -0.8950   -0.0320   -5.8030 ha        1 1ER      0.133000
     24 H8          1.9800   -1.8880   -3.1490 ha        1 1ER      0.129000
     25 H9          2.4510   -3.1020   -6.6750 hc        1 1ER      0.036256
     26 H10         2.5630   -1.3060   -6.4480 hc        1 1ER      0.036256
     27 H11         2.9250   -2.4210   -5.0650 hc        1 1ER      0.036256
     28 H12         1.0660   -3.7150   -3.9700 hc        1 1ER      0.036256
     29 H13         0.5940   -4.3960   -5.5810 hc        1 1ER      0.036256
     30 H14        -0.6370   -3.5350   -4.5640 hc        1 1ER      0.036256
     31 H15         0.2190   -1.1570   -7.3630 hc        1 1ER      0.036256
     32 H16         0.1730   -2.9620   -7.4980 hc        1 1ER      0.036256
     33 H17        -1.1230   -2.0980   -6.5740 hc        1 1ER      0.036256
     34 H4          1.6020    0.6980    2.0470 hn        1 1ER      0.333500
@<TRIPOS>BOND
     1    1    2 2   
     2    2    3 1   
     3    2    7 1   
     4    3    4 1   
     5    3   34 1   
     6    4    5 2   
     7    4   18 1   
     8    5    6 1   
     9    5   19 1   
    10    6    7 2   
    11    6   20 1   
    12    7    8 1   
    13    8    9 ar  
    14    8   12 ar  
    15    9   10 ar  
    16    9   21 1   
    17   10   11 ar  
    18   10   22 1   
    19   11   13 ar  
    20   11   23 1   
    21   12   13 ar  
    22   12   24 1   
    23   13   14 1   
    24   14   15 1   
    25   14   16 1   
    26   14   17 1   
    27   15   25 1   
    28   15   26 1   
    29   15   27 1   
    30   16   28 1   
    31   16   29 1   
    32   16   30 1   
    33   17   31 1   
    34   17   32 1   
    35   17   33 1   
@<TRIPOS>SUBSTRUCTURE
     1 1ER         1 TEMP              0 ****  ****    0 ROOT
