@<TRIPOS>MOLECULE
1ER
   34    35     1     0     0
SMALL
bcc


@<TRIPOS>ATOM
      1 O           0.0750    0.8880    0.1310 o         1 1ER     -0.640500
      2 C13         1.2360    0.4470    0.0180 c         1 1ER      0.689700
      3 N           2.0150    0.4020    1.1940 n         1 1ER     -0.439100
      4 C12         3.3120   -0.0440    1.1870 cc        1 1ER      0.010600
      5 C11         3.9160   -0.4720    0.0320 cd        1 1ER     -0.249000
      6 C10         3.1760   -0.4620   -1.1860 cd        1 1ER     -0.039000
      7 C9          1.8770   -0.0310   -1.2190 cc        1 1ER     -0.136400
      8 C8          1.1030   -0.0340   -2.4560 ca        1 1ER     -0.041800
      9 C7          0.1930    0.9930   -2.7460 ca        1 1ER     -0.099000
     10 C6         -0.5070    0.9770   -3.9490 ca        1 1ER     -0.134000
     11 C5         -0.3180   -0.0530   -4.8690 ca        1 1ER     -0.122000
     12 C14         1.2800   -1.0710   -3.3820 ca        1 1ER     -0.121000
     13 C4          0.5760   -1.0930   -4.5940 ca        1 1ER     -0.071300
     14 C1          0.8040   -2.2340   -5.5510 c3        1 1ER     -0.008700
     15 C3          2.2760   -2.2740   -5.9520 c3        1 1ER     -0.085433
     16 C2          0.4310   -3.5490   -4.8700 c3        1 1ER     -0.085433
     17 C          -0.0300   -2.1030   -6.8190 c3        1 1ER     -0.085433
     18 H1          3.8370   -0.0360    2.1600 h4        1 1ER      0.151000
     19 H2          4.9560   -0.8210    0.0380 ha        1 1ER      0.151000
     20 H3          3.6770   -0.8060   -2.1050 ha        1 1ER      0.144000
     21 H5          0.0230    1.7980   -2.0140 ha        1 1ER      0.155000
     22 H6         -1.2200    1.7850   -4.1740 ha        1 1ER      0.132000
     23 H7         -0.8890   -0.0330   -5.8090 ha        1 1ER      0.133000
     24 H8          1.9780   -1.8890   -3.1460 ha        1 1ER      0.129000
     25 H9          2.5690   -1.3160   -6.4440 hc        1 1ER      0.036256
     26 H10         2.4530   -3.1130   -6.6680 hc        1 1ER      0.036256
     27 H11         2.9250   -2.4300   -5.0580 hc        1 1ER      0.036256
     28 H12         0.5910   -4.4000   -5.5740 hc        1 1ER      0.036256
     29 H13         1.0600   -3.7160   -3.9630 hc        1 1ER      0.036256
     30 H14        -0.6410   -3.5330   -4.5630 hc        1 1ER      0.036256
     31 H15        -1.1190   -2.1000   -6.5760 hc        1 1ER      0.036256
     32 H16         0.1770   -2.9690   -7.4950 hc        1 1ER      0.036256
     33 H17         0.2270   -1.1630   -7.3640 hc        1 1ER      0.036256
     34 H4          1.5960    0.7080    2.0440 hn        1 1ER      0.333500
@<TRIPOS>BOND
     1    1    2 2   
     2    2    3 1   
     3    2    7 1   
     4    3    4 1   
     5    3   34 1   
     6    4    5 2   
     7    4   18 1   
     8    5    6 1   
     9    5   19 1   
    10    6    7 2   
    11    6   20 1   
    12    7    8 1   
    13    8    9 ar  
    14    8   12 ar  
    15    9   10 ar  
    16    9   21 1   
    17   10   11 ar  
    18   10   22 1   
    19   11   13 ar  
    20   11   23 1   
    21   12   13 ar  
    22   12   24 1   
    23   13   14 1   
    24   14   15 1   
    25   14   16 1   
    26   14   17 1   
    27   15   25 1   
    28   15   26 1   
    29   15   27 1   
    30   16   28 1   
    31   16   29 1   
    32   16   30 1   
    33   17   31 1   
    34   17   32 1   
    35   17   33 1   
@<TRIPOS>SUBSTRUCTURE
     1 1ER         1 TEMP              0 ****  ****    0 ROOT
