@<TRIPOS>MOLECULE
1ER
   34    35     1     0     0
SMALL
bcc


@<TRIPOS>ATOM
      1 O          -2.6950   -1.9640    0.7620 o         1 1ER     -0.640500
      2 C13        -2.7830   -0.7920    0.3440 c         1 1ER      0.689700
      3 N          -4.0590   -0.1930    0.4000 n         1 1ER     -0.439100
      4 C12        -4.2820    1.0830   -0.0510 cc        1 1ER      0.010600
      5 C11        -3.2680    1.8430   -0.5780 cd        1 1ER     -0.249000
      6 C10        -1.9540    1.2960   -0.6500 cd        1 1ER     -0.039000
      7 C9         -1.6900    0.0290   -0.2030 cc        1 1ER     -0.136400
      8 C8         -0.3450   -0.5340   -0.2540 ca        1 1ER     -0.041800
      9 C7         -0.1340   -1.8860   -0.5580 ca        1 1ER     -0.099000
     10 C6          1.1620   -2.3850   -0.6290 ca        1 1ER     -0.134000
     11 C5          2.2590   -1.5560   -0.3960 ca        1 1ER     -0.122000
     12 C14         0.7620    0.2920   -0.0110 ca        1 1ER     -0.121000
     13 C4          2.0700   -0.2060   -0.0800 ca        1 1ER     -0.071300
     14 C1          3.2220    0.7260    0.1930 c3        1 1ER     -0.008700
     15 C3          3.1890    1.8800   -0.8060 c3        1 1ER     -0.085433
     16 C2          3.0990    1.2830    1.6090 c3        1 1ER     -0.085433
     17 C           4.5720    0.0320    0.0710 c3        1 1ER     -0.085433
     18 H1         -5.3180    1.4590    0.0330 h4        1 1ER      0.151000
     19 H2         -3.4590    2.8600   -0.9410 ha        1 1ER      0.151000
     20 H3         -1.1510    1.9190   -1.0790 ha        1 1ER      0.144000
     21 H5         -0.9970   -2.5520   -0.7210 ha        1 1ER      0.155000
     22 H6          1.3250   -3.4470   -0.8680 ha        1 1ER      0.132000
     23 H7          3.2700   -1.9850   -0.4600 ha        1 1ER      0.133000
     24 H8          0.5970    1.3490    0.2490 ha        1 1ER      0.129000
     25 H9          2.2390    2.4570   -0.7120 hc        1 1ER      0.036256
     26 H10         4.0440    2.5720   -0.6160 hc        1 1ER      0.036256
     27 H11         3.2690    1.4900   -1.8490 hc        1 1ER      0.036256
     28 H12         3.1130    0.4510    2.3530 hc        1 1ER      0.036256
     29 H13         3.9530    1.9700    1.8230 hc        1 1ER      0.036256
     30 H14         2.1470    1.8530    1.7280 hc        1 1ER      0.036256
     31 H15         4.7160   -0.3730   -0.9600 hc        1 1ER      0.036256
     32 H16         5.3910    0.7630    0.2790 hc        1 1ER      0.036256
     33 H17         4.6530   -0.8040    0.8070 hc        1 1ER      0.036256
     34 H4         -4.8100   -0.7270    0.7790 hn        1 1ER      0.333500
@<TRIPOS>BOND
     1    1    2 2   
     2    2    3 1   
     3    2    7 1   
     4    3    4 1   
     5    3   34 1   
     6    4    5 2   
     7    4   18 1   
     8    5    6 1   
     9    5   19 1   
    10    6    7 2   
    11    6   20 1   
    12    7    8 1   
    13    8    9 ar  
    14    8   12 ar  
    15    9   10 ar  
    16    9   21 1   
    17   10   11 ar  
    18   10   22 1   
    19   11   13 ar  
    20   11   23 1   
    21   12   13 ar  
    22   12   24 1   
    23   13   14 1   
    24   14   15 1   
    25   14   16 1   
    26   14   17 1   
    27   15   25 1   
    28   15   26 1   
    29   15   27 1   
    30   16   28 1   
    31   16   29 1   
    32   16   30 1   
    33   17   31 1   
    34   17   32 1   
    35   17   33 1   
@<TRIPOS>SUBSTRUCTURE
     1 1ER         1 TEMP              0 ****  ****    0 ROOT
