@<TRIPOS>MOLECULE
1ER
   34    29     1     0     0
SMALL
bcc


@<TRIPOS>ATOM
      1 O          -1.1930   -0.0080    3.3590 o         1 1ER     -0.365000
      2 C13         0.0030    0.2020    3.4010 c1        1 1ER      0.328000
      3 N           0.7190    0.1000    4.6740 n3        1 1ER     -0.283000
      4 C12         2.1440    0.4380    4.7460 c2        1 1ER      0.008000
      5 C11         2.8860    0.8620    3.5000 c1        1 1ER     -0.249000
      6 C10         2.1700    0.9660    2.2190 c1        1 1ER     -0.080000
      7 C9          0.7400    0.6270    2.1490 c1        1 1ER     -0.079500
      8 C8         -0.0280    0.8370    0.8500 c1        1 1ER     -0.079500
      9 C7         -0.7470    2.0090    0.6500 c1        1 1ER     -0.116500
     10 C6         -1.4450    2.2010   -0.5340 c1        1 1ER     -0.116500
     11 C5         -1.4270    1.2210   -1.5180 c1        1 1ER     -0.122000
     12 C14        -0.0090   -0.1420   -0.1330 c1        1 1ER     -0.080000
     13 C4         -0.7090    0.0500   -1.3180 c1        1 1ER     -0.064000
     14 C1         -0.6610   -1.0080   -2.4090 c3        1 1ER     -0.016000
     15 C3          0.7500   -1.1050   -2.9570 c3        1 1ER     -0.203333
     16 C2         -1.0730   -2.3500   -1.8310 c3        1 1ER     -0.203333
     17 C          -1.6070   -0.6260   -3.5220 c3        1 1ER     -0.203333
     18 H1          2.6200    0.3690    5.5970 h4        1 1ER      0.151000
     19 H2          3.8370    1.0880    3.5490 ha        1 1ER      0.151000
     20 H3          2.6460    1.2390    1.4170 ha        1 1ER      0.136500
     21 H5         -0.7600    2.6990    1.3430 ha        1 1ER      0.143500
     22 H6         -1.9510    3.0260   -0.6750 ha        1 1ER      0.143500
     23 H7         -1.9200    1.3570   -2.3540 ha        1 1ER      0.133000
     24 H8          0.4970   -0.9690    0.0080 ha        1 1ER      0.136500
     25 H9          1.0960   -0.2020   -3.1360 hc        1 1ER      0.075556
     26 H10         0.7430   -1.6230   -3.7890 hc        1 1ER      0.075556
     27 H11         1.3240   -1.5500   -2.3020 hc        1 1ER      0.075556
     28 H12        -1.9120   -2.2480   -1.3360 hc        1 1ER      0.075556
     29 H13        -1.2010   -2.9960   -2.5610 hc        1 1ER      0.075556
     30 H14        -0.3720   -2.6750   -1.2260 hc        1 1ER      0.075556
     31 H15        -1.5840   -1.3140   -4.2200 hc        1 1ER      0.075556
     32 H16        -1.3340    0.2340   -3.9020 hc        1 1ER      0.075556
     33 H17        -2.5160   -0.5520   -3.1660 hc        1 1ER      0.075556
     34 H4          0.2750   -0.1550    5.4260 hn        1 1ER      0.247000
@<TRIPOS>BOND
     1    1    2 1   
     2    2    3 1   
     3    3    4 1   
     4    3   34 1   
     5    4    5 1   
     6    4   18 1   
     7    5   19 1   
     8    6    7 1   
     9    6   20 1   
    10    8   12 1   
    11    9   10 1   
    12    9   21 1   
    13   10   22 1   
    14   11   13 1   
    15   11   23 1   
    16   12   24 1   
    17   13   14 1   
    18   14   15 1   
    19   14   16 1   
    20   14   17 1   
    21   15   25 1   
    22   15   26 1   
    23   15   27 1   
    24   16   28 1   
    25   16   29 1   
    26   16   30 1   
    27   17   31 1   
    28   17   32 1   
    29   17   33 1   
@<TRIPOS>SUBSTRUCTURE
     1 1ER         1 TEMP              0 ****  ****    0 ROOT
