@<TRIPOS>MOLECULE
1ER
   34    35     1     0     0
SMALL
bcc


@<TRIPOS>ATOM
      1 O           0.0940    0.9110    0.1250 o         1 1ER     -0.640500
      2 C13         1.2490    0.4550    0.0150 c         1 1ER      0.689700
      3 N           2.0260    0.4030    1.1910 n         1 1ER     -0.439100
      4 C12         3.3180   -0.0590    1.1880 cc        1 1ER      0.010600
      5 C11         3.9180   -0.4980    0.0340 cd        1 1ER     -0.249000
      6 C10         3.1790   -0.4810   -1.1840 cd        1 1ER     -0.039000
      7 C9          1.8860   -0.0340   -1.2200 cc        1 1ER     -0.136400
      8 C8          1.1130   -0.0300   -2.4580 ca        1 1ER     -0.041800
      9 C7          0.2170    1.0080   -2.7520 ca        1 1ER     -0.099000
     10 C6         -0.4810    0.9980   -3.9550 ca        1 1ER     -0.134000
     11 C5         -0.3040   -0.0370   -4.8740 ca        1 1ER     -0.122000
     12 C14         1.2790   -1.0720   -3.3820 ca        1 1ER     -0.121000
     13 C4          0.5770   -1.0870   -4.5950 ca        1 1ER     -0.071300
     14 C1          0.7920   -2.2330   -5.5480 c3        1 1ER     -0.008700
     15 C3          2.2640   -2.2930   -5.9480 c3        1 1ER     -0.085433
     16 C2          0.4020   -3.5420   -4.8660 c3        1 1ER     -0.085433
     17 C          -0.0380   -2.0950   -6.8190 c3        1 1ER     -0.085433
     18 H1          3.8420   -0.0550    2.1610 h4        1 1ER      0.151000
     19 H2          4.9530   -0.8600    0.0430 ha        1 1ER      0.151000
     20 H3          3.6770   -0.8340   -2.1020 ha        1 1ER      0.144000
     21 H5          0.0560    1.8160   -2.0220 ha        1 1ER      0.155000
     22 H6         -1.1830    1.8140   -4.1840 ha        1 1ER      0.132000
     23 H7         -0.8730   -0.0120   -5.8150 ha        1 1ER      0.133000
     24 H8          1.9660   -1.8980   -3.1430 ha        1 1ER      0.129000
     25 H9          2.4310   -3.1350   -6.6610 hc        1 1ER      0.036256
     26 H10         2.5690   -1.3390   -6.4420 hc        1 1ER      0.036256
     27 H11         2.9100   -2.4540   -5.0520 hc        1 1ER      0.036256
     28 H12         1.0280   -3.7150   -3.9580 hc        1 1ER      0.036256
     29 H13         0.5510   -4.3960   -5.5680 hc        1 1ER      0.036256
     30 H14        -0.6710   -3.5120   -4.5590 hc        1 1ER      0.036256
     31 H15         0.2300   -1.1590   -7.3650 hc        1 1ER      0.036256
     32 H16         0.1580   -2.9640   -7.4920 hc        1 1ER      0.036256
     33 H17        -1.1280   -2.0780   -6.5770 hc        1 1ER      0.036256
     34 H4          1.6100    0.7170    2.0400 hn        1 1ER      0.333500
@<TRIPOS>BOND
     1    1    2 2   
     2    2    3 1   
     3    2    7 1   
     4    3    4 1   
     5    3   34 1   
     6    4    5 2   
     7    4   18 1   
     8    5    6 1   
     9    5   19 1   
    10    6    7 2   
    11    6   20 1   
    12    7    8 1   
    13    8    9 ar  
    14    8   12 ar  
    15    9   10 ar  
    16    9   21 1   
    17   10   11 ar  
    18   10   22 1   
    19   11   13 ar  
    20   11   23 1   
    21   12   13 ar  
    22   12   24 1   
    23   13   14 1   
    24   14   15 1   
    25   14   16 1   
    26   14   17 1   
    27   15   25 1   
    28   15   26 1   
    29   15   27 1   
    30   16   28 1   
    31   16   29 1   
    32   16   30 1   
    33   17   31 1   
    34   17   32 1   
    35   17   33 1   
@<TRIPOS>SUBSTRUCTURE
     1 1ER         1 TEMP              0 ****  ****    0 ROOT
