@<TRIPOS>MOLECULE
1ES
   28    29     1     0     0
SMALL
bcc


@<TRIPOS>ATOM
      1 CAK         0.1120    0.0640   -0.0030 ca        1 1ES     -0.084800
      2 CAJ         1.5570    0.0130    0.0550 cc        1 1ES     -0.227400
      3 CAA         0.7490   -0.1380    3.6280 c3        1 1ES      0.017600
      4 NAM         0.7770   -0.0130    2.2060 na        1 1ES     -0.051400
      5 CAG         1.9150   -0.0450    1.4080 cd        1 1ES     -0.050100
      6 CAL        -0.3490    0.0440    1.3660 ca        1 1ES     -0.046200
      7 CAF        -1.7200    0.0880    1.6690 ca        1 1ES     -0.116000
      8 CAD        -2.6130    0.1450    0.6120 ca        1 1ES     -0.107000
      9 CAC        -2.1720    0.1570   -0.7260 ca        1 1ES     -0.125000
     10 CAE        -0.8230    0.1170   -1.0390 ca        1 1ES     -0.117000
     11 CAI         2.4690   -0.0160   -1.0910 c3        1 1ES      0.000800
     12 CAH         2.4490    1.3600   -1.7640 c3        1 1ES      0.089800
     13 NAB         3.2580    1.4010   -3.0190 n4        1 1ES     -0.839600
     14 H1          1.7380    0.1740    4.0560 h1        1 1ES      0.065033
     15 H2          0.5400   -1.2030    3.9230 h1        1 1ES      0.065033
     16 H3         -0.0610    0.5200    4.0460 h1        1 1ES      0.065033
     17 H4          2.9100   -0.1110    1.8560 h4        1 1ES      0.174000
     18 H5         -2.0700    0.0720    2.7110 ha        1 1ES      0.148000
     19 H6         -3.6940    0.1770    0.8170 ha        1 1ES      0.149000
     20 H7         -2.9220    0.1940   -1.5320 ha        1 1ES      0.142000
     21 H8         -0.4910    0.1120   -2.0860 ha        1 1ES      0.112000
     22 H9          3.5110   -0.2690   -0.7580 hc        1 1ES      0.064200
     23 H10         2.1320   -0.8040   -1.8200 hc        1 1ES      0.064200
     24 H11         2.8620    2.1400   -1.0620 hx        1 1ES      0.117200
     25 H12         1.3840    1.6330   -2.0260 hx        1 1ES      0.117200
     26 H13         3.2110    2.3330   -3.4400 hn        1 1ES      0.457800
     27 H14         2.8980    0.7130   -3.6890 hn        1 1ES      0.457800
     28 HAB3        4.2360    1.1740   -2.8150 hn        1 1ES      0.457800
@<TRIPOS>BOND
     1    1    2 1   
     2    1    6 ar  
     3    1   10 ar  
     4    2    5 2   
     5    2   11 1   
     6    3    4 1   
     7    3   14 1   
     8    3   15 1   
     9    3   16 1   
    10    4    5 1   
    11    4    6 1   
    12    5   17 1   
    13    6    7 ar  
    14    7    8 ar  
    15    7   18 1   
    16    8    9 ar  
    17    8   19 1   
    18    9   10 ar  
    19    9   20 1   
    20   10   21 1   
    21   11   12 1   
    22   11   22 1   
    23   11   23 1   
    24   12   13 1   
    25   12   24 1   
    26   12   25 1   
    27   13   26 1   
    28   13   27 1   
    29   13   28 1   
@<TRIPOS>SUBSTRUCTURE
     1 1ES         1 TEMP              0 ****  ****    0 ROOT
