@<TRIPOS>MOLECULE
1ES
   28    29     1     0     0
SMALL
bcc


@<TRIPOS>ATOM
      1 CAK         0.1140    0.0550   -0.0020 ca        1 1ES     -0.084800
      2 CAJ         1.5590    0.0110    0.0520 cc        1 1ES     -0.227400
      3 CAA         0.7600   -0.1510    3.6270 c3        1 1ES      0.017600
      4 NAM         0.7850   -0.0230    2.2050 na        1 1ES     -0.051400
      5 CAG         1.9200   -0.0480    1.4050 cd        1 1ES     -0.049100
      6 CAL        -0.3440    0.0300    1.3690 ca        1 1ES     -0.046200
      7 CAF        -1.7140    0.0660    1.6750 ca        1 1ES     -0.116000
      8 CAD        -2.6100    0.1200    0.6200 ca        1 1ES     -0.107000
      9 CAC        -2.1730    0.1380   -0.7190 ca        1 1ES     -0.125000
     10 CAE        -0.8240    0.1050   -1.0360 ca        1 1ES     -0.117000
     11 CAI         2.4680   -0.0110   -1.0950 c3        1 1ES      0.000800
     12 CAH         2.4390    1.3660   -1.7660 c3        1 1ES      0.089800
     13 NAB         3.2440    1.4130   -3.0240 n4        1 1ES     -0.839600
     14 H1          1.7500    0.1620    4.0530 h1        1 1ES      0.065033
     15 H2          0.5540   -1.2170    3.9200 h1        1 1ES      0.065033
     16 H3         -0.0490    0.5040    4.0480 h1        1 1ES      0.065033
     17 H4          2.9170   -0.1090    1.8500 h4        1 1ES      0.174000
     18 H5         -2.0610    0.0460    2.7180 ha        1 1ES      0.148000
     19 H6         -3.6910    0.1460    0.8280 ha        1 1ES      0.149000
     20 H7         -2.9250    0.1720   -1.5220 ha        1 1ES      0.142000
     21 H8         -0.4950    0.1040   -2.0830 ha        1 1ES      0.112000
     22 H9          3.5130   -0.2590   -0.7660 hc        1 1ES      0.064200
     23 H10         2.1340   -0.8000   -1.8250 hc        1 1ES      0.064200
     24 H11         2.8500    2.1470   -1.0650 hx        1 1ES      0.117200
     25 H12         1.3720    1.6330   -2.0250 hx        1 1ES      0.117200
     26 H13         3.1910    2.3460   -3.4430 hn        1 1ES      0.457800
     27 H14         2.8860    0.7250   -3.6940 hn        1 1ES      0.457800
     28 HAB3        4.2240    1.1910   -2.8230 hn        1 1ES      0.457800
@<TRIPOS>BOND
     1    1    2 1   
     2    1    6 ar  
     3    1   10 ar  
     4    2    5 2   
     5    2   11 1   
     6    3    4 1   
     7    3   14 1   
     8    3   15 1   
     9    3   16 1   
    10    4    5 1   
    11    4    6 1   
    12    5   17 1   
    13    6    7 ar  
    14    7    8 ar  
    15    7   18 1   
    16    8    9 ar  
    17    8   19 1   
    18    9   10 ar  
    19    9   20 1   
    20   10   21 1   
    21   11   12 1   
    22   11   22 1   
    23   11   23 1   
    24   12   13 1   
    25   12   24 1   
    26   12   25 1   
    27   13   26 1   
    28   13   27 1   
    29   13   28 1   
@<TRIPOS>SUBSTRUCTURE
     1 1ES         1 TEMP              0 ****  ****    0 ROOT
