@<TRIPOS>MOLECULE
1ET
   57    59     1     0     0
SMALL
bcc


@<TRIPOS>ATOM
      1 N22        -5.5250    3.3790   -1.9470 nh        1 1ET     -0.923000
      2 C22        -5.5170    2.3820   -0.9560 ca        1 1ET      0.630700
      3 C23        -6.7520    1.9940   -0.3540 ca        1 1ET     -0.301300
      4 C24        -6.7580    0.9360    0.5520 ca        1 1ET     -0.006300
      5 C27        -8.0210    0.4880    1.1820 c3        1 1ET     -0.060800
      6 C25        -5.5510    0.2920    0.8500 ca        1 1ET     -0.291800
      7 N21        -4.3330    1.7650   -0.6480 nb        1 1ET     -0.729500
      8 C26        -4.3670    0.7370    0.2290 ca        1 1ET      0.451600
      9 C28        -3.0740    0.0490    0.5760 c3        1 1ET     -0.126700
     10 C29        -2.4610   -0.6350   -0.6340 c3        1 1ET     -0.033100
     11 C15        -1.2220   -1.3760   -0.2630 ca        1 1ET     -0.081800
     12 C14        -1.2170   -2.7740   -0.2250 ca        1 1ET     -0.118000
     13 C13        -0.0510   -3.4650    0.1160 ca        1 1ET     -0.095300
     14 C17        -0.0670   -4.9640    0.1890 c3        1 1ET      0.204100
     15 N18         1.0120   -5.5970   -0.5370 n3        1 1ET     -0.915800
     16 C12         1.1150   -2.7570    0.4180 ca        1 1ET     -0.118000
     17 C16        -0.0500   -0.6740    0.0370 ca        1 1ET     -0.122000
     18 C11         1.1210   -1.3590    0.3770 ca        1 1ET     -0.081800
     19 C09         2.3590   -0.5990    0.7060 c3        1 1ET     -0.033100
     20 C08         3.0070   -0.0370   -0.5480 c3        1 1ET     -0.126700
     21 C06         4.2820    0.6950   -0.2260 ca        1 1ET      0.451600
     22 N01         4.1970    1.8620    0.4510 nb        1 1ET     -0.729500
     23 C02         5.3650    2.5170    0.7430 ca        1 1ET      0.630700
     24 N02         5.3140    3.6740    1.5410 nh        1 1ET     -0.923000
     25 C03         6.6370    2.0210    0.3250 ca        1 1ET     -0.301300
     26 C04         6.6940    0.8190   -0.3770 ca        1 1ET     -0.006300
     27 C05         5.5030    0.1400   -0.6580 ca        1 1ET     -0.291800
     28 C07         7.9950    0.2580   -0.8100 c3        1 1ET     -0.060800
     29 H1         -6.2150    4.0800   -1.7950 hn        1 1ET      0.399550
     30 H2         -4.6330    3.7440   -2.2010 hn        1 1ET      0.399550
     31 H3         -7.6850    2.5130   -0.6100 ha        1 1ET      0.141000
     32 H4         -8.4230   -0.4000    0.6320 hc        1 1ET      0.049033
     33 H5         -7.8480    0.1910    2.2460 hc        1 1ET      0.049033
     34 H6         -8.7930    1.2950    1.1590 hc        1 1ET      0.049033
     35 H7         -5.5260   -0.5450    1.5600 ha        1 1ET      0.142500
     36 H8         -2.3480    0.8000    0.9890 hc        1 1ET      0.058200
     37 H9         -3.2680   -0.7090    1.3800 hc        1 1ET      0.058200
     38 H10        -3.2110   -1.3390   -1.0840 hc        1 1ET      0.059200
     39 H11        -2.2130    0.1340   -1.4140 hc        1 1ET      0.059200
     40 H12        -2.1360   -3.3290   -0.4640 ha        1 1ET      0.138500
     41 H13         0.0440   -5.2670    1.2720 h1        1 1ET      0.033200
     42 H14        -1.0830   -5.3310   -0.1510 h1        1 1ET      0.033200
     43 H15         0.8150   -6.5690   -0.6670 hn        1 1ET      0.351300
     44 H16         1.1500   -5.1660   -1.4290 hn        1 1ET      0.351300
     45 H18         2.0310   -3.3040    0.6890 ha        1 1ET      0.138500
     46 H19        -0.0500    0.4270    0.0050 ha        1 1ET      0.138000
     47 H20         2.1060    0.2430    1.4050 hc        1 1ET      0.059200
     48 H21         3.0900   -1.2660    1.2370 hc        1 1ET      0.059200
     49 H22         3.2360   -0.8730   -1.2610 hc        1 1ET      0.058200
     50 H23         2.2880    0.6570   -1.0610 hc        1 1ET      0.058200
     51 H24         4.4120    4.0820    1.6520 hn        1 1ET      0.399550
     52 H25         6.0280    4.3330    1.3250 hn        1 1ET      0.399550
     53 H26         7.5560    2.5710    0.5630 ha        1 1ET      0.141000
     54 H27         5.5180   -0.8090   -1.2080 ha        1 1ET      0.142500
     55 H28         8.3290   -0.5240   -0.0830 hc        1 1ET      0.049033
     56 H29         7.9040   -0.2170   -1.8180 hc        1 1ET      0.049033
     57 H30         8.7810    1.0510   -0.8600 hc        1 1ET      0.049033
@<TRIPOS>BOND
     1    1    2 1   
     2    1   29 1   
     3    1   30 1   
     4    2    3 ar  
     5    2    7 ar  
     6    3    4 ar  
     7    3   31 1   
     8    4    5 1   
     9    4    6 ar  
    10    5   32 1   
    11    5   33 1   
    12    5   34 1   
    13    6    8 ar  
    14    6   35 1   
    15    7    8 ar  
    16    8    9 1   
    17    9   10 1   
    18    9   36 1   
    19    9   37 1   
    20   10   11 1   
    21   10   38 1   
    22   10   39 1   
    23   11   12 ar  
    24   11   17 ar  
    25   12   13 ar  
    26   12   40 1   
    27   13   14 1   
    28   13   16 ar  
    29   14   15 1   
    30   14   41 1   
    31   14   42 1   
    32   15   43 1   
    33   15   44 1   
    34   16   18 ar  
    35   16   45 1   
    36   17   18 ar  
    37   17   46 1   
    38   18   19 1   
    39   19   20 1   
    40   19   47 1   
    41   19   48 1   
    42   20   21 1   
    43   20   49 1   
    44   20   50 1   
    45   21   22 ar  
    46   21   27 ar  
    47   22   23 ar  
    48   23   24 1   
    49   23   25 ar  
    50   24   51 1   
    51   24   52 1   
    52   25   26 ar  
    53   25   53 1   
    54   26   27 ar  
    55   26   28 1   
    56   27   54 1   
    57   28   55 1   
    58   28   56 1   
    59   28   57 1   
@<TRIPOS>SUBSTRUCTURE
     1 1ET         1 TEMP              0 ****  ****    0 ROOT
