@<TRIPOS>MOLECULE
1ET
   58    60     1     0     0
SMALL
bcc


@<TRIPOS>ATOM
      1 N22         0.2220   -1.9830    0.1490 nh        1 1ET     -0.929500
      2 C22         1.3150   -1.1250   -0.0300 ca        1 1ET      0.646700
      3 C23         1.8430   -0.4260    1.1000 ca        1 1ET     -0.298300
      4 C24         2.9900    0.3460    0.9430 ca        1 1ET      0.004200
      5 C27         3.5610    1.0950    2.0850 c3        1 1ET     -0.065300
      6 C25         3.5930    0.4150   -0.3220 ca        1 1ET     -0.297800
      7 N21         1.8920   -1.0380   -1.2700 nb        1 1ET     -0.743500
      8 C26         3.0110   -0.2900   -1.3910 ca        1 1ET      0.439600
      9 C28         3.6550   -0.1720   -2.7460 c3        1 1ET     -0.121200
     10 C29         3.7240   -1.5030   -3.4740 c3        1 1ET     -0.044100
     11 C15         4.4940   -1.3940   -4.7450 ca        1 1ET     -0.054300
     12 C14         5.7180   -2.0540   -4.8890 ca        1 1ET     -0.110500
     13 C13         6.4260   -1.9580   -6.0920 ca        1 1ET     -0.197300
     14 C17         7.7420   -2.6360   -6.2300 c3        1 1ET      0.178100
     15 N18         7.5630   -4.0330   -6.7560 n4        1 1ET     -0.845600
     16 C12         5.9180   -1.2050   -7.1550 ca        1 1ET     -0.110500
     17 C16         3.9910   -0.6410   -5.8140 ca        1 1ET     -0.082000
     18 C11         4.6950   -0.5400   -7.0200 ca        1 1ET     -0.054300
     19 C09         4.1650    0.2900   -8.1370 c3        1 1ET     -0.044100
     20 C08         2.8320   -0.2290   -8.6440 c3        1 1ET     -0.121200
     21 C06         2.3510    0.4750   -9.8840 ca        1 1ET      0.439600
     22 N01         2.6470    1.7820  -10.0510 nb        1 1ET     -0.743500
     23 C02         2.1840    2.4020  -11.1840 ca        1 1ET      0.646700
     24 N02         2.5700    3.7220  -11.4370 nh        1 1ET     -0.929500
     25 C03         1.3830    1.7130  -12.1470 ca        1 1ET     -0.298300
     26 C04         1.0870    0.3680  -11.9440 ca        1 1ET      0.004200
     27 C05         1.5800   -0.2690  -10.7960 ca        1 1ET     -0.297800
     28 C07         0.2740   -0.3830  -12.9270 c3        1 1ET     -0.065300
     29 H1         -0.2490   -2.2820   -0.6750 hn        1 1ET      0.410550
     30 H2         -0.3810   -1.7240    0.8970 hn        1 1ET      0.410550
     31 H3          1.3560   -0.5050    2.0820 ha        1 1ET      0.149000
     32 H4          3.1920    2.1530    2.0650 hc        1 1ET      0.054200
     33 H5          4.6770    1.1130    2.0300 hc        1 1ET      0.054200
     34 H6          3.2600    0.6380    3.0590 hc        1 1ET      0.054200
     35 H7          4.4990    1.0150   -0.4720 ha        1 1ET      0.140000
     36 H8          3.0680    0.5640   -3.3590 hc        1 1ET      0.054950
     37 H9          4.6900    0.2430   -2.6200 hc        1 1ET      0.054950
     38 H10         4.1920   -2.2690   -2.8010 hc        1 1ET      0.074450
     39 H11         2.6830   -1.8590   -3.7090 hc        1 1ET      0.074450
     40 H12         6.1290   -2.6300   -4.0460 ha        1 1ET      0.138000
     41 H13         8.4110   -2.0860   -6.9540 hx        1 1ET      0.110700
     42 H14         8.2650   -2.7160   -5.2330 hx        1 1ET      0.110700
     43 H15         6.9650   -4.5680   -6.1170 hn        1 1ET      0.456133
     44 H16         8.4670   -4.5020   -6.8480 hn        1 1ET      0.456133
     45 H18         6.4860   -1.1130   -8.0950 ha        1 1ET      0.138000
     46 H19         3.0280   -0.1150   -5.7000 ha        1 1ET      0.163000
     47 H20         4.9010    0.3180   -8.9840 hc        1 1ET      0.074450
     48 H21         4.0430    1.3490   -7.7740 hc        1 1ET      0.074450
     49 H22         2.0500   -0.1070   -7.8470 hc        1 1ET      0.054950
     50 H23         2.9170   -1.3260   -8.8690 hc        1 1ET      0.054950
     51 H24         2.9430    4.2350  -10.6700 hn        1 1ET      0.410550
     52 H25         1.9360    4.2330  -12.0080 hn        1 1ET      0.410550
     53 H26         1.0130    2.2350  -13.0400 ha        1 1ET      0.149000
     54 H27         1.3590   -1.3270  -10.6100 ha        1 1ET      0.140000
     55 H28         0.9470   -0.9010  -13.6560 hc        1 1ET      0.054200
     56 H29        -0.3530   -1.1560  -12.4180 hc        1 1ET      0.054200
     57 H30        -0.4010    0.3010  -13.4990 hc        1 1ET      0.054200
     58 H183        7.1030   -4.0000   -7.6720 hn        1 1ET      0.456133
@<TRIPOS>BOND
     1    1    2 1   
     2    1   29 1   
     3    1   30 1   
     4    2    3 ar  
     5    2    7 ar  
     6    3    4 ar  
     7    3   31 1   
     8    4    5 1   
     9    4    6 ar  
    10    5   32 1   
    11    5   33 1   
    12    5   34 1   
    13    6    8 ar  
    14    6   35 1   
    15    7    8 ar  
    16    8    9 1   
    17    9   10 1   
    18    9   36 1   
    19    9   37 1   
    20   10   11 1   
    21   10   38 1   
    22   10   39 1   
    23   11   12 ar  
    24   11   17 ar  
    25   12   13 ar  
    26   12   40 1   
    27   13   14 1   
    28   13   16 ar  
    29   14   15 1   
    30   14   41 1   
    31   14   42 1   
    32   15   43 1   
    33   15   44 1   
    34   15   58 1   
    35   16   18 ar  
    36   16   45 1   
    37   17   18 ar  
    38   17   46 1   
    39   18   19 1   
    40   19   20 1   
    41   19   47 1   
    42   19   48 1   
    43   20   21 1   
    44   20   49 1   
    45   20   50 1   
    46   21   22 ar  
    47   21   27 ar  
    48   22   23 ar  
    49   23   24 1   
    50   23   25 ar  
    51   24   51 1   
    52   24   52 1   
    53   25   26 ar  
    54   25   53 1   
    55   26   27 ar  
    56   26   28 1   
    57   27   54 1   
    58   28   55 1   
    59   28   56 1   
    60   28   57 1   
@<TRIPOS>SUBSTRUCTURE
     1 1ET         1 TEMP              0 ****  ****    0 ROOT
