@<TRIPOS>MOLECULE
1ET
   60    62     1     0     0
SMALL
bcc


@<TRIPOS>ATOM
      1 N22         1.8370   -2.8230    1.3400 n4        1 1ET     -0.818800
      2 C22         2.2030   -1.5840    0.6150 ca        1 1ET      0.453700
      3 C23         1.7860   -0.3470    1.1370 ca        1 1ET     -0.202300
      4 C24         2.1670    0.8150    0.4380 ca        1 1ET      0.015200
      5 C27         1.7710    2.1450    0.9490 c3        1 1ET     -0.087800
      6 C25         2.9300    0.6740   -0.7220 ca        1 1ET     -0.204300
      7 N21         2.9450   -1.7420   -0.5190 nb        1 1ET     -0.674500
      8 C26         3.3050   -0.6170   -1.1730 ca        1 1ET      0.451100
      9 C28         4.1740   -0.7230   -2.3980 c3        1 1ET     -0.132700
     10 C29         3.5040   -1.4820   -3.5320 c3        1 1ET     -0.039600
     11 C15         4.3150   -1.4160   -4.7830 ca        1 1ET     -0.067800
     12 C14         5.5230   -2.1180   -4.8780 ca        1 1ET     -0.094500
     13 C13         6.2850   -2.0480   -6.0490 ca        1 1ET     -0.177300
     14 C17         7.6200   -2.7120   -6.1080 c3        1 1ET      0.167100
     15 N18         7.5520   -4.0720   -6.7350 n4        1 1ET     -0.841600
     16 C12         5.8400   -1.2850   -7.1350 ca        1 1ET     -0.094500
     17 C16         3.8770   -0.6560   -5.8740 ca        1 1ET     -0.081000
     18 C11         4.6330   -0.5830   -7.0520 ca        1 1ET     -0.067800
     19 C09         4.1860    0.2820   -8.1840 c3        1 1ET     -0.039600
     20 C08         2.9820   -0.3010   -8.8970 c3        1 1ET     -0.132700
     21 C06         2.4220    0.5330  -10.0170 ca        1 1ET      0.451100
     22 N01         3.0620    1.6350  -10.4540 nb        1 1ET     -0.674500
     23 C02         2.4810    2.3170  -11.4860 ca        1 1ET      0.453700
     24 N02         3.1970    3.5250  -11.9590 n4        1 1ET     -0.818800
     25 C03         1.2790    1.9520  -12.1140 ca        1 1ET     -0.202300
     26 C04         0.6240    0.7950  -11.6440 ca        1 1ET      0.015200
     27 C05         1.2000    0.0870  -10.5910 ca        1 1ET     -0.204300
     28 C07        -0.6420    0.3630  -12.2740 c3        1 1ET     -0.087800
     29 H1          1.4620   -3.5250    0.6890 hn        1 1ET      0.474967
     30 H2          2.6710   -3.2100    1.8010 hn        1 1ET      0.474967
     31 H3          1.1870   -0.2580    2.0580 ha        1 1ET      0.180500
     32 H4          2.4300    2.4340    1.8090 hc        1 1ET      0.084033
     33 H5          1.8670    2.9290    0.1570 hc        1 1ET      0.084033
     34 H6          0.7120    2.1350    1.3120 hc        1 1ET      0.084033
     35 H7          3.2480    1.5660   -1.2860 ha        1 1ET      0.179000
     36 H8          5.1380   -1.2320   -2.1210 hc        1 1ET      0.075450
     37 H9          4.4310    0.3150   -2.7420 hc        1 1ET      0.075450
     38 H10         3.3660   -2.5580   -3.2360 hc        1 1ET      0.071950
     39 H11         2.4820   -1.0550   -3.7170 hc        1 1ET      0.071950
     40 H12         5.8770   -2.7060   -4.0160 ha        1 1ET      0.144500
     41 H13         8.3410   -2.0950   -6.7220 hx        1 1ET      0.120200
     42 H14         8.0490   -2.8410   -5.0710 hx        1 1ET      0.120200
     43 H15         7.1840   -4.0030   -7.6900 hn        1 1ET      0.463133
     44 H16         6.9310   -4.6820   -6.1930 hn        1 1ET      0.463133
     45 H18         6.4520   -1.2120   -8.0480 ha        1 1ET      0.144500
     46 H19         2.9290   -0.0960   -5.8050 ha        1 1ET      0.155000
     47 H20         3.9290    1.3000   -7.7790 hc        1 1ET      0.071950
     48 H21         5.0280    0.4200   -8.9140 hc        1 1ET      0.071950
     49 H22         3.2510   -1.3020   -9.3330 hc        1 1ET      0.075450
     50 H23         2.1530   -0.4670   -8.1540 hc        1 1ET      0.075450
     51 H24         2.6380    3.9840  -12.6870 hn        1 1ET      0.474967
     52 H25         3.3430    4.1780  -11.1780 hn        1 1ET      0.474967
     53 H26         0.8380    2.5260  -12.9460 ha        1 1ET      0.180500
     54 H27         0.7160   -0.8220  -10.1980 ha        1 1ET      0.179000
     55 H28        -1.3790    1.2060  -12.2940 hc        1 1ET      0.084033
     56 H29        -1.1010   -0.4950  -11.7220 hc        1 1ET      0.084033
     57 H30        -0.4550    0.0400  -13.3320 hc        1 1ET      0.084033
     58 H223        1.1280   -2.6020    2.0480 hn        1 1ET      0.474967
     59 H183        8.4880   -4.4920   -6.7670 hn        1 1ET      0.463133
     60 H023        4.1110    3.2600  -12.3460 hn        1 1ET      0.474967
@<TRIPOS>BOND
     1    1    2 1   
     2    1   29 1   
     3    1   30 1   
     4    1   58 1   
     5    2    3 ar  
     6    2    7 ar  
     7    3    4 ar  
     8    3   31 1   
     9    4    5 1   
    10    4    6 ar  
    11    5   32 1   
    12    5   33 1   
    13    5   34 1   
    14    6    8 ar  
    15    6   35 1   
    16    7    8 ar  
    17    8    9 1   
    18    9   10 1   
    19    9   36 1   
    20    9   37 1   
    21   10   11 1   
    22   10   38 1   
    23   10   39 1   
    24   11   12 ar  
    25   11   17 ar  
    26   12   13 ar  
    27   12   40 1   
    28   13   14 1   
    29   13   16 ar  
    30   14   15 1   
    31   14   41 1   
    32   14   42 1   
    33   15   43 1   
    34   15   44 1   
    35   15   59 1   
    36   16   18 ar  
    37   16   45 1   
    38   17   18 ar  
    39   17   46 1   
    40   18   19 1   
    41   19   20 1   
    42   19   47 1   
    43   19   48 1   
    44   20   21 1   
    45   20   49 1   
    46   20   50 1   
    47   21   22 ar  
    48   21   27 ar  
    49   22   23 ar  
    50   23   24 1   
    51   23   25 ar  
    52   24   51 1   
    53   24   52 1   
    54   24   60 1   
    55   25   26 ar  
    56   25   53 1   
    57   26   27 ar  
    58   26   28 1   
    59   27   54 1   
    60   28   55 1   
    61   28   56 1   
    62   28   57 1   
@<TRIPOS>SUBSTRUCTURE
     1 1ET         1 TEMP              0 ****  ****    0 ROOT
