@<TRIPOS>MOLECULE
1ET
   57    48     1     0     0
SMALL
bcc


@<TRIPOS>ATOM
      1 N22         4.5860    2.4030    6.0310 n3        1 1ET     -0.321000
      2 C22         4.5060    2.2490    4.6230 c1        1 1ET      0.110000
      3 C23         5.5940    2.5720    3.8280 c1        1 1ET     -0.237000
      4 C24         5.5330    2.3800    2.4770 c1        1 1ET      0.001000
      5 C27         6.6970    2.7930    1.6010 c3        1 1ET     -0.186000
      6 C25         4.3990    1.8710    1.9110 c1        1 1ET     -0.177500
      7 N21         3.3730    1.7410    4.0570 n1        1 1ET     -0.203500
      8 C26         3.3110    1.5490    2.7080 c1        1 1ET     -0.022500
      9 C28         2.0770    0.9140    2.0880 c2        1 1ET     -0.111000
     10 C29         1.2420    1.9840    1.4170 c3        1 1ET     -0.119000
     11 C15        -0.1360    1.4250    1.0980 c1        1 1ET     -0.075000
     12 C14        -1.2710    2.1310    1.4660 c1        1 1ET     -0.108000
     13 C13        -2.5260    1.6790    1.0800 c1        1 1ET     -0.088000
     14 C17        -3.7660    2.4520    1.4820 c3        1 1ET     -0.040000
     15 N18        -4.0480    3.4450    0.4970 n3        1 1ET     -0.349000
     16 C12        -2.6450    0.5220    0.3260 c1        1 1ET     -0.177500
     17 C16        -0.2550    0.2660    0.3440 c1        1 1ET     -0.125000
     18 C11        -1.5110   -0.1850   -0.0420 c1        1 1ET     -0.022500
     19 C09        -1.6440   -1.4800   -0.8260 c2        1 1ET     -0.119000
     20 C08        -2.3500   -1.2050   -2.1410 c3        1 1ET     -0.111000
     21 C06        -2.3090   -2.4510   -3.0090 c1        1 1ET      0.029000
     22 N01        -1.2100   -2.7120   -3.7720 n1        1 1ET     -0.203500
     23 C02        -1.2110   -3.7710   -4.6330 c1        1 1ET      0.110000
     24 N02        -0.0850   -4.0100   -5.4630 n3        1 1ET     -0.321000
     25 C03        -2.3290   -4.5820   -4.7320 c1        1 1ET     -0.236000
     26 C04        -3.4300   -4.3230   -3.9690 c1        1 1ET      0.001000
     27 C05        -3.4290   -3.2620   -3.1070 c2        1 1ET     -0.227000
     28 C07        -4.6410   -5.2290   -4.0530 c2        1 1ET     -0.186000
     29 H1          3.8450    2.2630    6.5500 hn        1 1ET      0.195250
     30 H2          5.3820    2.6250    6.4220 hn        1 1ET      0.195250
     31 H3          6.4040    2.9390    4.2330 ha        1 1ET      0.141000
     32 H4          6.3910    3.4440    0.9360 hc        1 1ET      0.088333
     33 H5          7.0570    2.0040    1.1440 hc        1 1ET      0.088333
     34 H6          7.3970    3.1960    2.1560 hc        1 1ET      0.088333
     35 H7          4.3540    1.7340    0.9470 ha        1 1ET      0.136000
     36 H8          1.5490    0.4770    2.7870 ha        1 1ET      0.097500
     37 H9          2.3520    0.2510    1.4240 ha        1 1ET      0.097500
     38 H10         1.1510    2.7510    2.0170 hc        1 1ET      0.099500
     39 H11         1.6780    2.2670    0.5900 hc        1 1ET      0.099500
     40 H12        -1.1870    2.9520    1.9880 ha        1 1ET      0.150000
     41 H13        -3.6140    2.8850    2.3500 h1        1 1ET      0.072500
     42 H14        -4.5240    1.8380    1.5520 h1        1 1ET      0.072500
     43 H15        -4.8150    3.2240    0.0530 hn        1 1ET      0.146500
     44 H16        -4.1550    4.2600    0.9060 hn        1 1ET      0.146500
     45 H18        -3.5270    0.2040    0.0550 ha        1 1ET      0.136000
     46 H19         0.5430   -0.2310    0.0850 ha        1 1ET      0.134000
     47 H20        -2.1640   -2.1250   -0.3060 ha        1 1ET      0.098500
     48 H21        -0.7550   -1.8470   -1.0040 ha        1 1ET      0.098500
     49 H22        -3.2800   -0.9600   -1.9660 hc        1 1ET      0.097000
     50 H23        -1.9010   -0.4690   -2.6050 hc        1 1ET      0.097000
     51 H24         0.5970   -3.4000   -5.4980 hn        1 1ET      0.195250
     52 H25        -0.0510   -4.7620   -5.9810 hn        1 1ET      0.195250
     53 H26        -2.3300   -5.3400   -5.3480 ha        1 1ET      0.141000
     54 H27        -4.2150   -3.0750   -2.5610 ha        1 1ET      0.142000
     55 H28        -4.4130   -6.0310   -4.5680 ha        1 1ET      0.088667
     56 H29        -5.3750   -4.7530   -4.4960 ha        1 1ET      0.088667
     57 H30        -4.9170   -5.4890   -3.1490 ha        1 1ET      0.088667
@<TRIPOS>BOND
     1    1    2 1   
     2    1   29 1   
     3    1   30 1   
     4    2    7 1   
     5    3    4 1   
     6    3   31 1   
     7    4    5 1   
     8    5   32 1   
     9    5   33 1   
    10    5   34 1   
    11    6    8 1   
    12    6   35 1   
    13    9   10 1   
    14    9   36 1   
    15    9   37 1   
    16   10   11 1   
    17   10   38 1   
    18   10   39 1   
    19   11   17 1   
    20   12   13 1   
    21   12   40 1   
    22   13   14 1   
    23   14   15 1   
    24   14   41 1   
    25   14   42 1   
    26   15   43 1   
    27   15   44 1   
    28   16   18 1   
    29   16   45 1   
    30   17   46 1   
    31   19   20 1   
    32   19   47 1   
    33   19   48 1   
    34   20   21 1   
    35   20   49 1   
    36   20   50 1   
    37   21   27 1   
    38   22   23 1   
    39   23   24 1   
    40   24   51 1   
    41   24   52 1   
    42   25   26 1   
    43   25   53 1   
    44   26   27 1   
    45   27   54 1   
    46   28   55 1   
    47   28   56 1   
    48   28   57 1   
@<TRIPOS>SUBSTRUCTURE
     1 1ET         1 TEMP              0 ****  ****    0 ROOT
