@<TRIPOS>MOLECULE
1ET
   58    60     1     0     0
SMALL
bcc


@<TRIPOS>ATOM
      1 N22         2.8750   -3.1260    1.3360 nv        1 1ET     -0.930000
      2 C22         2.9480   -1.8660    0.7280 ca        1 1ET      0.645700
      3 C23         2.2950   -0.7560    1.3510 ca        1 1ET     -0.296800
      4 C24         2.2830    0.4740    0.7010 ca        1 1ET      0.004700
      5 C27         1.6060    1.6450    1.3030 c3        1 1ET     -0.065300
      6 C25         2.9180    0.5890   -0.5450 ca        1 1ET     -0.293800
      7 N21         3.5830   -1.7490   -0.4800 nb        1 1ET     -0.746000
      8 C26         3.5470   -0.5420   -1.0920 ca        1 1ET      0.438100
      9 C28         4.2300   -0.4100   -2.4280 c3        1 1ET     -0.121200
     10 C29         3.4090   -1.0750   -3.5210 c3        1 1ET     -0.046100
     11 C15         4.1770   -1.1860   -4.7920 ca        1 1ET     -0.053300
     12 C14         5.2430   -2.0880   -4.8820 ca        1 1ET     -0.111000
     13 C13         5.9570   -2.2090   -6.0780 ca        1 1ET     -0.196300
     14 C17         7.1070   -3.1480   -6.1530 c3        1 1ET      0.178100
     15 N18         6.6260   -4.5530   -6.3860 nz        1 1ET     -0.845600
     16 C12         5.6140   -1.4320   -7.1900 ca        1 1ET     -0.111000
     17 C16         3.8410   -0.4080   -5.9050 ca        1 1ET     -0.082000
     18 C11         4.5540   -0.5240   -7.1060 ca        1 1ET     -0.053300
     19 C09         4.2060    0.3330   -8.2740 c3        1 1ET     -0.046100
     20 C08         2.8000    0.0600   -8.7770 c3        1 1ET     -0.121200
     21 C06         2.4810    0.7830  -10.0580 ca        1 1ET      0.438100
     22 N01         2.9770    2.0260  -10.2450 nb        1 1ET     -0.746000
     23 C02         2.6640    2.6670  -11.4160 ca        1 1ET      0.645700
     24 N02         3.2550    3.9050  -11.6880 nv        1 1ET     -0.930000
     25 C03         1.8110    2.0720  -12.3980 ca        1 1ET     -0.296800
     26 C04         1.3050    0.7960  -12.1710 ca        1 1ET      0.004700
     27 C05         1.6470    0.1320  -10.9850 ca        1 1ET     -0.293800
     28 C07         0.4080    0.1530  -13.1580 c3        1 1ET     -0.065300
     29 H1          3.5170   -3.8140    1.0130 hn        1 1ET      0.409300
     30 H2          2.7690   -3.0950    2.3250 hn        1 1ET      0.409300
     31 H3          1.8010   -0.8760    2.3250 ha        1 1ET      0.149000
     32 H4          1.4420    1.5000    2.3990 hc        1 1ET      0.054700
     33 H5          0.6090    1.7970    0.8150 hc        1 1ET      0.054700
     34 H6          2.2130    2.5720    1.1530 hc        1 1ET      0.054700
     35 H7          2.9260    1.5480   -1.0780 ha        1 1ET      0.141500
     36 H8          4.3670    0.6770   -2.6650 hc        1 1ET      0.054700
     37 H9          5.2510   -0.8760   -2.3830 hc        1 1ET      0.054700
     38 H10         3.1040   -2.1060   -3.1890 hc        1 1ET      0.073700
     39 H11         2.4670   -0.4880   -3.6870 hc        1 1ET      0.073700
     40 H12         5.5220   -2.6820   -3.9980 ha        1 1ET      0.140500
     41 H13         7.6910   -3.1500   -5.1860 hx        1 1ET      0.111200
     42 H14         7.8010   -2.8810   -7.0020 hx        1 1ET      0.111200
     43 H15         7.4130   -5.2050   -6.4030 hn        1 1ET      0.456467
     44 H16         6.1240   -4.6040   -7.2790 hn        1 1ET      0.456467
     45 H18         6.1870   -1.5160   -8.1260 ha        1 1ET      0.140500
     46 H19         3.0080    0.3120   -5.8390 ha        1 1ET      0.161000
     47 H20         4.9380    0.1680   -9.1090 hc        1 1ET      0.073700
     48 H21         4.2960    1.4120   -7.9680 hc        1 1ET      0.073700
     49 H22         2.6680   -1.0410   -8.9450 hc        1 1ET      0.054700
     50 H23         2.0530    0.3760   -7.9990 hc        1 1ET      0.054700
     51 H24         2.7320    4.4850  -12.3030 hn        1 1ET      0.409300
     52 H25         3.6700    4.3820  -10.9190 hn        1 1ET      0.409300
     53 H26         1.5670    2.6110  -13.3240 ha        1 1ET      0.149000
     54 H27         1.2640   -0.8760  -10.7820 ha        1 1ET      0.141500
     55 H28         0.5950    0.5450  -14.1880 hc        1 1ET      0.054700
     56 H29         0.5560   -0.9550  -13.1680 hc        1 1ET      0.054700
     57 H30        -0.6590    0.3620  -12.8910 hc        1 1ET      0.054700
     58 H183        5.9770   -4.8210   -5.6380 hn        1 1ET      0.456467
@<TRIPOS>BOND
     1    1    2 1   
     2    1   29 1   
     3    1   30 1   
     4    2    3 ar  
     5    2    7 ar  
     6    3    4 ar  
     7    3   31 1   
     8    4    5 1   
     9    4    6 ar  
    10    5   32 1   
    11    5   33 1   
    12    5   34 1   
    13    6    8 ar  
    14    6   35 1   
    15    7    8 ar  
    16    8    9 1   
    17    9   10 1   
    18    9   36 1   
    19    9   37 1   
    20   10   11 1   
    21   10   38 1   
    22   10   39 1   
    23   11   12 ar  
    24   11   17 ar  
    25   12   13 ar  
    26   12   40 1   
    27   13   14 1   
    28   13   16 ar  
    29   14   15 1   
    30   14   41 1   
    31   14   42 1   
    32   15   43 1   
    33   15   44 1   
    34   15   58 1   
    35   16   18 ar  
    36   16   45 1   
    37   17   18 ar  
    38   17   46 1   
    39   18   19 1   
    40   19   20 1   
    41   19   47 1   
    42   19   48 1   
    43   20   21 1   
    44   20   49 1   
    45   20   50 1   
    46   21   22 ar  
    47   21   27 ar  
    48   22   23 ar  
    49   23   24 1   
    50   23   25 ar  
    51   24   51 1   
    52   24   52 1   
    53   25   26 ar  
    54   25   53 1   
    55   26   27 ar  
    56   26   28 1   
    57   27   54 1   
    58   28   55 1   
    59   28   56 1   
    60   28   57 1   
@<TRIPOS>SUBSTRUCTURE
     1 1ET         1 TEMP              0 ****  ****    0 ROOT
