@<TRIPOS>MOLECULE
1EU
   41    43     1     0     0
SMALL
bcc


@<TRIPOS>ATOM
      1 C1          7.8050   -0.8500   -0.7250 c3        1 1EU     -0.109100
      2 C2          6.3860   -1.3150   -0.4470 c3        1 1EU      0.089000
      3 N3          5.4850   -0.2240   -0.1490 n         1 1EU     -0.549900
      4 C4          4.1240   -0.5110   -0.0220 c         1 1EU      0.768100
      5 O5          3.6640   -1.6230   -0.3780 o         1 1EU     -0.637100
      6 N6          3.2820    0.4960    0.5150 n         1 1EU     -0.461400
      7 C7          1.8820    0.4430    0.3860 cc        1 1EU      0.486400
      8 N8          1.1450   -0.7700    0.3440 na        1 1EU     -0.258300
      9 C9         -0.2020   -0.3980    0.2580 ca        1 1EU     -0.092200
     10 C10        -1.3650   -1.1630    0.1720 ca        1 1EU     -0.089000
     11 C11        -2.5870   -0.4860    0.1560 cp        1 1EU     -0.043000
     12 C12        -2.6290    0.9220    0.2290 ca        1 1EU     -0.078000
     13 C13        -1.4800    1.7070    0.2990 ca        1 1EU     -0.129600
     14 C14        -1.6250    3.1790    0.3640 c         1 1EU      0.587700
     15 O15        -2.6270    3.6940    0.8800 o         1 1EU     -0.542100
     16 C16        -0.5460    4.0150   -0.2410 c3        1 1EU     -0.188100
     17 C17        -0.2330    1.0560    0.3140 ca        1 1EU      0.126400
     18 N18         1.0750    1.5550    0.3890 nd        1 1EU     -0.622100
     19 C20        -3.8320   -1.2400    0.0670 cp        1 1EU     -0.150300
     20 C21        -4.0110   -2.4440    0.7640 ca        1 1EU     -0.086000
     21 C22        -5.2210   -3.1270    0.6430 ca        1 1EU     -0.246300
     22 C23        -6.2230   -2.5800   -0.1790 ca        1 1EU      0.394200
     23 N24        -6.0750   -1.4260   -0.8580 nb        1 1EU     -0.662000
     24 C25        -4.9040   -0.7760   -0.7320 ca        1 1EU      0.407200
     25 H1          8.2460   -0.3330    0.1610 hc        1 1EU      0.047700
     26 H1A         8.4290   -1.7460   -0.9600 hc        1 1EU      0.047700
     27 H1B         7.8410   -0.1530   -1.5980 hc        1 1EU      0.047700
     28 H2          5.9790   -1.8590   -1.3480 h1        1 1EU      0.057700
     29 H2A         6.3970   -2.0500    0.4100 h1        1 1EU      0.057700
     30 HN3         5.8720    0.5480    0.3410 hn        1 1EU      0.307500
     31 HN6         3.6460    1.4190    0.6320 hn        1 1EU      0.340500
     32 H10        -1.3240   -2.2590    0.1160 ha        1 1EU      0.144000
     33 H12        -3.6100    1.4290    0.2460 ha        1 1EU      0.158000
     34 H16        -0.1470    3.5380   -1.1670 hc        1 1EU      0.068367
     35 H16A       -0.9400    5.0310   -0.4890 hc        1 1EU      0.068367
     36 H16B        0.2900    4.1280    0.4940 hc        1 1EU      0.068367
     37 H21        -3.2080   -2.8380    1.4050 ha        1 1EU      0.140000
     38 H22        -5.3940   -4.0690    1.1780 ha        1 1EU      0.144000
     39 H23        -7.1960   -3.0880   -0.3020 h4        1 1EU      0.023100
     40 H25        -4.8120    0.1660   -1.3020 h4        1 1EU      0.028100
     41 HN8         1.5300   -1.6610    0.1350 hn        1 1EU      0.336700
@<TRIPOS>BOND
     1    1    2 1   
     2    1   25 1   
     3    1   26 1   
     4    1   27 1   
     5    2    3 1   
     6    2   28 1   
     7    2   29 1   
     8    3    4 1   
     9    3   30 1   
    10    4    5 2   
    11    4    6 1   
    12    6    7 1   
    13    6   31 1   
    14    7    8 1   
    15    7   18 2   
    16    8    9 1   
    17    8   41 1   
    18    9   10 ar  
    19    9   17 ar  
    20   10   11 ar  
    21   10   32 1   
    22   11   12 ar  
    23   11   19 1   
    24   12   13 ar  
    25   12   33 1   
    26   13   14 1   
    27   13   17 ar  
    28   14   15 2   
    29   14   16 1   
    30   16   34 1   
    31   16   35 1   
    32   16   36 1   
    33   17   18 1   
    34   19   20 ar  
    35   19   24 ar  
    36   20   21 ar  
    37   20   37 1   
    38   21   22 ar  
    39   21   38 1   
    40   22   23 ar  
    41   22   39 1   
    42   23   24 ar  
    43   24   40 1   
@<TRIPOS>SUBSTRUCTURE
     1 1EU         1 TEMP              0 ****  ****    0 ROOT
