@<TRIPOS>MOLECULE
1EU
   42    44     1     0     0
SMALL
bcc


@<TRIPOS>ATOM
      1 C1          2.1030    0.7920    3.6900 c3        1 1EU     -0.144100
      2 C2          2.3870    0.8240    2.2030 c3        1 1EU      0.126800
      3 N3          2.6790   -0.5460    1.6650 n4        1 1EU     -0.650800
      4 C4          3.0740   -0.4900    0.2110 c         1 1EU      0.656100
      5 O5          2.1540   -0.6340   -0.6040 o         1 1EU     -0.483100
      6 N6          4.3810   -0.2580   -0.1740 n         1 1EU     -0.431400
      7 C7          5.4840   -0.2430    0.7070 cc        1 1EU      0.432400
      8 N8          6.7930    0.1200    0.3070 na        1 1EU     -0.255300
      9 C9          7.5800    0.0480    1.4680 ca        1 1EU     -0.066200
     10 C10         8.9370    0.2980    1.6960 ca        1 1EU     -0.093000
     11 C11         9.4070    0.1560    3.0010 cp        1 1EU      0.009000
     12 C12         8.5410   -0.2260    4.0550 ca        1 1EU     -0.078000
     13 C13         7.1900   -0.4820    3.8570 ca        1 1EU     -0.119600
     14 C14         6.2820   -0.8550    4.9680 c         1 1EU      0.599700
     15 O15         5.0600   -0.6640    4.8990 o         1 1EU     -0.556100
     16 C16         6.9150   -1.4700    6.1730 c3        1 1EU     -0.203100
     17 C17         6.6950   -0.3550    2.5430 ca        1 1EU      0.125400
     18 N18         5.4070   -0.5460    2.0370 nd        1 1EU     -0.639100
     19 C20        10.8120    0.4110    3.2960 cp        1 1EU     -0.193300
     20 C21        11.8330   -0.0320    2.4400 ca        1 1EU     -0.074000
     21 C22        13.1600    0.2350    2.7720 ca        1 1EU     -0.239300
     22 C23        13.4280    0.9460    3.9570 ca        1 1EU      0.418200
     23 N24        12.4640    1.3840    4.7900 nb        1 1EU     -0.651000
     24 C25        11.1890    1.1190    4.4610 ca        1 1EU      0.416200
     25 H1          1.9170    1.8440    4.0260 hc        1 1EU      0.088367
     26 H1A         1.1960    0.1840    3.9250 hc        1 1EU      0.088367
     27 H1B         2.9760    0.3900    4.2690 hc        1 1EU      0.088367
     28 H2          1.5050    1.2320    1.6310 hx        1 1EU      0.104700
     29 H2A         3.2900    1.4680    2.0010 hx        1 1EU      0.104700
     30 HN3         3.4260   -0.9770    2.2520 hn        1 1EU      0.491300
     31 HN6         4.5520   -0.2670   -1.1630 hn        1 1EU      0.386500
     32 H10         9.6100    0.6070    0.8820 ha        1 1EU      0.162000
     33 H12         8.9680   -0.3230    5.0690 ha        1 1EU      0.161000
     34 H16         6.1360   -1.9390    6.8240 hc        1 1EU      0.078367
     35 H16A        7.6580   -2.2480    5.8730 hc        1 1EU      0.078367
     36 H16B        7.4400   -0.6780    6.7650 hc        1 1EU      0.078367
     37 H21        11.5890   -0.5930    1.5260 ha        1 1EU      0.140000
     38 H22        13.9840   -0.1010    2.1270 ha        1 1EU      0.158000
     39 H23        14.4670    1.1790    4.2590 h4        1 1EU      0.039100
     40 H25        10.4240    1.5020    5.1610 h4        1 1EU      0.025100
     41 HN8         7.1010    0.3620   -0.5990 hn        1 1EU      0.330700
     42 H32         1.8300   -1.1240    1.7250 hn        1 1EU      0.491300
@<TRIPOS>BOND
     1    1    2 1   
     2    1   25 1   
     3    1   26 1   
     4    1   27 1   
     5    2    3 1   
     6    2   28 1   
     7    2   29 1   
     8    3    4 1   
     9    3   30 1   
    10    3   42 1   
    11    4    5 2   
    12    4    6 1   
    13    6    7 1   
    14    6   31 1   
    15    7    8 1   
    16    7   18 2   
    17    8    9 1   
    18    8   41 1   
    19    9   10 ar  
    20    9   17 ar  
    21   10   11 ar  
    22   10   32 1   
    23   11   12 ar  
    24   11   19 1   
    25   12   13 ar  
    26   12   33 1   
    27   13   14 1   
    28   13   17 ar  
    29   14   15 2   
    30   14   16 1   
    31   16   34 1   
    32   16   35 1   
    33   16   36 1   
    34   17   18 1   
    35   19   20 ar  
    36   19   24 ar  
    37   20   21 ar  
    38   20   37 1   
    39   21   22 ar  
    40   21   38 1   
    41   22   23 ar  
    42   22   39 1   
    43   23   24 ar  
    44   24   40 1   
@<TRIPOS>SUBSTRUCTURE
     1 1EU         1 TEMP              0 ****  ****    0 ROOT
