@<TRIPOS>MOLECULE
1EU
   42    44     1     0     0
SMALL
bcc


@<TRIPOS>ATOM
      1 C1         -0.2690    0.2550    0.6570 c3        1 1EU     -0.140100
      2 C2          1.1940    0.5350    0.9240 c3        1 1EU      0.110800
      3 N3          1.9880   -0.7170    1.1260 ny        1 1EU     -0.672800
      4 C4          3.4930   -0.4460    1.2260 c         1 1EU      0.631100
      5 O5          4.1380   -0.8590    0.2580 o         1 1EU     -0.476100
      6 N6          3.9450    0.3170    2.2820 ns        1 1EU     -0.374400
      7 C7          5.3090    0.1820    2.6760 cc        1 1EU      0.359400
      8 N8          6.3930    0.2990    1.7660 na        1 1EU     -0.244300
      9 C9          7.5440    0.1400    2.5420 ca        1 1EU     -0.050200
     10 C10         8.9050    0.1490    2.2050 ca        1 1EU     -0.115000
     11 C11         9.8250   -0.0140    3.2370 cp        1 1EU      0.022000
     12 C12         9.3960   -0.1900    4.5790 ca        1 1EU     -0.099000
     13 C13         8.0580   -0.2120    4.9350 ca        1 1EU     -0.090600
     14 C14         7.6240   -0.4350    6.3380 c         1 1EU      0.579700
     15 O15         6.7110   -1.2170    6.6140 o         1 1EU     -0.499100
     16 C16         8.3630    0.3440    7.3770 c3        1 1EU     -0.199100
     17 C17         7.1000   -0.0390    3.9130 ca        1 1EU      0.090400
     18 N18         5.7020   -0.0130    3.9710 nd        1 1EU     -0.504100
     19 C20        11.2530   -0.0050    2.9460 cp        1 1EU     -0.188300
     20 C21        11.7770   -0.6550    1.8170 ca        1 1EU     -0.075000
     21 C22        13.1510   -0.6170    1.5890 ca        1 1EU     -0.242300
     22 C23        13.9670    0.0790    2.5010 ca        1 1EU      0.415200
     23 N24        13.4860    0.7130    3.5880 nb        1 1EU     -0.653000
     24 C25        12.1600    0.6670    3.8000 ca        1 1EU      0.417200
     25 H1         -0.7880    1.2390    0.5160 hc        1 1EU      0.085033
     26 H1A        -0.7550   -0.2740    1.5120 hc        1 1EU      0.085033
     27 H1B        -0.4130   -0.3470   -0.2740 hc        1 1EU      0.085033
     28 H2          1.3020    1.1710    1.8500 hx        1 1EU      0.110200
     29 H2A         1.6520    1.0870    0.0510 hx        1 1EU      0.110200
     30 HN3         1.8530   -1.3370    0.3120 hn        1 1EU      0.468300
     31 HN6         3.3270    0.5490    3.0400 hn        1 1EU      0.364500
     32 H10         9.2360    0.2900    1.1660 ha        1 1EU      0.157000
     33 H12        10.1660   -0.3290    5.3580 ha        1 1EU      0.158000
     34 H16         9.3920   -0.0770    7.5000 hc        1 1EU      0.073367
     35 H16A        8.4470    1.4150    7.0740 hc        1 1EU      0.073367
     36 H16B        7.8330    0.2810    8.3600 hc        1 1EU      0.073367
     37 H21        11.1110   -1.1970    1.1300 ha        1 1EU      0.139000
     38 H22        13.5940   -1.1200    0.7190 ha        1 1EU      0.155000
     39 H23        15.0620    0.1330    2.3580 h4        1 1EU      0.036100
     40 H25        11.7980    1.2050    4.6950 h4        1 1EU      0.026100
     41 HN8         6.3360    0.3080    0.7800 hn        1 1EU      0.327700
     42 H32         1.6590   -1.2100    1.9620 hn        1 1EU      0.468300
@<TRIPOS>BOND
     1    1    2 1   
     2    1   25 1   
     3    1   26 1   
     4    1   27 1   
     5    2    3 1   
     6    2   28 1   
     7    2   29 1   
     8    3    4 1   
     9    3   30 1   
    10    3   42 1   
    11    4    5 2   
    12    4    6 1   
    13    6    7 1   
    14    6   31 1   
    15    7    8 1   
    16    7   18 2   
    17    8    9 1   
    18    8   41 1   
    19    9   10 ar  
    20    9   17 ar  
    21   10   11 ar  
    22   10   32 1   
    23   11   12 ar  
    24   11   19 1   
    25   12   13 ar  
    26   12   33 1   
    27   13   14 1   
    28   13   17 ar  
    29   14   15 2   
    30   14   16 1   
    31   16   34 1   
    32   16   35 1   
    33   16   36 1   
    34   17   18 1   
    35   19   20 ar  
    36   19   24 ar  
    37   20   21 ar  
    38   20   37 1   
    39   21   22 ar  
    40   21   38 1   
    41   22   23 ar  
    42   22   39 1   
    43   23   24 ar  
    44   24   40 1   
@<TRIPOS>SUBSTRUCTURE
     1 1EU         1 TEMP              0 ****  ****    0 ROOT
