@<TRIPOS>MOLECULE
1EU
   41    34     1     0     0
SMALL
bcc


@<TRIPOS>ATOM
      1 C1         -4.6030    1.8080   -4.7910 c3        1 1EU     -0.254000
      2 C2         -3.0740    1.8110   -4.9180 c3        1 1EU     -0.043000
      3 N3         -2.5110    0.8960   -3.9600 n         1 1EU     -0.345000
      4 C4         -1.6840    1.3910   -2.8920 c2        1 1EU      0.391000
      5 O5         -2.0890    2.2900   -2.1760 o         1 1EU     -0.400000
      6 N6         -0.4380    0.7500   -2.5980 n         1 1EU     -0.297000
      7 C7          0.3310    1.1660   -1.4630 c2        1 1EU      0.154000
      8 N8          0.2220   -0.1360   -1.0660 n2        1 1EU     -0.216000
      9 C9          0.8400   -0.2620    0.1350 c1        1 1EU     -0.047000
     10 C10         0.9920   -1.3610    1.0100 c1        1 1EU     -0.088000
     11 C11         1.6450   -1.1970    2.2280 c1        1 1EU     -0.064000
     12 C12         2.1460    0.0480    2.5840 c1        1 1EU     -0.071000
     13 C13         1.9960    1.1310    1.7230 c1        1 1EU     -0.110000
     14 C14         2.7090    2.2270    2.5010 c2        1 1EU      0.280000
     15 O15         3.2070    1.9790    3.5820 o         1 1EU     -0.307000
     16 C16         2.8000    3.6310    1.9260 c3        1 1EU     -0.256000
     17 C17         1.3330    0.9640    0.4860 c1        1 1EU     -0.013000
     18 N18         1.0170    1.8430   -0.5030 n1        1 1EU     -0.196000
     19 C20         1.1100   -2.3920    2.7750 c1        1 1EU     -0.064000
     20 C21         1.8580   -3.5420    2.7700 c1        1 1EU     -0.130500
     21 C22         1.3080   -4.7180    3.2080 c1        1 1EU     -0.130500
     22 C23        -0.0090   -4.7450    3.6580 c1        1 1EU     -0.072000
     23 N24        -0.7540   -3.5980    3.6620 n1        1 1EU     -0.138000
     24 C25        -0.2050   -2.4210    3.2250 c1        1 1EU     -0.071000
     25 H1         -4.9060    0.9190   -4.4940 hc        1 1EU      0.089333
     26 H1A        -5.0040    2.0150   -5.6620 hc        1 1EU      0.089333
     27 H1B        -4.8790    2.4830   -4.1340 hc        1 1EU      0.089333
     28 H2         -2.8190    1.5320   -5.8270 h1        1 1EU      0.098000
     29 H2A        -2.7330    2.7170   -4.7450 h1        1 1EU      0.098000
     30 HN3        -2.6900    0.0020   -4.0220 hn        1 1EU      0.240000
     31 HN6        -0.1120    0.1000   -3.1610 hn        1 1EU      0.258000
     32 H10         0.6390   -2.2390    0.7590 ha        1 1EU      0.147000
     33 H12         2.6070    0.1640    3.4440 ha        1 1EU      0.158000
     34 H16         1.9000    3.9500    1.6960 hc        1 1EU      0.107667
     35 H16A        3.2010    4.2330    2.5940 hc        1 1EU      0.107667
     36 H16B        3.3630    3.6180    1.1140 hc        1 1EU      0.107667
     37 H21         2.7870   -3.5230    2.4530 ha        1 1EU      0.147000
     38 H22         1.8430   -5.5410    3.2050 ha        1 1EU      0.147000
     39 H23        -0.4040   -5.5880    3.9720 ha        1 1EU      0.160000
     40 H25        -0.7390   -1.6000    3.2280 ha        1 1EU      0.158000
     41 HN8        -0.2020   -0.8050   -1.5270 DU        1 1EU      0.289000
@<TRIPOS>BOND
     1    1    2 1   
     2    1   25 1   
     3    1   26 1   
     4    1   27 1   
     5    2    3 1   
     6    2   28 1   
     7    2   29 1   
     8    3    4 1   
     9    3   30 1   
    10    4    5 1   
    11    4    6 1   
    12    6    7 1   
    13    6   31 1   
    14    7    8 1   
    15    7   18 1   
    16    8    9 1   
    17    9   10 1   
    18   10   32 1   
    19   11   12 1   
    20   12   33 1   
    21   13   14 1   
    22   13   17 1   
    23   14   15 1   
    24   14   16 1   
    25   16   34 1   
    26   16   35 1   
    27   16   36 1   
    28   19   24 1   
    29   20   21 1   
    30   20   37 1   
    31   21   38 1   
    32   22   23 1   
    33   22   39 1   
    34   24   40 1   
@<TRIPOS>SUBSTRUCTURE
     1 1EU         1 TEMP              0 ****  ****    0 ROOT
