@<TRIPOS>MOLECULE
1EU
   43    45     1     0     0
SMALL
bcc


@<TRIPOS>ATOM
      1 C1          1.7940   -1.5950    3.2120 c3        1 1EU     -0.155100
      2 C2          1.9980   -0.8710    1.9020 c3        1 1EU      0.137800
      3 N3          2.7700    0.4190    2.1350 n4        1 1EU     -0.657800
      4 C4          3.1420    1.0770    0.8650 c         1 1EU      0.514100
      5 O5          2.6340    0.8150   -0.2120 o         1 1EU     -0.300100
      6 N6          4.2300    2.1480    0.8670 n4        1 1EU     -0.547800
      7 C7          5.4580    1.6690    1.4950 cc        1 1EU      0.299700
      8 N8          6.7820    1.9110    1.0520 na        1 1EU     -0.189300
      9 C9          7.5980    1.2030    1.9370 ca        1 1EU     -0.000200
     10 C10         8.9940    1.0790    2.0420 ca        1 1EU     -0.136000
     11 C11         9.4950    0.2440    3.0370 cp        1 1EU      0.095000
     12 C12         8.6170   -0.4810    3.9120 ca        1 1EU     -0.058000
     13 C13         7.2460   -0.3840    3.8420 ca        1 1EU     -0.111600
     14 C14         6.3140   -1.1720    4.6950 c         1 1EU      0.615700
     15 O15         5.1150   -1.2680    4.3880 o         1 1EU     -0.582100
     16 C16         6.8870   -1.8280    5.9020 c3        1 1EU     -0.206100
     17 C17         6.7120    0.4960    2.8590 ca        1 1EU      0.110400
     18 N18         5.4080    0.8150    2.5680 nd        1 1EU     -0.561100
     19 C20        10.9280    0.0860    3.2040 cp        1 1EU     -0.243300
     20 C21        11.8040    0.0720    2.1020 ca        1 1EU     -0.056000
     21 C22        13.1690   -0.0840    2.3210 ca        1 1EU     -0.236300
     22 C23        13.6300   -0.2180    3.6480 ca        1 1EU      0.453200
     23 N24        12.8100   -0.2000    4.7170 nb        1 1EU     -0.641000
     24 C25        11.4950   -0.0530    4.4960 ca        1 1EU      0.439200
     25 H1          1.2870   -2.5700    2.9720 hc        1 1EU      0.107700
     26 H1A         2.7640   -1.8300    3.7260 hc        1 1EU      0.107700
     27 H1B         1.1330   -1.0270    3.9110 hc        1 1EU      0.107700
     28 H2          2.6040   -1.4980    1.1860 hx        1 1EU      0.121700
     29 H2A         1.0150   -0.6000    1.4190 hx        1 1EU      0.121700
     30 HN3         3.6480    0.1750    2.7030 hn        1 1EU      0.522300
     31 HN6         3.9000    2.9820    1.3850 hn        1 1EU      0.505300
     32 H10         9.6700    1.6280    1.3670 ha        1 1EU      0.183000
     33 H12         9.0820   -1.1580    4.6540 ha        1 1EU      0.184000
     34 H16         6.0700   -2.2410    6.5470 hc        1 1EU      0.092033
     35 H16A        7.5530   -2.6740    5.5930 hc        1 1EU      0.092033
     36 H16B        7.4850   -1.0970    6.5000 hc        1 1EU      0.092033
     37 H21        11.4140    0.1650    1.0770 ha        1 1EU      0.141000
     38 H22        13.8800   -0.1060    1.4830 ha        1 1EU      0.173000
     39 H23        14.7090   -0.3470    3.8690 h4        1 1EU      0.057100
     40 H25        10.8630   -0.0240    5.4030 h4        1 1EU      0.027100
     41 HN8         7.0780    2.5850    0.3880 hn        1 1EU      0.348700
     42 H32         2.1950    1.0620    2.6990 hn        1 1EU      0.522300
     43 H62         4.4040    2.4110   -0.1230 hn        1 1EU      0.505300
@<TRIPOS>BOND
     1    1    2 1   
     2    1   25 1   
     3    1   26 1   
     4    1   27 1   
     5    2    3 1   
     6    2   28 1   
     7    2   29 1   
     8    3    4 1   
     9    3   30 1   
    10    3   42 1   
    11    4    5 2   
    12    4    6 1   
    13    6    7 1   
    14    6   31 1   
    15    6   43 1   
    16    7    8 1   
    17    7   18 2   
    18    8    9 1   
    19    8   41 1   
    20    9   10 ar  
    21    9   17 ar  
    22   10   11 ar  
    23   10   32 1   
    24   11   12 ar  
    25   11   19 1   
    26   12   13 ar  
    27   12   33 1   
    28   13   14 1   
    29   13   17 ar  
    30   14   15 2   
    31   14   16 1   
    32   16   34 1   
    33   16   35 1   
    34   16   36 1   
    35   17   18 1   
    36   19   20 ar  
    37   19   24 ar  
    38   20   21 ar  
    39   20   37 1   
    40   21   22 ar  
    41   21   38 1   
    42   22   23 ar  
    43   22   39 1   
    44   23   24 ar  
    45   24   40 1   
@<TRIPOS>SUBSTRUCTURE
     1 1EU         1 TEMP              0 ****  ****    0 ROOT
