@<TRIPOS>MOLECULE
1EV
   53    55     1     0     0
SMALL
bcc


@<TRIPOS>ATOM
      1 N10         0.0020    5.6980    0.0040 n1        1 1EV     -0.368800
      2 C10         0.0020    4.5340    0.0030 cg        1 1EV      0.235800
      3 C11         0.0010    3.1120    0.0020 ca        1 1EV     -0.016000
      4 C16        -1.1850    2.4160   -0.2620 ca        1 1EV     -0.094000
      5 C12         1.1870    2.4140    0.2660 ca        1 1EV     -0.094000
      6 C13         1.1880    1.0160    0.2630 ca        1 1EV     -0.081300
      7 C09         2.4470    0.2740    0.5510 c3        1 1EV     -0.035100
      8 C08         3.4130    0.3560   -0.6180 c3        1 1EV     -0.125700
      9 C06         4.6650   -0.4400   -0.3620 ca        1 1EV      0.449600
     10 N01         5.4570   -0.0740    0.6690 nb        1 1EV     -0.731000
     11 C02         6.5940   -0.8050    0.8920 ca        1 1EV      0.633200
     12 N02         7.3770   -0.5170    2.0230 nh        1 1EV     -0.923500
     13 C03         6.9680   -1.8980    0.0520 ca        1 1EV     -0.300300
     14 C04         6.1360   -2.2490   -1.0080 ca        1 1EV     -0.005300
     15 C05         4.9630   -1.5140   -1.2230 ca        1 1EV     -0.292300
     16 C07         6.4760   -3.3880   -1.8920 c3        1 1EV     -0.061800
     17 C14        -0.0000    0.3250    0.0000 ca        1 1EV     -0.105000
     18 C15        -1.1870    1.0170   -0.2610 ca        1 1EV     -0.081300
     19 C29        -2.4470    0.2770   -0.5500 c3        1 1EV     -0.035100
     20 C28        -3.4130    0.3580    0.6190 c3        1 1EV     -0.125700
     21 C26        -4.6660   -0.4360    0.3620 ca        1 1EV      0.449600
     22 N21        -5.4580   -0.0680   -0.6690 nb        1 1EV     -0.731000
     23 C22        -6.5950   -0.7980   -0.8930 ca        1 1EV      0.633200
     24 N22        -7.3780   -0.5080   -2.0230 nh        1 1EV     -0.923500
     25 C23        -6.9700   -1.8920   -0.0550 ca        1 1EV     -0.300300
     26 C24        -6.1390   -2.2440    1.0060 ca        1 1EV     -0.005300
     27 C27        -6.4800   -3.3850    1.8870 c3        1 1EV     -0.061800
     28 C25        -4.9650   -1.5110    1.2210 ca        1 1EV     -0.292300
     29 H1         -2.1160    2.9660   -0.4710 ha        1 1EV      0.147000
     30 H2          2.1180    2.9630    0.4750 ha        1 1EV      0.147000
     31 H3          2.9290    0.7060    1.4700 hc        1 1EV      0.063700
     32 H4          2.2180   -0.8030    0.7700 hc        1 1EV      0.063700
     33 H5          2.9170   -0.0320   -1.5460 hc        1 1EV      0.058200
     34 H6          3.6840    1.4310   -0.8040 hc        1 1EV      0.058200
     35 H7          7.1920    0.3550    2.4680 hn        1 1EV      0.401300
     36 H8          8.3460   -0.7040    1.8930 hn        1 1EV      0.401300
     37 H9          7.8910   -2.4600    0.2460 ha        1 1EV      0.142000
     38 H10         4.2900   -1.7690   -2.0510 ha        1 1EV      0.142000
     39 H11         5.8950   -4.2930   -1.5810 hc        1 1EV      0.049700
     40 H12         6.2170   -3.1550   -2.9540 hc        1 1EV      0.049700
     41 H13         7.5650   -3.6330   -1.8360 hc        1 1EV      0.049700
     42 H14        -0.0010   -0.7760   -0.0000 ha        1 1EV      0.138000
     43 H15        -2.9290    0.7100   -1.4680 hc        1 1EV      0.063700
     44 H16        -2.2190   -0.8000   -0.7710 hc        1 1EV      0.063700
     45 H17        -2.9170   -0.0310    1.5460 hc        1 1EV      0.058200
     46 H18        -3.6830    1.4330    0.8060 hc        1 1EV      0.058200
     47 H19        -7.1920    0.3650   -2.4670 hn        1 1EV      0.401300
     48 H20        -8.3470   -0.6940   -1.8940 hn        1 1EV      0.401300
     49 H21        -7.8940   -2.4530   -0.2490 ha        1 1EV      0.142000
     50 H22        -5.9000   -4.2900    1.5750 hc        1 1EV      0.049700
     51 H23        -6.2210   -3.1530    2.9500 hc        1 1EV      0.049700
     52 H24        -7.5690   -3.6280    1.8310 hc        1 1EV      0.049700
     53 H25        -4.2920   -1.7680    2.0490 ha        1 1EV      0.142000
@<TRIPOS>BOND
     1    1    2 3   
     2    2    3 1   
     3    3    4 ar  
     4    3    5 ar  
     5    4   18 ar  
     6    4   29 1   
     7    5    6 ar  
     8    5   30 1   
     9    6    7 1   
    10    6   17 ar  
    11    7    8 1   
    12    7   31 1   
    13    7   32 1   
    14    8    9 1   
    15    8   33 1   
    16    8   34 1   
    17    9   10 ar  
    18    9   15 ar  
    19   10   11 ar  
    20   11   12 1   
    21   11   13 ar  
    22   12   35 1   
    23   12   36 1   
    24   13   14 ar  
    25   13   37 1   
    26   14   15 ar  
    27   14   16 1   
    28   15   38 1   
    29   16   39 1   
    30   16   40 1   
    31   16   41 1   
    32   17   18 ar  
    33   17   42 1   
    34   18   19 1   
    35   19   20 1   
    36   19   43 1   
    37   19   44 1   
    38   20   21 1   
    39   20   45 1   
    40   20   46 1   
    41   21   22 ar  
    42   21   28 ar  
    43   22   23 ar  
    44   23   24 1   
    45   23   25 ar  
    46   24   47 1   
    47   24   48 1   
    48   25   26 ar  
    49   25   49 1   
    50   26   27 1   
    51   26   28 ar  
    52   27   50 1   
    53   27   51 1   
    54   27   52 1   
    55   28   53 1   
@<TRIPOS>SUBSTRUCTURE
     1 1EV         1 TEMP              0 ****  ****    0 ROOT
