@<TRIPOS>MOLECULE
1EV
   53    43     1     0     0
SMALL
bcc


@<TRIPOS>ATOM
      1 N10        -2.6360    0.2670   -4.5710 n1        1 1EV     -0.042000
      2 C10        -2.0690    0.2430   -3.5810 c1        1 1EV     -0.094000
      3 C11        -1.3190    0.2120   -2.2710 c1        1 1EV      0.007250
      4 C16         0.0660    0.2720   -2.2640 c1        1 1EV     -0.092000
      5 C12        -2.0170    0.1670   -1.0740 c1        1 1EV     -0.166000
      6 C13        -1.3300    0.1840    0.1300 c1        1 1EV      0.007250
      7 C09        -2.0940    0.1690    1.4380 c2        1 1EV     -0.121000
      8 C08        -3.5680   -0.0420    1.1590 c3        1 1EV     -0.110000
      9 C06        -4.2900   -0.3360    2.4570 c1        1 1EV      0.027000
     10 N01        -3.5940   -0.3920    3.6270 n1        1 1EV     -0.205000
     11 C02        -4.2380   -0.6860    4.7910 c1        1 1EV      0.007250
     12 N02        -3.5120   -0.7460    6.0080 n2        1 1EV     -0.322500
     13 C03        -5.6030   -0.9300    4.7860 c1        1 1EV     -0.166000
     14 C04        -6.3010   -0.8740    3.6150 c1        1 1EV      0.007250
     15 C05        -5.6550   -0.5790    2.4500 c1        1 1EV     -0.166000
     16 C07        -7.7890   -1.1470    3.6070 c2        1 1EV     -0.187000
     17 C14         0.0560    0.2440    0.1380 c1        1 1EV     -0.166000
     18 C15         0.7540    0.2890   -1.0580 c1        1 1EV     -0.074000
     19 C29         2.2660    0.4430   -1.0490 c3        1 1EV     -0.120000
     20 C28         2.8540   -0.2740   -2.2440 c3        1 1EV     -0.110000
     21 C26         4.2670    0.2200   -2.4850 c2        1 1EV      0.028000
     22 N21         4.4800    1.5060   -2.8820 n2        1 1EV     -0.205000
     23 C22         5.7440    1.9350   -3.1590 c1        1 1EV      0.114000
     24 N22         5.9640    3.2740   -3.5740 n2        1 1EV     -0.322500
     25 C23         6.8150    1.0620   -3.0390 c2        1 1EV     -0.236000
     26 C24         6.6040   -0.2260   -2.6420 c1        1 1EV      0.003000
     27 C27         7.7800   -1.1590   -2.4420 c3        1 1EV     -0.187000
     28 C25         5.3370   -0.6540   -2.3640 c1        1 1EV     -0.229000
     29 H1          0.5570    0.3040   -3.1060 ha        1 1EV      0.148000
     30 H2         -2.9940    0.1580   -1.0780 ha        1 1EV      0.142500
     31 H3         -1.9690    1.0230    1.8990 ha        1 1EV      0.102500
     32 H4         -1.7620   -0.5560    2.0010 ha        1 1EV      0.102500
     33 H5         -3.9420    0.7670    0.7540 hc        1 1EV      0.097000
     34 H6         -3.6790   -0.7960    0.5460 hc        1 1EV      0.097000
     35 H7         -2.6100   -0.5930    6.0100 hn        1 1EV      0.197000
     36 H8         -3.9430   -0.9470    6.7880 hn        1 1EV      0.197000
     37 H9         -6.0640   -1.1400    5.6200 ha        1 1EV      0.142500
     38 H10        -6.1540   -0.5400    1.6110 ha        1 1EV      0.142500
     39 H11        -8.2740   -0.3070    3.4710 ha        1 1EV      0.088667
     40 H12        -8.0030   -1.7680    2.8810 ha        1 1EV      0.088667
     41 H13        -8.0540   -1.5420    4.4650 ha        1 1EV      0.088667
     42 H14         0.5390    0.2550    0.9850 ha        1 1EV      0.142500
     43 H15         2.4970    1.3920   -1.0920 hc        1 1EV      0.101000
     44 H16         2.6280    0.0570   -0.2270 hc        1 1EV      0.101000
     45 H17         2.8700   -1.2360   -2.0710 hc        1 1EV      0.099000
     46 H18         2.3070   -0.0940   -3.0320 hc        1 1EV      0.099000
     47 H19         6.8160    3.5810   -3.6980 hn        1 1EV      0.197000
     48 H20         5.2550    3.8270   -3.7240 hn        1 1EV      0.197000
     49 H21         7.7210    1.3700   -3.2380 ha        1 1EV      0.142000
     50 H22         8.0040   -1.2020   -1.4880 hc        1 1EV      0.089000
     51 H23         8.5520   -0.8240   -2.9440 hc        1 1EV      0.089000
     52 H24         7.5440   -2.0540   -2.7630 hc        1 1EV      0.089000
     53 H25         5.1850   -1.5750   -2.0800 ha        1 1EV      0.142000
@<TRIPOS>BOND
     1    1    2 1   
     2    3    5 1   
     3    4   18 1   
     4    4   29 1   
     5    5   30 1   
     6    6   17 1   
     7    7    8 1   
     8    7   31 1   
     9    7   32 1   
    10    8    9 1   
    11    8   33 1   
    12    8   34 1   
    13    9   10 1   
    14   11   13 1   
    15   12   35 1   
    16   12   36 1   
    17   13   37 1   
    18   14   15 1   
    19   15   38 1   
    20   16   39 1   
    21   16   40 1   
    22   16   41 1   
    23   17   42 1   
    24   18   19 1   
    25   19   20 1   
    26   19   43 1   
    27   19   44 1   
    28   20   21 1   
    29   20   45 1   
    30   20   46 1   
    31   21   22 1   
    32   21   28 1   
    33   22   23 1   
    34   23   25 1   
    35   24   47 1   
    36   24   48 1   
    37   25   26 1   
    38   25   49 1   
    39   26   27 1   
    40   27   50 1   
    41   27   51 1   
    42   27   52 1   
    43   28   53 1   
@<TRIPOS>SUBSTRUCTURE
     1 1EV         1 TEMP              0 ****  ****    0 ROOT
