@<TRIPOS>MOLECULE
1EV
   53    55     1     0     0
SMALL
bcc


@<TRIPOS>ATOM
      1 N10        -1.2120   -0.0500   -2.1240 n1        1 1EV     -0.391800
      2 C10        -0.6320   -0.0420   -1.1200 cg        1 1EV      0.235800
      3 C11         0.0820   -0.0330    0.1140 ca        1 1EV      0.029000
      4 C16         1.4790   -0.0220    0.1020 ca        1 1EV     -0.074000
      5 C12        -0.6240   -0.0350    1.3190 ca        1 1EV     -0.074000
      6 C13         0.0780   -0.0230    2.5240 ca        1 1EV     -0.084300
      7 C09        -0.6690   -0.0220    3.8200 c3        1 1EV      0.031900
      8 C08        -1.2640    1.3550    4.1000 c3        1 1EV     -0.069700
      9 C06        -1.9410    1.3870    5.4380 ca        1 1EV      0.419100
     10 N01        -3.1700    0.8120    5.5370 nb        1 1EV     -0.653000
     11 C02        -3.8070    0.8160    6.7420 ca        1 1EV      0.478200
     12 N02        -5.0240    0.0860    6.8060 nv        1 1EV     -0.514500
     13 C03        -3.2460    1.4200    7.8820 ca        1 1EV     -0.261300
     14 C04        -1.9930    2.0130    7.7700 ca        1 1EV     -0.009300
     15 C05        -1.3310    1.9920    6.5380 ca        1 1EV     -0.260800
     16 C07        -1.3550    2.6710    8.9390 c3        1 1EV      0.051200
     17 C14         1.4730   -0.0150    2.5160 ca        1 1EV     -0.080000
     18 C15         2.1750   -0.0150    1.3100 ca        1 1EV     -0.084300
     19 C29         3.6700   -0.0020    1.3090 c3        1 1EV      0.031900
     20 C28         4.2250   -1.3680    0.9170 c3        1 1EV     -0.069700
     21 C26         5.7230   -1.3810    0.9820 ca        1 1EV      0.419100
     22 N21         6.4030   -0.7550   -0.0160 nb        1 1EV     -0.653000
     23 C22         7.7660   -0.7400    0.0180 ca        1 1EV      0.478200
     24 N22         8.4060    0.0410   -0.9810 nv        1 1EV     -0.514500
     25 C23         8.4940   -1.3760    1.0410 ca        1 1EV     -0.261300
     26 C24         7.7920   -2.0200    2.0540 ca        1 1EV     -0.009300
     27 C27         8.5070   -2.7050    3.1600 c3        1 1EV      0.051200
     28 C25         6.3930   -2.0200    2.0270 ca        1 1EV     -0.260800
     29 H1          2.0300   -0.0200   -0.8470 ha        1 1EV      0.123000
     30 H2         -1.7210   -0.0430    1.3250 ha        1 1EV      0.123000
     31 H3          0.0010   -0.3210    4.6510 hc        1 1EV      0.026200
     32 H4         -1.4690   -0.7880    3.7870 hc        1 1EV      0.026200
     33 H5         -0.4670    2.1260    4.0670 hc        1 1EV      0.024700
     34 H6         -1.9790    1.6270    3.2970 hc        1 1EV      0.024700
     35 H7         -5.4530   -0.0660    5.9200 hn        1 1EV      0.245800
     36 H8         -5.6570    0.4820    7.4630 hn        1 1EV      0.245800
     37 H9         -3.7800    1.4210    8.8390 ha        1 1EV      0.123000
     38 H10        -0.3420    2.4540    6.4390 ha        1 1EV      0.121000
     39 H11        -1.3110    3.7590    8.7910 hc        1 1EV      0.011367
     40 H12        -0.3260    2.3150    9.0790 hc        1 1EV      0.011367
     41 H13        -1.9020    2.4850    9.8720 hc        1 1EV      0.011367
     42 H14         2.0230   -0.0080    3.4660 ha        1 1EV      0.112000
     43 H15         4.0310    0.7760    0.6060 hc        1 1EV      0.026200
     44 H16         4.0540    0.2910    2.3060 hc        1 1EV      0.026200
     45 H17         3.8160   -2.1490    1.5900 hc        1 1EV      0.024700
     46 H18         3.8800   -1.6380   -0.1020 hc        1 1EV      0.024700
     47 H19         7.8430    0.2160   -1.7820 hn        1 1EV      0.245800
     48 H20         9.2960   -0.3330   -1.2250 hn        1 1EV      0.245800
     49 H21         9.5900   -1.3620    1.0430 ha        1 1EV      0.123000
     50 H22         8.1980   -3.7560    3.2360 hc        1 1EV      0.011367
     51 H23         8.2820   -2.2240    4.1220 hc        1 1EV      0.011367
     52 H24         9.5970   -2.6870    3.0280 hc        1 1EV      0.011367
     53 H25         5.8300   -2.5240    2.8210 ha        1 1EV      0.121000
@<TRIPOS>BOND
     1    1    2 3   
     2    2    3 1   
     3    3    4 ar  
     4    3    5 ar  
     5    4   18 ar  
     6    4   29 1   
     7    5    6 ar  
     8    5   30 1   
     9    6    7 1   
    10    6   17 ar  
    11    7    8 1   
    12    7   31 1   
    13    7   32 1   
    14    8    9 1   
    15    8   33 1   
    16    8   34 1   
    17    9   10 ar  
    18    9   15 ar  
    19   10   11 ar  
    20   11   12 1   
    21   11   13 ar  
    22   12   35 1   
    23   12   36 1   
    24   13   14 ar  
    25   13   37 1   
    26   14   15 ar  
    27   14   16 1   
    28   15   38 1   
    29   16   39 1   
    30   16   40 1   
    31   16   41 1   
    32   17   18 ar  
    33   17   42 1   
    34   18   19 1   
    35   19   20 1   
    36   19   43 1   
    37   19   44 1   
    38   20   21 1   
    39   20   45 1   
    40   20   46 1   
    41   21   22 ar  
    42   21   28 ar  
    43   22   23 ar  
    44   23   24 1   
    45   23   25 ar  
    46   24   47 1   
    47   24   48 1   
    48   25   26 ar  
    49   25   49 1   
    50   26   27 1   
    51   26   28 ar  
    52   27   50 1   
    53   27   51 1   
    54   27   52 1   
    55   28   53 1   
@<TRIPOS>SUBSTRUCTURE
     1 1EV         1 TEMP              0 ****  ****    0 ROOT
