@<TRIPOS>MOLECULE
1EV
   55    57     1     0     0
SMALL
bcc


@<TRIPOS>ATOM
      1 N10        -0.9820    0.1420   -1.8180 n1        1 1EV     -0.317800
      2 C10        -0.4000    0.1170   -0.8120 cg        1 1EV      0.208800
      3 C11         0.3120    0.0860    0.4190 ca        1 1EV      0.008000
      4 C16         1.7090   -0.0150    0.4160 ca        1 1EV     -0.087000
      5 C12        -0.3860    0.1580    1.6310 ca        1 1EV     -0.087000
      6 C13         0.3140    0.1340    2.8420 ca        1 1EV     -0.090300
      7 C09        -0.4410    0.1980    4.1260 c3        1 1EV     -0.032100
      8 C08        -1.0810    1.5640    4.3170 c3        1 1EV     -0.139700
      9 C06        -1.9930    1.5880    5.5140 ca        1 1EV      0.462600
     10 N01        -3.2310    1.0620    5.3990 nb        1 1EV     -0.667000
     11 C02        -4.0360    1.1310    6.4960 ca        1 1EV      0.451200
     12 N02        -5.3960    0.5660    6.3370 n4        1 1EV     -0.818300
     13 C03        -3.6690    1.6960    7.7300 ca        1 1EV     -0.211300
     14 C04        -2.3720    2.2350    7.8330 ca        1 1EV      0.005700
     15 C05        -1.5330    2.1790    6.7190 ca        1 1EV     -0.200300
     16 C07        -1.9310    2.8590    9.0990 c3        1 1EV     -0.083800
     17 C14         1.7090    0.0260    2.8350 ca        1 1EV     -0.097000
     18 C15         2.4090   -0.0510    1.6260 ca        1 1EV     -0.090300
     19 C29         3.8970   -0.1470    1.6100 c3        1 1EV     -0.032100
     20 C28         4.3520   -1.5050    1.1000 c3        1 1EV     -0.139700
     21 C26         5.8430   -1.5540    0.9040 ca        1 1EV      0.462600
     22 N21         6.3740   -0.9980   -0.2050 nb        1 1EV     -0.667000
     23 C22         7.7240   -1.0900   -0.3580 ca        1 1EV      0.451200
     24 N22         8.2780   -0.4890   -1.5950 n4        1 1EV     -0.818300
     25 C23         8.5980   -1.7080    0.5520 ca        1 1EV     -0.211300
     26 C24         8.0270   -2.2790    1.7080 ca        1 1EV      0.005700
     27 C27         8.8910   -2.9580    2.6980 c3        1 1EV     -0.083800
     28 C25         6.6450   -2.1990    1.8810 ca        1 1EV     -0.200300
     29 H1          2.2530   -0.0630   -0.5400 ha        1 1EV      0.150000
     30 H2         -1.4850    0.2300    1.6280 ha        1 1EV      0.150000
     31 H3         -1.2370   -0.5950    4.1190 hc        1 1EV      0.061200
     32 H4          0.2430   -0.0200    4.9890 hc        1 1EV      0.061200
     33 H5         -1.6560    1.8420    3.3910 hc        1 1EV      0.081700
     34 H6         -0.2830    2.3410    4.4600 hc        1 1EV      0.081700
     35 H7         -5.8800    0.5910    7.2400 hn        1 1EV      0.472800
     36 H8         -5.3390   -0.4060    6.0050 hn        1 1EV      0.472800
     37 H9         -4.3480    1.7330    8.5960 ha        1 1EV      0.172000
     38 H10        -0.5140    2.5960    6.7660 ha        1 1EV      0.180000
     39 H11        -2.3010    3.9160    9.1500 hc        1 1EV      0.078700
     40 H12        -0.8150    2.8760    9.1730 hc        1 1EV      0.078700
     41 H13        -2.3360    2.3040    9.9830 hc        1 1EV      0.078700
     42 H14         2.2600    0.0030    3.7880 ha        1 1EV      0.139000
     43 H15         4.3080    0.0250    2.6400 hc        1 1EV      0.061200
     44 H16         4.3050    0.6630    0.9460 hc        1 1EV      0.061200
     45 H17         3.8320   -1.7350    0.1290 hc        1 1EV      0.081700
     46 H18         4.0610   -2.3040    1.8330 hc        1 1EV      0.081700
     47 H19         7.9830    0.4920   -1.6740 hn        1 1EV      0.472800
     48 H20         7.9320   -1.0060   -2.4140 hn        1 1EV      0.472800
     49 H21         9.6860   -1.7630    0.3950 ha        1 1EV      0.172000
     50 H22         9.0980   -4.0080    2.3620 hc        1 1EV      0.078700
     51 H23         8.3970   -3.0040    3.7000 hc        1 1EV      0.078700
     52 H24         9.8700   -2.4280    2.8090 hc        1 1EV      0.078700
     53 H25         6.1680   -2.6390    2.7720 ha        1 1EV      0.180000
     54 H023       -5.9220    1.1200    5.6490 hn        1 1EV      0.472800
     55 H223        9.3010   -0.5390   -1.5650 hn        1 1EV      0.472800
@<TRIPOS>BOND
     1    1    2 3   
     2    2    3 1   
     3    3    4 ar  
     4    3    5 ar  
     5    4   18 ar  
     6    4   29 1   
     7    5    6 ar  
     8    5   30 1   
     9    6    7 1   
    10    6   17 ar  
    11    7    8 1   
    12    7   31 1   
    13    7   32 1   
    14    8    9 1   
    15    8   33 1   
    16    8   34 1   
    17    9   10 ar  
    18    9   15 ar  
    19   10   11 ar  
    20   11   12 1   
    21   11   13 ar  
    22   12   35 1   
    23   12   36 1   
    24   12   54 1   
    25   13   14 ar  
    26   13   37 1   
    27   14   15 ar  
    28   14   16 1   
    29   15   38 1   
    30   16   39 1   
    31   16   40 1   
    32   16   41 1   
    33   17   18 ar  
    34   17   42 1   
    35   18   19 1   
    36   19   20 1   
    37   19   43 1   
    38   19   44 1   
    39   20   21 1   
    40   20   45 1   
    41   20   46 1   
    42   21   22 ar  
    43   21   28 ar  
    44   22   23 ar  
    45   23   24 1   
    46   23   25 ar  
    47   24   47 1   
    48   24   48 1   
    49   24   55 1   
    50   25   26 ar  
    51   25   49 1   
    52   26   27 1   
    53   26   28 ar  
    54   27   50 1   
    55   27   51 1   
    56   27   52 1   
    57   28   53 1   
@<TRIPOS>SUBSTRUCTURE
     1 1EV         1 TEMP              0 ****  ****    0 ROOT
