@<TRIPOS>MOLECULE
1EW
   66    68     1     0     0
SMALL
bcc


@<TRIPOS>ATOM
      1 N22        -0.6420   -0.7050    0.2450 n4        1 1EW     -0.819300
      2 C22         0.8000   -0.3640    0.2120 ca        1 1EW      0.452200
      3 C23         1.4050    0.1210    1.3840 ca        1 1EW     -0.207300
      4 C24         2.7710    0.4630    1.3140 ca        1 1EW      0.012700
      5 C27         3.4580    0.9980    2.5090 c3        1 1EW     -0.086800
      6 C25         3.4360    0.3010    0.0980 ca        1 1EW     -0.207300
      7 N21         1.4340   -0.5340   -0.9830 nb        1 1EW     -0.674000
      8 C26         2.7400   -0.1970   -1.0350 ca        1 1EW      0.454600
      9 C28         3.4870   -0.2780   -2.3380 c3        1 1EW     -0.136700
     10 C29         3.2610   -1.5560   -3.1280 c3        1 1EW     -0.032100
     11 C15         4.0060   -1.5020   -4.4230 ca        1 1EW     -0.070300
     12 C14         5.3020   -2.0110   -4.5950 ca        1 1EW     -0.092300
     13 C17         6.0920   -2.6500   -3.5020 c3        1 1EW     -0.029100
     14 C18         6.3820   -4.1130   -3.8050 c3        1 1EW     -0.108400
     15 C19         7.4200   -4.6410   -2.8200 c3        1 1EW      0.098800
     16 N20         7.8330   -6.0470   -3.1050 n4        1 1EW     -0.838600
     17 C13         5.9270   -1.8730   -5.8460 ca        1 1EW     -0.122000
     18 C12         5.2850   -1.2530   -6.9090 ca        1 1EW     -0.112000
     19 C16         3.3620   -0.8850   -5.5090 ca        1 1EW     -0.117000
     20 C11         3.9860   -0.7520   -6.7500 ca        1 1EW     -0.066300
     21 C09         3.3110   -0.0420   -7.8740 c3        1 1EW     -0.037100
     22 C08         3.1110   -0.9470   -9.0780 c3        1 1EW     -0.134700
     23 C06         2.4850   -0.2160  -10.2360 ca        1 1EW      0.455600
     24 C05         1.1340   -0.4940  -10.5690 ca        1 1EW     -0.202300
     25 N01         3.2340    0.6580  -10.9410 nb        1 1EW     -0.669000
     26 C02         2.6370    1.2640  -12.0070 ca        1 1EW      0.453200
     27 N02         3.4820    2.2000  -12.7840 n4        1 1EW     -0.819300
     28 C03         1.3080    1.0520  -12.4120 ca        1 1EW     -0.206300
     29 C04         0.5400    0.1400  -11.6610 ca        1 1EW      0.010700
     30 C07        -0.8610   -0.1350  -12.0490 c3        1 1EW     -0.085800
     31 H1         -0.9320   -0.8460    1.2190 hn        1 1EW      0.474133
     32 H2         -1.1810    0.0680   -0.1640 hn        1 1EW      0.474133
     33 H3          0.8600    0.2450    2.3330 ha        1 1EW      0.179000
     34 H4          3.1870    2.0770    2.6530 hc        1 1EW      0.082700
     35 H5          3.1550    0.4380    3.4290 hc        1 1EW      0.082700
     36 H6          4.5700    0.9300    2.4030 hc        1 1EW      0.082700
     37 H7          4.5010    0.5710    0.0100 ha        1 1EW      0.179000
     38 H8          4.5850   -0.1660   -2.1270 hc        1 1EW      0.078700
     39 H9          3.1750    0.6040   -2.9670 hc        1 1EW      0.078700
     40 H10         2.1650   -1.6820   -3.3430 hc        1 1EW      0.058700
     41 H11         3.5720   -2.4440   -2.5190 hc        1 1EW      0.058700
     42 H12         5.5630   -2.5710   -2.5160 hc        1 1EW      0.062200
     43 H13         7.0640   -2.0910   -3.3980 hc        1 1EW      0.062200
     44 H14         5.4330   -4.7060   -3.7310 hc        1 1EW      0.074700
     45 H15         6.7620   -4.2070   -4.8590 hc        1 1EW      0.074700
     46 H16         7.0070   -4.6130   -1.7700 hx        1 1EW      0.114200
     47 H17         8.3500   -4.0010   -2.8580 hx        1 1EW      0.114200
     48 H18         8.5290   -6.3550   -2.4160 hn        1 1EW      0.466800
     49 H19         8.2440   -6.1130   -4.0440 hn        1 1EW      0.466800
     50 H21         6.9550   -2.2440   -5.9820 ha        1 1EW      0.134000
     51 H22         5.8040   -1.1420   -7.8750 ha        1 1EW      0.149000
     52 H23         2.3430   -0.4890   -5.3680 ha        1 1EW      0.140000
     53 H24         3.9420    0.8410   -8.1680 hc        1 1EW      0.065700
     54 H25         2.3160    0.3550   -7.5370 hc        1 1EW      0.065700
     55 H26         2.4470   -1.8080   -8.7980 hc        1 1EW      0.076700
     56 H27         4.1010   -1.3760   -9.3960 hc        1 1EW      0.076700
     57 H28         0.5610   -1.2170   -9.9660 ha        1 1EW      0.178000
     58 H29         2.8910    2.7290  -13.4340 hn        1 1EW      0.474467
     59 H30         4.1840    1.6680  -13.3150 hn        1 1EW      0.474467
     60 H31         0.8580    1.5600  -13.2800 ha        1 1EW      0.177000
     61 H32        -1.4220   -0.6310  -11.2180 hc        1 1EW      0.081033
     62 H33        -1.3930    0.8110  -12.3220 hc        1 1EW      0.081033
     63 H34        -0.8820   -0.8160  -12.9400 hc        1 1EW      0.081033
     64 H223       -0.8250   -1.5600   -0.2940 hn        1 1EW      0.474133
     65 H203        7.0220   -6.6740   -3.0620 hn        1 1EW      0.466800
     66 H023        3.9680    2.8520  -12.1550 hn        1 1EW      0.474467
@<TRIPOS>BOND
     1    1    2 1   
     2    1   31 1   
     3    1   32 1   
     4    1   64 1   
     5    2    3 ar  
     6    2    7 ar  
     7    3    4 ar  
     8    3   33 1   
     9    4    5 1   
    10    4    6 ar  
    11    5   34 1   
    12    5   35 1   
    13    5   36 1   
    14    6    8 ar  
    15    6   37 1   
    16    7    8 ar  
    17    8    9 1   
    18    9   10 1   
    19    9   38 1   
    20    9   39 1   
    21   10   11 1   
    22   10   40 1   
    23   10   41 1   
    24   11   12 ar  
    25   11   19 ar  
    26   12   13 1   
    27   12   17 ar  
    28   13   14 1   
    29   13   42 1   
    30   13   43 1   
    31   14   15 1   
    32   14   44 1   
    33   14   45 1   
    34   15   16 1   
    35   15   46 1   
    36   15   47 1   
    37   16   48 1   
    38   16   49 1   
    39   16   65 1   
    40   17   18 ar  
    41   17   50 1   
    42   18   20 ar  
    43   18   51 1   
    44   19   20 ar  
    45   19   52 1   
    46   20   21 1   
    47   21   22 1   
    48   21   53 1   
    49   21   54 1   
    50   22   23 1   
    51   22   55 1   
    52   22   56 1   
    53   23   24 ar  
    54   23   25 ar  
    55   24   29 ar  
    56   24   57 1   
    57   25   26 ar  
    58   26   27 1   
    59   26   28 ar  
    60   27   58 1   
    61   27   59 1   
    62   27   66 1   
    63   28   29 ar  
    64   28   60 1   
    65   29   30 1   
    66   30   61 1   
    67   30   62 1   
    68   30   63 1   
@<TRIPOS>SUBSTRUCTURE
     1 1EW         1 TEMP              0 ****  ****    0 ROOT
