@<TRIPOS>MOLECULE
1EW
   63    53     1     0     0
SMALL
bcc


@<TRIPOS>ATOM
      1 N22        -4.5280   -1.9150    4.8610 n3        1 1EW     -0.321000
      2 C22        -3.5320   -0.8440    4.8840 c2        1 1EW      0.110000
      3 C23        -3.5470    0.1210    5.9340 c2        1 1EW     -0.236000
      4 C24        -2.6350    1.1420    5.9340 c1        1 1EW      0.001000
      5 C27        -2.6730    2.1990    7.0320 c3        1 1EW     -0.186000
      6 C25        -1.7100    1.2370    4.9280 c1        1 1EW     -0.204000
      7 N21        -2.6220   -0.7490    3.8960 n1        1 1EW     -0.205000
      8 C26        -1.6960    0.2920    3.9000 c1        1 1EW      0.015500
      9 C28        -0.6970    0.4440    2.7300 c2        1 1EW     -0.111000
     10 C29        -0.3040   -0.9620    2.2020 c3        1 1EW     -0.121000
     11 C15         0.4870   -0.8220    0.9020 c1        1 1EW     -0.075000
     12 C14         1.6660   -1.5830    0.7090 c1        1 1EW     -0.060000
     13 C17         2.2690   -2.4290    1.9200 c3        1 1EW     -0.122000
     14 C18         3.3390   -3.4300    1.3890 c3        1 1EW     -0.197000
     15 C19         4.5920   -3.4620    2.3900 c3        1 1EW     -0.092000
     16 N20         5.7300   -4.1740    1.7380 n3        1 1EW     -0.337000
     17 C13         2.3540   -1.4810   -0.4540 c1        1 1EW     -0.130000
     18 C12         1.9050   -0.6320   -1.4550 c1        1 1EW     -0.204000
     19 C16         0.0460    0.0150   -0.0850 c1        1 1EW     -0.124000
     20 C11         0.7530    0.1150   -1.2700 c1        1 1EW      0.015500
     21 C09         0.3170    1.0990   -2.3350 c2        1 1EW     -0.118000
     22 C08        -0.0520    0.3090   -3.6700 c3        1 1EW     -0.111000
     23 C06        -0.2750    1.3580   -4.8630 c1        1 1EW      0.029000
     24 C05        -1.0150    1.0000   -5.9600 c1        1 1EW     -0.204000
     25 N01         0.2640    2.6140   -4.7790 n1        1 1EW     -0.204000
     26 C02         0.0670    3.5070   -5.7800 c1        1 1EW      0.015500
     27 N02         0.6710    4.7910   -5.7100 n2        1 1EW     -0.321000
     28 C03        -0.6840    3.1480   -6.8960 c1        1 1EW     -0.204000
     29 C04        -1.2170    1.9060   -6.9800 c1        1 1EW      0.015500
     30 C07        -2.0150    1.5180   -8.1720 c2        1 1EW     -0.186000
     31 H1         -5.0460   -2.0710    5.5940 hn        1 1EW      0.195000
     32 H2         -4.6030   -2.4580    4.1220 hn        1 1EW      0.195000
     33 H3         -4.2010    0.0250    6.7040 ha        1 1EW      0.141000
     34 H4         -1.8930    2.8020    6.9360 hc        1 1EW      0.088667
     35 H5         -3.5020    2.7220    6.9550 hc        1 1EW      0.088667
     36 H6         -2.6430    1.7670    7.8960 hc        1 1EW      0.088667
     37 H7         -1.0560    1.9700    4.9290 ha        1 1EW      0.139750
     38 H8         -1.1150    0.9650    2.0050 ha        1 1EW      0.097500
     39 H9          0.1020    0.9080    3.0450 ha        1 1EW      0.097500
     40 H10        -1.1070   -1.4830    2.0370 hc        1 1EW      0.097500
     41 H11         0.2570   -1.4250    2.8800 hc        1 1EW      0.097500
     42 H12         1.5640   -2.9170    2.3480 hc        1 1EW      0.095500
     43 H13         2.6740   -1.8360    2.5510 hc        1 1EW      0.095500
     44 H14         2.9460   -4.3270    1.3320 hc        1 1EW      0.078000
     45 H15         3.6330   -3.1530    0.5190 hc        1 1EW      0.078000
     46 H16         4.8650   -2.5330    2.6110 h1        1 1EW      0.096000
     47 H17         4.3350   -3.9420    3.2300 h1        1 1EW      0.096000
     48 H18         5.4780   -5.0360    1.5320 hn        1 1EW      0.138000
     49 H19         5.9710   -3.7240    0.9530 hn        1 1EW      0.138000
     50 H21         3.1680   -2.0060   -0.5880 ha        1 1EW      0.131000
     51 H22         2.4070   -0.5590   -2.2990 ha        1 1EW      0.139750
     52 H23        -0.7790    0.5500    0.0470 ha        1 1EW      0.130000
     53 H24        -0.4800    1.6040   -2.0170 ha        1 1EW      0.096500
     54 H25         1.0560    1.7300   -2.5200 ha        1 1EW      0.096500
     55 H26         0.6810   -0.3040   -3.9030 hc        1 1EW      0.098000
     56 H27        -0.8910   -0.2140   -3.5260 hc        1 1EW      0.098000
     57 H28        -1.3970    0.1090   -6.0170 ha        1 1EW      0.139750
     58 H29         0.4990    5.4270   -6.3770 hn        1 1EW      0.195500
     59 H30         1.2140    5.0010   -5.0100 hn        1 1EW      0.195500
     60 H31        -0.8260    3.7920   -7.6190 ha        1 1EW      0.139750
     61 H32        -2.2290    2.3050   -8.6830 ha        1 1EW      0.088000
     62 H33        -1.4970    0.9000   -8.7270 ha        1 1EW      0.088000
     63 H34        -2.8430    1.0810   -7.8820 ha        1 1EW      0.088000
@<TRIPOS>BOND
     1    1    2 1   
     2    1   31 1   
     3    1   32 1   
     4    2    3 1   
     5    2    7 1   
     6    3    4 1   
     7    3   33 1   
     8    4    5 1   
     9    5   34 1   
    10    5   35 1   
    11    5   36 1   
    12    6    8 1   
    13    6   37 1   
    14    9   10 1   
    15    9   38 1   
    16    9   39 1   
    17   10   11 1   
    18   10   40 1   
    19   10   41 1   
    20   11   19 1   
    21   12   13 1   
    22   12   17 1   
    23   13   14 1   
    24   13   42 1   
    25   13   43 1   
    26   14   15 1   
    27   14   44 1   
    28   14   45 1   
    29   15   16 1   
    30   15   46 1   
    31   15   47 1   
    32   16   48 1   
    33   16   49 1   
    34   17   50 1   
    35   18   20 1   
    36   18   51 1   
    37   19   52 1   
    38   21   22 1   
    39   21   53 1   
    40   21   54 1   
    41   22   23 1   
    42   22   55 1   
    43   22   56 1   
    44   23   25 1   
    45   24   29 1   
    46   24   57 1   
    47   26   28 1   
    48   27   58 1   
    49   27   59 1   
    50   28   60 1   
    51   30   61 1   
    52   30   62 1   
    53   30   63 1   
@<TRIPOS>SUBSTRUCTURE
     1 1EW         1 TEMP              0 ****  ****    0 ROOT
