@<TRIPOS>MOLECULE
1EW
   63    65     1     0     0
SMALL
bcc


@<TRIPOS>ATOM
      1 N22         4.3490    4.3160    1.7700 nh        1 1EW     -0.923500
      2 C22         4.5930    3.2670    0.8670 ca        1 1EW      0.632200
      3 C23         5.9420    2.9360    0.5370 ca        1 1EW     -0.301300
      4 C24         6.1870    1.8320   -0.2760 ca        1 1EW     -0.005300
      5 C27         7.5730    1.4420   -0.6230 c3        1 1EW     -0.060800
      6 C25         5.1020    1.0870   -0.7530 ca        1 1EW     -0.293300
      7 N21         3.5300    2.5480    0.3840 nb        1 1EW     -0.729000
      8 C26         3.7960    1.4790   -0.3980 ca        1 1EW      0.451600
      9 C28         2.6380    0.6780   -0.9290 c3        1 1EW     -0.126700
     10 C29         1.9390   -0.0880    0.1810 c3        1 1EW     -0.037100
     11 C15         0.8190   -0.9140   -0.3550 ca        1 1EW     -0.071300
     12 C14         1.0000   -2.2450   -0.7650 ca        1 1EW     -0.077300
     13 C17         2.3280   -2.9190   -0.7180 c3        1 1EW     -0.037100
     14 C18         2.5460   -3.6310    0.6040 c3        1 1EW     -0.080400
     15 C19         3.8890   -4.3610    0.5890 c3        1 1EW      0.158800
     16 N20         4.1990   -5.0170    1.8360 n3        1 1EW     -0.915800
     17 C13        -0.1010   -2.9660   -1.2460 ca        1 1EW     -0.128000
     18 C12        -1.3620   -2.3850   -1.3240 ca        1 1EW     -0.129000
     19 C16        -0.4530   -0.3350   -0.4410 ca        1 1EW     -0.124000
     20 C11        -1.5480   -1.0580   -0.9210 ca        1 1EW     -0.080300
     21 C09        -2.8890   -0.4160   -1.0130 c3        1 1EW     -0.033100
     22 C08        -3.5050   -0.2330    0.3630 c3        1 1EW     -0.126700
     23 C06        -4.8910    0.3480    0.2780 ca        1 1EW      0.451600
     24 C05        -5.9740   -0.4310    0.7330 ca        1 1EW     -0.292300
     25 N01        -5.0340    1.5980   -0.2140 nb        1 1EW     -0.729000
     26 C02        -6.3010    2.1140   -0.2890 ca        1 1EW      0.631200
     27 N02        -6.4900    3.3670   -0.8980 nh        1 1EW     -0.923500
     28 C03        -7.4430    1.3890    0.1670 ca        1 1EW     -0.301300
     29 C04        -7.2660    0.1040    0.6770 ca        1 1EW     -0.006300
     30 C07        -8.4260   -0.6910    1.1410 c3        1 1EW     -0.060800
     31 H1          5.0120    5.0550    1.7040 hn        1 1EW      0.399800
     32 H2          3.4050    4.6280    1.8260 hn        1 1EW      0.399800
     33 H3          6.7750    3.5350    0.9290 ha        1 1EW      0.141000
     34 H4          7.9200    0.6320    0.0680 hc        1 1EW      0.048700
     35 H5          7.6260    1.0560   -1.6700 hc        1 1EW      0.048700
     36 H6          8.2730    2.3080   -0.5260 hc        1 1EW      0.048700
     37 H7          5.2650    0.2120   -1.3950 ha        1 1EW      0.141000
     38 H8          1.9010    1.3600   -1.4320 hc        1 1EW      0.058200
     39 H9          3.0150   -0.0400   -1.7060 hc        1 1EW      0.058200
     40 H10         2.6800   -0.7400    0.7170 hc        1 1EW      0.061700
     41 H11         1.5380    0.6410    0.9370 hc        1 1EW      0.061700
     42 H12         2.3970   -3.6640   -1.5560 hc        1 1EW      0.047200
     43 H13         3.1490   -2.1690   -0.8810 hc        1 1EW      0.047200
     44 H14         2.5220   -2.8890    1.4440 hc        1 1EW      0.052200
     45 H15         1.7130   -4.3620    0.7770 hc        1 1EW      0.052200
     46 H16         3.8860   -5.0770   -0.2870 h1        1 1EW      0.022700
     47 H17         4.7080   -3.6100    0.3950 h1        1 1EW      0.022700
     48 H18         3.4270   -5.5650    2.1590 hn        1 1EW      0.348300
     49 H19         5.0000   -5.6060    1.7290 hn        1 1EW      0.348300
     50 H21         0.0370   -4.0100   -1.5660 ha        1 1EW      0.128000
     51 H22        -2.2130   -2.9680   -1.7060 ha        1 1EW      0.130000
     52 H23        -0.5930    0.7110   -0.1240 ha        1 1EW      0.138000
     53 H24        -2.7880    0.5840   -1.5150 hc        1 1EW      0.059700
     54 H25        -3.5720   -1.0410   -1.6470 hc        1 1EW      0.059700
     55 H26        -3.5560   -1.2230    0.8890 hc        1 1EW      0.058200
     56 H27        -2.8510    0.4420    0.9790 hc        1 1EW      0.058200
     57 H28        -5.8050   -1.4400    1.1290 ha        1 1EW      0.142000
     58 H29        -5.6650    3.9120   -1.0300 hn        1 1EW      0.399800
     59 H30        -7.2510    3.8810   -0.5160 hn        1 1EW      0.399800
     60 H31        -8.4460    1.8310    0.1070 ha        1 1EW      0.141000
     61 H32        -8.7440   -1.4000    0.3360 hc        1 1EW      0.049033
     62 H33        -8.1590   -1.2880    2.0480 hc        1 1EW      0.049033
     63 H34        -9.2940   -0.0330    1.3920 hc        1 1EW      0.049033
@<TRIPOS>BOND
     1    1    2 1   
     2    1   31 1   
     3    1   32 1   
     4    2    3 ar  
     5    2    7 ar  
     6    3    4 ar  
     7    3   33 1   
     8    4    5 1   
     9    4    6 ar  
    10    5   34 1   
    11    5   35 1   
    12    5   36 1   
    13    6    8 ar  
    14    6   37 1   
    15    7    8 ar  
    16    8    9 1   
    17    9   10 1   
    18    9   38 1   
    19    9   39 1   
    20   10   11 1   
    21   10   40 1   
    22   10   41 1   
    23   11   12 ar  
    24   11   19 ar  
    25   12   13 1   
    26   12   17 ar  
    27   13   14 1   
    28   13   42 1   
    29   13   43 1   
    30   14   15 1   
    31   14   44 1   
    32   14   45 1   
    33   15   16 1   
    34   15   46 1   
    35   15   47 1   
    36   16   48 1   
    37   16   49 1   
    38   17   18 ar  
    39   17   50 1   
    40   18   20 ar  
    41   18   51 1   
    42   19   20 ar  
    43   19   52 1   
    44   20   21 1   
    45   21   22 1   
    46   21   53 1   
    47   21   54 1   
    48   22   23 1   
    49   22   55 1   
    50   22   56 1   
    51   23   24 ar  
    52   23   25 ar  
    53   24   29 ar  
    54   24   57 1   
    55   25   26 ar  
    56   26   27 1   
    57   26   28 ar  
    58   27   58 1   
    59   27   59 1   
    60   28   29 ar  
    61   28   60 1   
    62   29   30 1   
    63   30   61 1   
    64   30   62 1   
    65   30   63 1   
@<TRIPOS>SUBSTRUCTURE
     1 1EW         1 TEMP              0 ****  ****    0 ROOT
