@<TRIPOS>MOLECULE
1EW
   64    66     1     0     0
SMALL
bcc


@<TRIPOS>ATOM
      1 N22         4.2040   -2.7450    1.5010 nv        1 1EW     -0.941500
      2 C22         3.8120   -1.5790    0.7720 ca        1 1EW      0.578200
      3 C23         2.9920   -0.5870    1.3680 ca        1 1EW     -0.272300
      4 C24         2.5900    0.5130    0.6020 ca        1 1EW      0.014700
      5 C27         1.7490    1.5760    1.1950 c3        1 1EW     -0.076800
      6 C25         3.0160    0.5960   -0.7290 ca        1 1EW     -0.249300
      7 N21         4.2150   -1.5000   -0.5320 nb        1 1EW     -0.797000
      8 C26         3.8220   -0.4300   -1.2610 ca        1 1EW      0.454600
      9 C28         4.2730   -0.3290   -2.6930 c3        1 1EW     -0.142700
     10 C29         3.5790   -1.3570   -3.5740 c3        1 1EW     -0.021100
     11 C15         4.3000   -1.5610   -4.8620 ca        1 1EW     -0.086300
     12 C14         5.3880   -2.4440   -4.9690 ca        1 1EW     -0.105300
     13 C17         5.9050   -3.1940   -3.7900 c3        1 1EW     -0.040100
     14 C18         5.1360   -4.4830   -3.5610 c3        1 1EW     -0.107400
     15 C19         5.3180   -5.0160   -2.1460 c3        1 1EW      0.102800
     16 N20         4.5300   -4.2650   -1.1340 nz        1 1EW     -0.853600
     17 C13         6.0210   -2.6060   -6.2060 ca        1 1EW     -0.114000
     18 C12         5.5870   -1.9050   -7.3270 ca        1 1EW     -0.117000
     19 C16         3.8700   -0.8600   -5.9930 ca        1 1EW     -0.119000
     20 C11         4.5050   -1.0230   -7.2290 ca        1 1EW     -0.052300
     21 C09         4.0400   -0.2500   -8.4140 c3        1 1EW     -0.044100
     22 C08         2.7240   -0.7890   -8.9470 c3        1 1EW     -0.121700
     23 C06         2.2300    0.0380  -10.1040 ca        1 1EW      0.441600
     24 C05         2.2550   -0.5270  -11.3920 ca        1 1EW     -0.293300
     25 N01         1.7750    1.2840   -9.8450 nb        1 1EW     -0.740000
     26 C02         1.3410    2.0370  -10.9050 ca        1 1EW      0.641200
     27 N02         0.9710    3.3700  -10.6840 nv        1 1EW     -0.928500
     28 C03         1.3270    1.5250  -12.2400 ca        1 1EW     -0.297300
     29 C04         1.7900    0.2340  -12.4740 ca        1 1EW      0.000700
     30 C07         1.7860   -0.3390  -13.8400 c3        1 1EW     -0.063800
     31 H1          5.1960   -2.7650    1.6480 hn        1 1EW      0.390300
     32 H2          3.7280   -2.7820    2.3830 hn        1 1EW      0.390300
     33 H3          2.6720   -0.6750    2.4160 ha        1 1EW      0.159000
     34 H4          2.4030    2.3850    1.6100 hc        1 1EW      0.067033
     35 H5          1.0780    2.0310    0.4240 hc        1 1EW      0.067033
     36 H6          1.1170    1.1760    2.0250 hc        1 1EW      0.067033
     37 H7          2.7250    1.4530   -1.3550 ha        1 1EW      0.165000
     38 H8          4.0460    0.7010   -3.0780 hc        1 1EW      0.076200
     39 H9          5.3880   -0.4580   -2.7480 hc        1 1EW      0.076200
     40 H10         2.5270   -1.0160   -3.7760 hc        1 1EW      0.039200
     41 H11         3.5010   -2.3390   -3.0340 hc        1 1EW      0.039200
     42 H12         5.8510   -2.5360   -2.8810 hc        1 1EW      0.053200
     43 H13         6.9920   -3.4390   -3.9440 hc        1 1EW      0.053200
     44 H14         5.5160   -5.2720   -4.2660 hc        1 1EW      0.084700
     45 H15         4.0480   -4.3380   -3.7960 hc        1 1EW      0.084700
     46 H16         6.4050   -4.9520   -1.8510 hx        1 1EW      0.099200
     47 H17         4.9950   -6.0960   -2.1010 hx        1 1EW      0.099200
     48 H18         4.7120   -4.6270   -0.1950 hn        1 1EW      0.468133
     49 H19         3.5300   -4.3460   -1.3290 hn        1 1EW      0.468133
     50 H21         6.8780   -3.2920   -6.2950 ha        1 1EW      0.135000
     51 H22         6.0990   -2.0410   -8.2920 ha        1 1EW      0.148000
     52 H23         3.0180   -0.1660   -5.9150 ha        1 1EW      0.144000
     53 H24         3.9130    0.8290   -8.1230 hc        1 1EW      0.069200
     54 H25         4.8140   -0.2860   -9.2260 hc        1 1EW      0.069200
     55 H26         2.8580   -1.8500   -9.2860 hc        1 1EW      0.054700
     56 H27         1.9580   -0.7910   -8.1250 hc        1 1EW      0.054700
     57 H28         2.6300   -1.5460  -11.5500 ha        1 1EW      0.141000
     58 H29         0.7970    3.6310   -9.7390 hn        1 1EW      0.407300
     59 H30         0.3080    3.7210  -11.3370 hn        1 1EW      0.407300
     60 H31         0.9660    2.1460  -13.0710 ha        1 1EW      0.147000
     61 H32         2.7290   -0.9090  -14.0300 hc        1 1EW      0.053033
     62 H33         1.6930    0.4610  -14.6150 hc        1 1EW      0.053033
     63 H34         0.9220   -1.0420  -13.9540 hc        1 1EW      0.053033
     64 H203        4.7690   -3.2430   -1.1530 hn        1 1EW      0.468133
@<TRIPOS>BOND
     1    1    2 1   
     2    1   31 1   
     3    1   32 1   
     4    2    3 ar  
     5    2    7 ar  
     6    3    4 ar  
     7    3   33 1   
     8    4    5 1   
     9    4    6 ar  
    10    5   34 1   
    11    5   35 1   
    12    5   36 1   
    13    6    8 ar  
    14    6   37 1   
    15    7    8 ar  
    16    8    9 1   
    17    9   10 1   
    18    9   38 1   
    19    9   39 1   
    20   10   11 1   
    21   10   40 1   
    22   10   41 1   
    23   11   12 ar  
    24   11   19 ar  
    25   12   13 1   
    26   12   17 ar  
    27   13   14 1   
    28   13   42 1   
    29   13   43 1   
    30   14   15 1   
    31   14   44 1   
    32   14   45 1   
    33   15   16 1   
    34   15   46 1   
    35   15   47 1   
    36   16   48 1   
    37   16   49 1   
    38   16   64 1   
    39   17   18 ar  
    40   17   50 1   
    41   18   20 ar  
    42   18   51 1   
    43   19   20 ar  
    44   19   52 1   
    45   20   21 1   
    46   21   22 1   
    47   21   53 1   
    48   21   54 1   
    49   22   23 1   
    50   22   55 1   
    51   22   56 1   
    52   23   24 ar  
    53   23   25 ar  
    54   24   29 ar  
    55   24   57 1   
    56   25   26 ar  
    57   26   27 1   
    58   26   28 ar  
    59   27   58 1   
    60   27   59 1   
    61   28   29 ar  
    62   28   60 1   
    63   29   30 1   
    64   30   61 1   
    65   30   62 1   
    66   30   63 1   
@<TRIPOS>SUBSTRUCTURE
     1 1EW         1 TEMP              0 ****  ****    0 ROOT
