@<TRIPOS>MOLECULE
1EW
   64    66     1     0     0
SMALL
bcc


@<TRIPOS>ATOM
      1 N22         4.1340   -2.7840    1.4860 nh        1 1EW     -0.941500
      2 C22         3.7540   -1.6130    0.7590 ca        1 1EW      0.578200
      3 C23         2.9210   -0.6260    1.3460 ca        1 1EW     -0.272300
      4 C24         2.5310    0.4780    0.5810 ca        1 1EW      0.014700
      5 C27         1.6780    1.5360    1.1650 c3        1 1EW     -0.076800
      6 C25         2.9800    0.5710   -0.7420 ca        1 1EW     -0.249300
      7 N21         4.1780   -1.5250   -0.5380 nb        1 1EW     -0.798000
      8 C26         3.7970   -0.4500   -1.2670 ca        1 1EW      0.454600
      9 C28         4.2710   -0.3410   -2.6910 c3        1 1EW     -0.142700
     10 C29         3.5900   -1.3620   -3.5890 c3        1 1EW     -0.021100
     11 C15         4.3300   -1.5580   -4.8680 ca        1 1EW     -0.085300
     12 C14         5.4180   -2.4430   -4.9650 ca        1 1EW     -0.105300
     13 C17         5.9170   -3.2000   -3.7830 c3        1 1EW     -0.040100
     14 C18         5.1430   -4.4900   -3.5740 c3        1 1EW     -0.107400
     15 C19         5.3020   -5.0320   -2.1590 c3        1 1EW      0.102800
     16 N20         4.4990   -4.2860   -1.1550 n4        1 1EW     -0.853600
     17 C13         6.0670   -2.5990   -6.1950 ca        1 1EW     -0.114000
     18 C12         5.6470   -1.8920   -7.3180 ca        1 1EW     -0.117000
     19 C16         3.9160   -0.8510   -6.0010 ca        1 1EW     -0.119000
     20 C11         4.5660   -1.0090   -7.2300 ca        1 1EW     -0.053300
     21 C09         4.1140   -0.2310   -8.4160 c3        1 1EW     -0.043100
     22 C08         2.7740   -0.7310   -8.9270 c3        1 1EW     -0.121700
     23 C06         2.2750    0.0930  -10.0840 ca        1 1EW      0.442600
     24 C05         2.1220   -0.5310  -11.3350 ca        1 1EW     -0.293300
     25 N01         1.9850    1.3950   -9.8610 nb        1 1EW     -0.740000
     26 C02         1.4970    2.1280  -10.9110 ca        1 1EW      0.642200
     27 N02         1.0840    3.4480  -10.6820 nh        1 1EW     -0.929500
     28 C03         1.3260    1.5630  -12.2130 ca        1 1EW     -0.298300
     29 C04         1.6410    0.2230  -12.4140 ca        1 1EW      0.000700
     30 C07         1.4580   -0.4060  -13.7430 c3        1 1EW     -0.063800
     31 H1          3.6440   -2.8260    2.3600 hn        1 1EW      0.390300
     32 H2          5.1230   -2.8060    1.6480 hn        1 1EW      0.390300
     33 H3          2.5830   -0.7210    2.3880 ha        1 1EW      0.159000
     34 H4          1.0400    1.1320    1.9900 hc        1 1EW      0.067033
     35 H5          2.3230    2.3500    1.5870 hc        1 1EW      0.067033
     36 H6          1.0120    1.9870    0.3880 hc        1 1EW      0.067033
     37 H7          2.6990    1.4310   -1.3670 ha        1 1EW      0.165000
     38 H8          5.3870   -0.4710   -2.7290 hc        1 1EW      0.076200
     39 H9          4.0520    0.6930   -3.0720 hc        1 1EW      0.076200
     40 H10         3.5030   -2.3470   -3.0570 hc        1 1EW      0.039700
     41 H11         2.5420   -1.0190   -3.8040 hc        1 1EW      0.039700
     42 H12         5.8510   -2.5480   -2.8710 hc        1 1EW      0.053700
     43 H13         7.0050   -3.4460   -3.9230 hc        1 1EW      0.053700
     44 H14         5.5320   -5.2760   -4.2780 hc        1 1EW      0.084700
     45 H15         4.0590   -4.3420   -3.8240 hc        1 1EW      0.084700
     46 H16         4.9780   -6.1120   -2.1260 hx        1 1EW      0.099200
     47 H17         6.3840   -4.9690   -1.8460 hx        1 1EW      0.099200
     48 H18         3.5020   -4.3650   -1.3670 hn        1 1EW      0.468133
     49 H19         4.6650   -4.6550   -0.2160 hn        1 1EW      0.468133
     50 H21         6.9240   -3.2850   -6.2760 ha        1 1EW      0.135000
     51 H22         6.1710   -2.0250   -8.2770 ha        1 1EW      0.147000
     52 H23         3.0640   -0.1540   -5.9300 ha        1 1EW      0.145000
     53 H24         4.0300    0.8530   -8.1320 hc        1 1EW      0.067700
     54 H25         4.8760   -0.3020   -9.2380 hc        1 1EW      0.067700
     55 H26         2.0190   -0.6990   -8.0960 hc        1 1EW      0.054700
     56 H27         2.8700   -1.8000   -9.2540 hc        1 1EW      0.054700
     57 H28         2.3760   -1.5910  -11.4670 ha        1 1EW      0.141000
     58 H29         1.3990    3.8710   -9.8380 hn        1 1EW      0.407300
     59 H30         1.1400    4.0350  -11.4830 hn        1 1EW      0.407300
     60 H31         0.9410    2.1750  -13.0400 ha        1 1EW      0.147000
     61 H32         1.4630    0.3600  -14.5570 hc        1 1EW      0.052700
     62 H33         2.2710   -1.1470  -13.9460 hc        1 1EW      0.052700
     63 H34         0.4770   -0.9450  -13.7740 hc        1 1EW      0.052700
     64 H203        4.7390   -3.2640   -1.1630 hn        1 1EW      0.468133
@<TRIPOS>BOND
     1    1    2 1   
     2    1   31 1   
     3    1   32 1   
     4    2    3 ar  
     5    2    7 ar  
     6    3    4 ar  
     7    3   33 1   
     8    4    5 1   
     9    4    6 ar  
    10    5   34 1   
    11    5   35 1   
    12    5   36 1   
    13    6    8 ar  
    14    6   37 1   
    15    7    8 ar  
    16    8    9 1   
    17    9   10 1   
    18    9   38 1   
    19    9   39 1   
    20   10   11 1   
    21   10   40 1   
    22   10   41 1   
    23   11   12 ar  
    24   11   19 ar  
    25   12   13 1   
    26   12   17 ar  
    27   13   14 1   
    28   13   42 1   
    29   13   43 1   
    30   14   15 1   
    31   14   44 1   
    32   14   45 1   
    33   15   16 1   
    34   15   46 1   
    35   15   47 1   
    36   16   48 1   
    37   16   49 1   
    38   16   64 1   
    39   17   18 ar  
    40   17   50 1   
    41   18   20 ar  
    42   18   51 1   
    43   19   20 ar  
    44   19   52 1   
    45   20   21 1   
    46   21   22 1   
    47   21   53 1   
    48   21   54 1   
    49   22   23 1   
    50   22   55 1   
    51   22   56 1   
    52   23   24 ar  
    53   23   25 ar  
    54   24   29 ar  
    55   24   57 1   
    56   25   26 ar  
    57   26   27 1   
    58   26   28 ar  
    59   27   58 1   
    60   27   59 1   
    61   28   29 ar  
    62   28   60 1   
    63   29   30 1   
    64   30   61 1   
    65   30   62 1   
    66   30   63 1   
@<TRIPOS>SUBSTRUCTURE
     1 1EW         1 TEMP              0 ****  ****    0 ROOT
