@<TRIPOS>MOLECULE
1EX
   47    46     1     0     0
SMALL
bcc


@<TRIPOS>ATOM
      1 CAA         1.6260    1.6760   -1.1790 c3        1 1EX     -0.092100
      2 CAH         1.9250    0.2890   -0.6660 c3        1 1EX     -0.053200
      3 CAF         2.0170    0.2420    0.8120 c2        1 1EX     -0.153200
      4 CAD         2.2730   -0.8610    1.5310 ce        1 1EX     -0.146000
      5 CAE         2.4980   -2.1750    0.9700 ce        1 1EX     -0.145000
      6 CAG         2.7550   -3.2790    1.6880 c2        1 1EX     -0.153200
      7 CAJ         2.8470   -3.3240    3.1660 c3        1 1EX     -0.052200
      8 CAL         3.1490   -4.7190    3.6770 c3        1 1EX     -0.078400
      9 CAN         3.2390   -4.7390    5.1880 c3        1 1EX     -0.079400
     10 CAP         3.5410   -6.1310    5.7010 c3        1 1EX     -0.078400
     11 CAQ         3.6300   -6.1520    7.2120 c3        1 1EX     -0.079400
     12 CAO         3.9320   -7.5430    7.7250 c3        1 1EX     -0.079400
     13 CAM         4.0210   -7.5640    9.2350 c3        1 1EX     -0.078400
     14 CAK         4.3240   -8.9560    9.7480 c3        1 1EX     -0.078400
     15 CAI         4.4120   -8.9720   11.2580 c3        1 1EX     -0.084400
     16 CAC         4.7160  -10.3730   11.7600 c3        1 1EX      0.131400
     17 OAB         4.7820  -10.3030   13.1760 oh        1 1EX     -0.601800
     18 H1          1.5650    1.6690   -2.2940 hc        1 1EX      0.034367
     19 H2          2.4270    2.3920   -0.8740 hc        1 1EX      0.034367
     20 H3          0.6530    2.0460   -0.7740 hc        1 1EX      0.034367
     21 H4          2.8920   -0.0730   -1.1120 hc        1 1EX      0.049700
     22 H5          1.1230   -0.4180   -1.0130 hc        1 1EX      0.049700
     23 H6          1.8580    1.2040    1.3290 ha        1 1EX      0.121000
     24 H7          2.3210   -0.7920    2.6320 ha        1 1EX      0.121000
     25 H8          2.4500   -2.2440   -0.1310 ha        1 1EX      0.121000
     26 H9          2.9130   -4.2400    1.1710 ha        1 1EX      0.121000
     27 H10         1.8810   -2.9650    3.6150 hc        1 1EX      0.050700
     28 H11         3.6500   -2.6180    3.5150 hc        1 1EX      0.050700
     29 H12         2.3470   -5.4260    3.3380 hc        1 1EX      0.041700
     30 H13         4.1170   -5.0790    3.2380 hc        1 1EX      0.041700
     31 H14         4.0400   -4.0310    5.5270 hc        1 1EX      0.040700
     32 H15         2.2710   -4.3780    5.6270 hc        1 1EX      0.040700
     33 H16         2.7390   -6.8390    5.3610 hc        1 1EX      0.039700
     34 H17         4.5080   -6.4920    5.2610 hc        1 1EX      0.039700
     35 H18         2.6630   -5.7910    7.6510 hc        1 1EX      0.040700
     36 H19         4.4310   -5.4440    7.5510 hc        1 1EX      0.040700
     37 H20         4.8990   -7.9040    7.2850 hc        1 1EX      0.039700
     38 H21         3.1310   -8.2520    7.3850 hc        1 1EX      0.039700
     39 H22         4.8230   -6.8560    9.5750 hc        1 1EX      0.041700
     40 H23         3.0540   -7.2030    9.6750 hc        1 1EX      0.041700
     41 H24         5.2910   -9.3160    9.3090 hc        1 1EX      0.039700
     42 H25         3.5220   -9.6640    9.4090 hc        1 1EX      0.039700
     43 H26         5.2150   -8.2720   11.6080 hc        1 1EX      0.055700
     44 H27         3.4480   -8.6200   11.7080 hc        1 1EX      0.055700
     45 H28         3.9070  -11.0880   11.4500 h1        1 1EX      0.019700
     46 H29         5.6960  -10.7370   11.3490 h1        1 1EX      0.019700
     47 H30         4.9750  -11.1950   13.4870 ho        1 1EX      0.398000
@<TRIPOS>BOND
     1    1    2 1   
     2    1   18 1   
     3    1   19 1   
     4    1   20 1   
     5    2    3 1   
     6    2   21 1   
     7    2   22 1   
     8    3    4 2   
     9    3   23 1   
    10    4    5 1   
    11    4   24 1   
    12    5    6 2   
    13    5   25 1   
    14    6    7 1   
    15    6   26 1   
    16    7    8 1   
    17    7   27 1   
    18    7   28 1   
    19    8    9 1   
    20    8   29 1   
    21    8   30 1   
    22    9   10 1   
    23    9   31 1   
    24    9   32 1   
    25   10   11 1   
    26   10   33 1   
    27   10   34 1   
    28   11   12 1   
    29   11   35 1   
    30   11   36 1   
    31   12   13 1   
    32   12   37 1   
    33   12   38 1   
    34   13   14 1   
    35   13   39 1   
    36   13   40 1   
    37   14   15 1   
    38   14   41 1   
    39   14   42 1   
    40   15   16 1   
    41   15   43 1   
    42   15   44 1   
    43   16   17 1   
    44   16   45 1   
    45   16   46 1   
    46   17   47 1   
@<TRIPOS>SUBSTRUCTURE
     1 1EX         1 TEMP              0 ****  ****    0 ROOT
