@<TRIPOS>MOLECULE
1EX
   47    46     1     0     0
SMALL
bcc


@<TRIPOS>ATOM
      1 CAA         9.4800    0.9060    0.6220 c3        1 1EX     -0.092100
      2 CAH         8.1800    0.4490    0.0060 c3        1 1EX     -0.053200
      3 CAF         7.0000    0.8930    0.7840 c2        1 1EX     -0.153200
      4 CAD         5.7260    0.6280    0.4640 ce        1 1EX     -0.146000
      5 CAE         5.3080   -0.1350   -0.6930 ce        1 1EX     -0.145000
      6 CAG         4.0330   -0.4000   -1.0130 c2        1 1EX     -0.153200
      7 CAJ         2.8540    0.0440   -0.2340 c3        1 1EX     -0.052200
      8 CAL         1.5510   -0.4160   -0.8570 c3        1 1EX     -0.078400
      9 CAN         0.3630    0.0500   -0.0430 c3        1 1EX     -0.079400
     10 CAP        -0.9400   -0.4090   -0.6630 c3        1 1EX     -0.078400
     11 CAQ        -2.1290    0.0580    0.1500 c3        1 1EX     -0.079400
     12 CAO        -3.4310   -0.4010   -0.4690 c3        1 1EX     -0.079400
     13 CAM        -4.6200    0.0660    0.3440 c3        1 1EX     -0.078400
     14 CAK        -5.9230   -0.3930   -0.2760 c3        1 1EX     -0.078400
     15 CAI        -7.1070    0.0750    0.5390 c3        1 1EX     -0.084400
     16 CAC        -8.4080   -0.3910   -0.0920 c3        1 1EX      0.131400
     17 OAB        -9.4640    0.0860    0.7270 oh        1 1EX     -0.601800
     18 H1          9.5920    0.4980    1.6560 hc        1 1EX      0.034367
     19 H2         10.3420    0.5520    0.0070 hc        1 1EX      0.034367
     20 H3          9.5200    2.0200    0.6790 hc        1 1EX      0.034367
     21 H4          8.1060    0.8450   -1.0440 hc        1 1EX      0.049700
     22 H5          8.1770   -0.6730   -0.0690 hc        1 1EX      0.049700
     23 H6          7.2220    1.4850    1.6890 ha        1 1EX      0.121000
     24 H7          4.9130    1.0050    1.1110 ha        1 1EX      0.121000
     25 H8          6.1200   -0.5120   -1.3390 ha        1 1EX      0.121000
     26 H9          3.8110   -0.9920   -1.9180 ha        1 1EX      0.121000
     27 H10         2.9250   -0.3520    0.8160 hc        1 1EX      0.050700
     28 H11         2.8540    1.1670   -0.1590 hc        1 1EX      0.050700
     29 H12         1.4720   -0.0180   -1.9020 hc        1 1EX      0.041700
     30 H13         1.5430   -1.5360   -0.9270 hc        1 1EX      0.041700
     31 H14         0.4430   -0.3480    1.0020 hc        1 1EX      0.040700
     32 H15         0.3720    1.1700    0.0280 hc        1 1EX      0.040700
     33 H16        -1.0200   -0.0110   -1.7090 hc        1 1EX      0.039700
     34 H17        -0.9490   -1.5280   -0.7340 hc        1 1EX      0.039700
     35 H18        -2.0490   -0.3410    1.1960 hc        1 1EX      0.040700
     36 H19        -2.1200    1.1770    0.2210 hc        1 1EX      0.040700
     37 H20        -3.5110   -0.0030   -1.5150 hc        1 1EX      0.039700
     38 H21        -3.4400   -1.5210   -0.5410 hc        1 1EX      0.039700
     39 H22        -4.5400   -0.3330    1.3890 hc        1 1EX      0.041700
     40 H23        -4.6110    1.1850    0.4150 hc        1 1EX      0.041700
     41 H24        -6.0020    0.0050   -1.3220 hc        1 1EX      0.039700
     42 H25        -5.9310   -1.5130   -0.3470 hc        1 1EX      0.039700
     43 H26        -7.0420   -0.3230    1.5850 hc        1 1EX      0.055700
     44 H27        -7.1120    1.1940    0.6110 hc        1 1EX      0.055700
     45 H28        -8.5140    0.0220   -1.1310 h1        1 1EX      0.019700
     46 H29        -8.4420   -1.5130   -0.1450 h1        1 1EX      0.019700
     47 H30       -10.2840   -0.2140    0.3200 ho        1 1EX      0.398000
@<TRIPOS>BOND
     1    1    2 1   
     2    1   18 1   
     3    1   19 1   
     4    1   20 1   
     5    2    3 1   
     6    2   21 1   
     7    2   22 1   
     8    3    4 2   
     9    3   23 1   
    10    4    5 1   
    11    4   24 1   
    12    5    6 2   
    13    5   25 1   
    14    6    7 1   
    15    6   26 1   
    16    7    8 1   
    17    7   27 1   
    18    7   28 1   
    19    8    9 1   
    20    8   29 1   
    21    8   30 1   
    22    9   10 1   
    23    9   31 1   
    24    9   32 1   
    25   10   11 1   
    26   10   33 1   
    27   10   34 1   
    28   11   12 1   
    29   11   35 1   
    30   11   36 1   
    31   12   13 1   
    32   12   37 1   
    33   12   38 1   
    34   13   14 1   
    35   13   39 1   
    36   13   40 1   
    37   14   15 1   
    38   14   41 1   
    39   14   42 1   
    40   15   16 1   
    41   15   43 1   
    42   15   44 1   
    43   16   17 1   
    44   16   45 1   
    45   16   46 1   
    46   17   47 1   
@<TRIPOS>SUBSTRUCTURE
     1 1EX         1 TEMP              0 ****  ****    0 ROOT
