@<TRIPOS>MOLECULE
1EX
   47    46     1     0     0
SMALL
bcc


@<TRIPOS>ATOM
      1 CAA         1.6910    1.6950   -1.1760 c3        1 1EX     -0.092100
      2 CAH         1.9260    0.2980   -0.6590 c3        1 1EX     -0.053200
      3 CAF         2.1150    0.2640    0.8100 c2        1 1EX     -0.153200
      4 CAD         2.3390   -0.8450    1.5300 ce        1 1EX     -0.146000
      5 CAE         2.4310   -2.1810    0.9800 ce        1 1EX     -0.145000
      6 CAG         2.6520   -3.2900    1.7000 c2        1 1EX     -0.153200
      7 CAJ         2.8370   -3.3230    3.1690 c3        1 1EX     -0.052200
      8 CAL         3.0630   -4.7300    3.6850 c3        1 1EX     -0.078400
      9 CAN         3.2490   -4.7370    5.1870 c3        1 1EX     -0.079400
     10 CAP         3.4740   -6.1420    5.7050 c3        1 1EX     -0.078400
     11 CAQ         3.6610   -6.1490    7.2070 c3        1 1EX     -0.079400
     12 CAO         3.8840   -7.5540    7.7260 c3        1 1EX     -0.079400
     13 CAM         4.0710   -7.5610    9.2280 c3        1 1EX     -0.078400
     14 CAK         4.2940   -8.9660    9.7460 c3        1 1EX     -0.078400
     15 CAI         4.4790   -8.9690   11.2470 c3        1 1EX     -0.084400
     16 CAC         4.7020  -10.3830   11.7550 c3        1 1EX      0.131400
     17 OAB         4.8660  -10.2990   13.1620 oh        1 1EX     -0.601800
     18 H1          1.5540    1.6770   -2.2840 hc        1 1EX      0.034367
     19 H2          2.5600    2.3560   -0.9390 hc        1 1EX      0.034367
     20 H3          0.7770    2.1390   -0.7140 hc        1 1EX      0.034367
     21 H4          2.8320   -0.1390   -1.1630 hc        1 1EX      0.049700
     22 H5          1.0540   -0.3550   -0.9390 hc        1 1EX      0.049700
     23 H6          2.0620    1.2410    1.3190 ha        1 1EX      0.121000
     24 H7          2.4670   -0.7660    2.6240 ha        1 1EX      0.121000
     25 H8          2.3050   -2.2600   -0.1150 ha        1 1EX      0.121000
     26 H9          2.7050   -4.2670    1.1900 ha        1 1EX      0.121000
     27 H10         1.9330   -2.8830    3.6730 hc        1 1EX      0.050700
     28 H11         3.7130   -2.6780    3.4530 hc        1 1EX      0.050700
     29 H12         2.1880   -5.3770    3.4100 hc        1 1EX      0.041700
     30 H13         3.9690   -5.1710    3.1910 hc        1 1EX      0.041700
     31 H14         4.1240   -4.0910    5.4610 hc        1 1EX      0.040700
     32 H15         2.3440   -4.2950    5.6800 hc        1 1EX      0.040700
     33 H16         2.5990   -6.7880    5.4310 hc        1 1EX      0.039700
     34 H17         4.3790   -6.5840    5.2110 hc        1 1EX      0.039700
     35 H18         2.7560   -5.7060    7.7010 hc        1 1EX      0.040700
     36 H19         4.5360   -5.5040    7.4810 hc        1 1EX      0.040700
     37 H20         4.7890   -7.9970    7.2320 hc        1 1EX      0.039700
     38 H21         3.0090   -8.2000    7.4520 hc        1 1EX      0.039700
     39 H22         4.9470   -6.9160    9.5020 hc        1 1EX      0.041700
     40 H23         3.1660   -7.1170    9.7220 hc        1 1EX      0.041700
     41 H24         5.1990   -9.4090    9.2520 hc        1 1EX      0.039700
     42 H25         3.4180   -9.6110    9.4720 hc        1 1EX      0.039700
     43 H26         5.3570   -8.3320   11.5320 hc        1 1EX      0.055700
     44 H27         3.5780   -8.5340   11.7510 hc        1 1EX      0.055700
     45 H28         3.8200  -11.0340   11.5100 h1        1 1EX      0.019700
     46 H29         5.6210  -10.8300   11.2890 h1        1 1EX      0.019700
     47 H30         5.0060  -11.2000   13.4760 ho        1 1EX      0.398000
@<TRIPOS>BOND
     1    1    2 1   
     2    1   18 1   
     3    1   19 1   
     4    1   20 1   
     5    2    3 1   
     6    2   21 1   
     7    2   22 1   
     8    3    4 2   
     9    3   23 1   
    10    4    5 1   
    11    4   24 1   
    12    5    6 2   
    13    5   25 1   
    14    6    7 1   
    15    6   26 1   
    16    7    8 1   
    17    7   27 1   
    18    7   28 1   
    19    8    9 1   
    20    8   29 1   
    21    8   30 1   
    22    9   10 1   
    23    9   31 1   
    24    9   32 1   
    25   10   11 1   
    26   10   33 1   
    27   10   34 1   
    28   11   12 1   
    29   11   35 1   
    30   11   36 1   
    31   12   13 1   
    32   12   37 1   
    33   12   38 1   
    34   13   14 1   
    35   13   39 1   
    36   13   40 1   
    37   14   15 1   
    38   14   41 1   
    39   14   42 1   
    40   15   16 1   
    41   15   43 1   
    42   15   44 1   
    43   16   17 1   
    44   16   45 1   
    45   16   46 1   
    46   17   47 1   
@<TRIPOS>SUBSTRUCTURE
     1 1EX         1 TEMP              0 ****  ****    0 ROOT
