@<TRIPOS>MOLECULE
1EX
   47    44     1     0     0
SMALL
bcc


@<TRIPOS>ATOM
      1 CAA        -5.9510    6.0990   -3.0510 c3        1 1EX     -0.210000
      2 CAH        -5.1450    4.8260   -3.1920 c3        1 1EX     -0.136000
      3 CAF        -5.0280    4.1520   -1.8430 c2        1 1EX     -0.149000
      4 CAD        -4.3100    3.0190   -1.7160 c1        1 1EX     -0.146000
      5 CAE        -3.6200    2.4210   -2.9230 c1        1 1EX     -0.147000
      6 CAG        -2.6620    1.4880   -2.7580 c1        1 1EX     -0.147000
      7 CAJ        -2.2750    1.0390   -1.3660 c2        1 1EX     -0.135000
      8 CAL        -1.1760    0.0030   -1.4580 c3        1 1EX     -0.157000
      9 CAN        -0.6300   -0.2770   -0.0750 c3        1 1EX     -0.158000
     10 CAP         0.4880   -1.2910   -0.1700 c3        1 1EX     -0.157000
     11 CAQ         1.1570   -1.4320    1.1800 c3        1 1EX     -0.158000
     12 CAO         2.3380   -2.3710    1.0620 c3        1 1EX     -0.158000
     13 CAM         3.0770   -2.4190    2.3800 c3        1 1EX     -0.157000
     14 CAK         4.2840   -3.3220    2.2490 c3        1 1EX     -0.157000
     15 CAI         5.0890   -3.2780    3.5300 c3        1 1EX     -0.163000
     16 CAC         6.3140   -4.1540    3.3860 c3        1 1EX     -0.019000
     17 OAB         7.1860   -3.9230    4.4700 oh        1 1EX     -0.329000
     18 H1         -6.8830    5.8740   -2.8480 hc        1 1EX      0.073667
     19 H2         -5.5800    6.6420   -2.3250 hc        1 1EX      0.073667
     20 H3         -5.9120    6.6050   -3.8900 hc        1 1EX      0.073667
     21 H4         -4.2520    5.0410   -3.5280 hc        1 1EX      0.089000
     22 H5         -5.5930    4.2240   -3.8190 hc        1 1EX      0.089000
     23 H6         -5.4730    4.5370   -1.0640 ha        1 1EX      0.121000
     24 H7         -4.2340    2.5840   -0.8450 ha        1 1EX      0.121000
     25 H8         -3.8700    2.7110   -3.8210 ha        1 1EX      0.121000
     26 H9         -2.2170    1.1030   -3.5370 ha        1 1EX      0.121000
     27 H10        -3.0540    0.6490   -0.9210 ha        1 1EX      0.090000
     28 H11        -1.9560    1.8080   -0.8520 ha        1 1EX      0.090000
     29 H12        -1.5370   -0.8220   -1.8390 hc        1 1EX      0.081000
     30 H13        -0.4580    0.3400   -2.0300 hc        1 1EX      0.081000
     31 H14        -1.3440   -0.6320    0.4920 hc        1 1EX      0.080000
     32 H15        -0.2870    0.5520    0.3140 hc        1 1EX      0.080000
     33 H16         0.1220   -2.1550   -0.4450 hc        1 1EX      0.079000
     34 H17         1.1450   -0.9910   -0.8300 hc        1 1EX      0.079000
     35 H18         1.4670   -0.5560    1.4840 hc        1 1EX      0.080000
     36 H19         0.5160   -1.7940    1.8250 hc        1 1EX      0.080000
     37 H20         2.0200   -3.2670    0.8330 hc        1 1EX      0.079000
     38 H21         2.9400   -2.0500    0.3610 hc        1 1EX      0.079000
     39 H22         2.4830   -2.7680    3.0750 hc        1 1EX      0.081000
     40 H23         3.3690   -1.5180    2.6240 hc        1 1EX      0.081000
     41 H24         4.8400   -3.0160    1.5040 hc        1 1EX      0.079000
     42 H25         3.9890   -4.2390    2.0810 hc        1 1EX      0.079000
     43 H26         4.5400   -3.6040    4.2710 hc        1 1EX      0.095000
     44 H27         5.3660   -2.3570    3.7090 hc        1 1EX      0.095000
     45 H28         6.0430   -5.0950    3.3790 h1        1 1EX      0.059000
     46 H29         6.7720   -3.9390    2.5470 h1        1 1EX      0.059000
     47 H30         7.9020   -4.4460    4.3910 ho        1 1EX      0.197000
@<TRIPOS>BOND
     1    1    2 1   
     2    1   18 1   
     3    1   19 1   
     4    1   20 1   
     5    2    3 1   
     6    2   21 1   
     7    2   22 1   
     8    3    4 1   
     9    3   23 1   
    10    4   24 1   
    11    5    6 1   
    12    5   25 1   
    13    6   26 1   
    14    7    8 1   
    15    7   27 1   
    16    7   28 1   
    17    8    9 1   
    18    8   29 1   
    19    8   30 1   
    20    9   10 1   
    21    9   31 1   
    22    9   32 1   
    23   10   11 1   
    24   10   33 1   
    25   10   34 1   
    26   11   12 1   
    27   11   35 1   
    28   11   36 1   
    29   12   13 1   
    30   12   37 1   
    31   12   38 1   
    32   13   14 1   
    33   13   39 1   
    34   13   40 1   
    35   14   15 1   
    36   14   41 1   
    37   14   42 1   
    38   15   16 1   
    39   15   43 1   
    40   15   44 1   
    41   16   17 1   
    42   16   45 1   
    43   16   46 1   
    44   17   47 1   
@<TRIPOS>SUBSTRUCTURE
     1 1EX         1 TEMP              0 ****  ****    0 ROOT
