@<TRIPOS>MOLECULE
1EY
   45    44     1     0     0
SMALL
bcc


@<TRIPOS>ATOM
      1 CAA         1.5390    1.6680   -1.1310 c3        1 1EY     -0.092100
      2 CAG         1.8430    0.2800   -0.6250 c3        1 1EY     -0.054200
      3 CAE         1.9850    0.2360    0.8500 c2        1 1EY     -0.152200
      4 CAC         2.2550   -0.8680    1.5620 ce        1 1EY     -0.146000
      5 CAD         2.4490   -2.1860    0.9980 ce        1 1EY     -0.144000
      6 CAF         2.7190   -3.2900    1.7100 c2        1 1EY     -0.154200
      7 CAI         2.8610   -3.3330    3.1840 c3        1 1EY     -0.052200
      8 CAK         3.1650   -4.7290    3.6880 c3        1 1EY     -0.078400
      9 CAM         3.3050   -4.7470    5.1950 c3        1 1EY     -0.079400
     10 CAO         3.6080   -6.1410    5.7010 c3        1 1EY     -0.079400
     11 CAQ         3.7490   -6.1590    7.2080 c3        1 1EY     -0.079400
     12 CAP         4.0510   -7.5530    7.7140 c3        1 1EY     -0.079400
     13 CAN         4.1910   -7.5710    9.2210 c3        1 1EY     -0.078400
     14 CAL         4.4930   -8.9650    9.7270 c3        1 1EY     -0.076400
     15 CAJ         4.6350   -8.9790   11.2330 c3        1 1EY     -0.204400
     16 CAH         4.9080  -10.3560   11.7520 c         1 1EY      0.564900
     17 OAB         5.5180  -10.5680   12.8010 o         1 1EY     -0.528100
     18 H1          1.4400    1.6590   -2.2430 hc        1 1EY      0.034367
     19 H2          0.5840    2.0480   -0.6940 hc        1 1EY      0.034367
     20 H3          2.3570    2.3770   -0.8560 hc        1 1EY      0.034367
     21 H4          2.7910   -0.0920   -1.1030 hc        1 1EY      0.049700
     22 H5          1.0220   -0.4210   -0.9420 hc        1 1EY      0.049700
     23 H6          1.8540    1.2000    1.3690 ha        1 1EY      0.121000
     24 H7          2.3420   -0.7970    2.6610 ha        1 1EY      0.121000
     25 H8          2.3620   -2.2570   -0.1010 ha        1 1EY      0.121000
     26 H9          2.8500   -4.2540    1.1900 ha        1 1EY      0.121000
     27 H10         3.6830   -2.6350    3.5030 hc        1 1EY      0.050700
     28 H11         1.9150   -2.9610    3.6650 hc        1 1EY      0.050700
     29 H12         2.3440   -5.4280    3.3780 hc        1 1EY      0.041700
     30 H13         4.1120   -5.1020    3.2170 hc        1 1EY      0.041700
     31 H14         4.1260   -4.0480    5.5040 hc        1 1EY      0.040700
     32 H15         2.3580   -4.3730    5.6650 hc        1 1EY      0.040700
     33 H16         4.5560   -6.5140    5.2300 hc        1 1EY      0.040200
     34 H17         2.7870   -6.8400    5.3910 hc        1 1EY      0.040200
     35 H18         4.5700   -5.4600    7.5180 hc        1 1EY      0.040700
     36 H19         2.8010   -5.7850    7.6790 hc        1 1EY      0.040700
     37 H20         4.9990   -7.9270    7.2440 hc        1 1EY      0.041200
     38 H21         3.2300   -8.2520    7.4040 hc        1 1EY      0.041200
     39 H22         3.2440   -7.1960    9.6920 hc        1 1EY      0.042700
     40 H23         5.0130   -6.8720    9.5310 hc        1 1EY      0.042700
     41 H24         5.4410   -9.3380    9.2560 hc        1 1EY      0.043700
     42 H25         3.6710   -9.6630    9.4160 hc        1 1EY      0.043700
     43 H26         5.4540   -8.2810   11.5510 hc        1 1EY      0.074200
     44 H27         3.6850   -8.6120   11.7100 hc        1 1EY      0.074200
     45 H28         4.5120  -11.1920   11.1320 h4        1 1EY     -0.006800
@<TRIPOS>BOND
     1    1    2 1   
     2    1   18 1   
     3    1   19 1   
     4    1   20 1   
     5    2    3 1   
     6    2   21 1   
     7    2   22 1   
     8    3    4 2   
     9    3   23 1   
    10    4    5 1   
    11    4   24 1   
    12    5    6 2   
    13    5   25 1   
    14    6    7 1   
    15    6   26 1   
    16    7    8 1   
    17    7   27 1   
    18    7   28 1   
    19    8    9 1   
    20    8   29 1   
    21    8   30 1   
    22    9   10 1   
    23    9   31 1   
    24    9   32 1   
    25   10   11 1   
    26   10   33 1   
    27   10   34 1   
    28   11   12 1   
    29   11   35 1   
    30   11   36 1   
    31   12   13 1   
    32   12   37 1   
    33   12   38 1   
    34   13   14 1   
    35   13   39 1   
    36   13   40 1   
    37   14   15 1   
    38   14   41 1   
    39   14   42 1   
    40   15   16 1   
    41   15   43 1   
    42   15   44 1   
    43   16   17 2   
    44   16   45 1   
@<TRIPOS>SUBSTRUCTURE
     1 1EY         1 TEMP              0 ****  ****    0 ROOT
