@<TRIPOS>MOLECULE
1EY
   45    44     1     0     0
SMALL
bcc


@<TRIPOS>ATOM
      1 CAA         1.6400    1.6890   -1.1370 c3        1 1EY     -0.092100
      2 CAG         1.8680    0.2890   -0.6230 c3        1 1EY     -0.054200
      3 CAE         2.1170    0.2580    0.8380 c2        1 1EY     -0.152200
      4 CAC         2.3470   -0.8520    1.5530 ce        1 1EY     -0.146000
      5 CAD         2.3870   -2.1920    1.0080 ce        1 1EY     -0.144000
      6 CAF         2.6140   -3.3020    1.7240 c2        1 1EY     -0.154200
      7 CAI         2.8580   -3.3320    3.1850 c3        1 1EY     -0.052200
      8 CAK         3.0710   -4.7420    3.6990 c3        1 1EY     -0.078400
      9 CAM         3.3170   -4.7460    5.1920 c3        1 1EY     -0.079400
     10 CAO         3.5290   -6.1530    5.7090 c3        1 1EY     -0.079400
     11 CAQ         3.7760   -6.1580    7.2030 c3        1 1EY     -0.079400
     12 CAP         3.9850   -7.5650    7.7200 c3        1 1EY     -0.079400
     13 CAN         4.2320   -7.5690    9.2130 c3        1 1EY     -0.078400
     14 CAL         4.4410   -8.9760    9.7300 c3        1 1EY     -0.076400
     15 CAJ         4.6880   -8.9770   11.2220 c3        1 1EY     -0.204400
     16 CAH         4.8700  -10.3640   11.7540 c         1 1EY      0.564900
     17 OAB         5.5330  -10.6140   12.7620 o         1 1EY     -0.528100
     18 H1          1.4560    1.6690   -2.2390 hc        1 1EY      0.034367
     19 H2          0.7550    2.1540   -0.6400 hc        1 1EY      0.034367
     20 H3          2.5310    2.3320   -0.9400 hc        1 1EY      0.034367
     21 H4          2.7430   -0.1690   -1.1610 hc        1 1EY      0.049700
     22 H5          0.9710   -0.3470   -0.8630 hc        1 1EY      0.049700
     23 H6          2.1060    1.2390    1.3430 ha        1 1EY      0.121000
     24 H7          2.5230   -0.7700    2.6410 ha        1 1EY      0.121000
     25 H8          2.2160   -2.2730   -0.0810 ha        1 1EY      0.121000
     26 H9          2.6260   -4.2830    1.2180 ha        1 1EY      0.121000
     27 H10         3.7600   -2.7070    3.4290 hc        1 1EY      0.050700
     28 H11         1.9860   -2.8680    3.7220 hc        1 1EY      0.050700
     29 H12         2.1710   -5.3690    3.4640 hc        1 1EY      0.041700
     30 H13         3.9450   -5.2070    3.1720 hc        1 1EY      0.041700
     31 H14         4.2180   -4.1200    5.4270 hc        1 1EY      0.040700
     32 H15         2.4440   -4.2790    5.7200 hc        1 1EY      0.040700
     33 H16         4.4020   -6.6200    5.1820 hc        1 1EY      0.040200
     34 H17         2.6280   -6.7790    5.4750 hc        1 1EY      0.040200
     35 H18         4.6770   -5.5320    7.4370 hc        1 1EY      0.040700
     36 H19         2.9020   -5.6900    7.7300 hc        1 1EY      0.040700
     37 H20         4.8590   -8.0330    7.1930 hc        1 1EY      0.041200
     38 H21         3.0840   -8.1900    7.4850 hc        1 1EY      0.041200
     39 H22         3.3590   -7.1000    9.7400 hc        1 1EY      0.042700
     40 H23         5.1340   -6.9440    9.4480 hc        1 1EY      0.042700
     41 H24         5.3140   -9.4440    9.2030 hc        1 1EY      0.043700
     42 H25         3.5380   -9.6010    9.4940 hc        1 1EY      0.043700
     43 H26         5.5890   -8.3530   11.4660 hc        1 1EY      0.074200
     44 H27         3.8130   -8.5160   11.7560 hc        1 1EY      0.074200
     45 H28         4.3550  -11.1700   11.1840 h4        1 1EY     -0.006800
@<TRIPOS>BOND
     1    1    2 1   
     2    1   18 1   
     3    1   19 1   
     4    1   20 1   
     5    2    3 1   
     6    2   21 1   
     7    2   22 1   
     8    3    4 2   
     9    3   23 1   
    10    4    5 1   
    11    4   24 1   
    12    5    6 2   
    13    5   25 1   
    14    6    7 1   
    15    6   26 1   
    16    7    8 1   
    17    7   27 1   
    18    7   28 1   
    19    8    9 1   
    20    8   29 1   
    21    8   30 1   
    22    9   10 1   
    23    9   31 1   
    24    9   32 1   
    25   10   11 1   
    26   10   33 1   
    27   10   34 1   
    28   11   12 1   
    29   11   35 1   
    30   11   36 1   
    31   12   13 1   
    32   12   37 1   
    33   12   38 1   
    34   13   14 1   
    35   13   39 1   
    36   13   40 1   
    37   14   15 1   
    38   14   41 1   
    39   14   42 1   
    40   15   16 1   
    41   15   43 1   
    42   15   44 1   
    43   16   17 2   
    44   16   45 1   
@<TRIPOS>SUBSTRUCTURE
     1 1EY         1 TEMP              0 ****  ****    0 ROOT
