@<TRIPOS>MOLECULE
1EY
   45    42     1     0     0
SMALL
bcc


@<TRIPOS>ATOM
      1 CAA        -7.0790    4.0980   -3.1030 c3        1 1EY     -0.210000
      2 CAG        -5.8510    3.2180   -3.1830 c3        1 1EY     -0.137000
      3 CAE        -5.5340    2.6680   -1.8100 c2        1 1EY     -0.148000
      4 CAC        -4.4750    1.8520   -1.6390 c1        1 1EY     -0.146000
      5 CAD        -3.6030    1.4870   -2.8200 c1        1 1EY     -0.147000
      6 CAF        -2.4420    0.8310   -2.6230 c1        1 1EY     -0.147000
      7 CAI        -2.0110    0.4620   -1.2210 c2        1 1EY     -0.135000
      8 CAK        -0.7070   -0.3030   -1.2790 c3        1 1EY     -0.157000
      9 CAM        -0.1450   -0.4510    0.1180 c3        1 1EY     -0.158000
     10 CAO         1.1850   -1.1690    0.0530 c3        1 1EY     -0.158000
     11 CAQ         1.8400   -1.1410    1.4170 c3        1 1EY     -0.158000
     12 CAP         3.1660   -1.8660    1.3540 c3        1 1EY     -0.158000
     13 CAN         3.8890   -1.7090    2.6730 c3        1 1EY     -0.157000
     14 CAL         5.2440   -2.3770    2.5880 c3        1 1EY     -0.155000
     15 CAJ         6.0580   -2.0250    3.8140 c3        1 1EY     -0.233000
     16 CAH         7.4060   -2.7060    3.7370 c2        1 1EY      0.183000
     17 OAB         8.4180   -2.0410    3.6170 o         1 1EY     -0.289000
     18 H1         -6.9040    4.8490   -2.4980 hc        1 1EY      0.073667
     19 H2         -7.2940    4.4400   -3.9960 hc        1 1EY      0.073667
     20 H3         -7.8340    3.5740   -2.7630 hc        1 1EY      0.073667
     21 H4         -5.0930    3.7450   -3.5060 hc        1 1EY      0.089000
     22 H5         -6.0190    2.4780   -3.8000 hc        1 1EY      0.089000
     23 H6         -6.0960    2.9040   -1.0480 ha        1 1EY      0.121000
     24 H7         -4.2710    1.4980   -0.7520 ha        1 1EY      0.121000
     25 H8         -3.8820    1.7250   -3.7240 ha        1 1EY      0.121000
     26 H9         -1.8800    0.5950   -3.3850 ha        1 1EY      0.121000
     27 H10        -1.8870    1.2760   -0.6920 ha        1 1EY      0.090000
     28 H11        -2.6980   -0.0960   -0.8040 ha        1 1EY      0.090000
     29 H12        -0.8660   -1.1890   -1.6620 hc        1 1EY      0.081000
     30 H13        -0.0680    0.1830   -1.8380 hc        1 1EY      0.081000
     31 H14        -0.0190    0.4340    0.5130 hc        1 1EY      0.080000
     32 H15        -0.7680   -0.9680    0.6660 hc        1 1EY      0.080000
     33 H16         1.7650   -0.7230   -0.5960 hc        1 1EY      0.079500
     34 H17         1.0420   -2.0970   -0.2210 hc        1 1EY      0.079500
     35 H18         1.9880   -0.2130    1.6880 hc        1 1EY      0.080000
     36 H19         1.2570   -1.5810    2.0670 hc        1 1EY      0.080000
     37 H20         3.0100   -2.8160    1.1790 hc        1 1EY      0.080500
     38 H21         3.7110   -1.4880    0.6360 hc        1 1EY      0.080500
     39 H22         4.0060   -0.7580    2.8700 hc        1 1EY      0.082000
     40 H23         3.3640   -2.1270    3.3850 hc        1 1EY      0.082000
     41 H24         5.1280   -3.3470    2.5420 hc        1 1EY      0.083000
     42 H25         5.7110   -2.0660    1.7870 hc        1 1EY      0.083000
     43 H26         5.5860   -2.3260    4.6160 hc        1 1EY      0.113500
     44 H27         6.1840   -1.0560    3.8550 hc        1 1EY      0.113500
     45 H28         7.4650   -3.6810    3.7870 h4        1 1EY      0.086000
@<TRIPOS>BOND
     1    1    2 1   
     2    1   18 1   
     3    1   19 1   
     4    1   20 1   
     5    2    3 1   
     6    2   21 1   
     7    2   22 1   
     8    3    4 1   
     9    3   23 1   
    10    4   24 1   
    11    5    6 1   
    12    5   25 1   
    13    6   26 1   
    14    7    8 1   
    15    7   27 1   
    16    7   28 1   
    17    8    9 1   
    18    8   29 1   
    19    8   30 1   
    20    9   10 1   
    21    9   31 1   
    22    9   32 1   
    23   10   11 1   
    24   10   33 1   
    25   10   34 1   
    26   11   12 1   
    27   11   35 1   
    28   11   36 1   
    29   12   13 1   
    30   12   37 1   
    31   12   38 1   
    32   13   14 1   
    33   13   39 1   
    34   13   40 1   
    35   14   15 1   
    36   14   41 1   
    37   14   42 1   
    38   15   16 1   
    39   15   43 1   
    40   15   44 1   
    41   16   17 1   
    42   16   45 1   
@<TRIPOS>SUBSTRUCTURE
     1 1EY         1 TEMP              0 ****  ****    0 ROOT
