@<TRIPOS>MOLECULE
1EY
   45    44     1     0     0
SMALL
bcc


@<TRIPOS>ATOM
      1 CAA         9.3870    0.8600    0.5390 c3        1 1EY     -0.092100
      2 CAG         8.0750    0.4390   -0.0740 c3        1 1EY     -0.054200
      3 CAE         6.9120    0.8380    0.7530 c2        1 1EY     -0.152200
      4 CAC         5.6300    0.5910    0.4460 ce        1 1EY     -0.146000
      5 CAD         5.1870   -0.1050   -0.7420 ce        1 1EY     -0.144000
      6 CAF         3.9060   -0.3520   -1.0500 c2        1 1EY     -0.154200
      7 CAI         2.7440    0.0490   -0.2230 c3        1 1EY     -0.052200
      8 CAK         1.4280   -0.3740   -0.8440 c3        1 1EY     -0.078400
      9 CAM         0.2580    0.0470    0.0190 c3        1 1EY     -0.079400
     10 CAO        -1.0590   -0.3740   -0.5990 c3        1 1EY     -0.079400
     11 CAQ        -2.2290    0.0470    0.2640 c3        1 1EY     -0.079400
     12 CAP        -3.5450   -0.3740   -0.3540 c3        1 1EY     -0.079400
     13 CAN        -4.7150    0.0470    0.5090 c3        1 1EY     -0.078400
     14 CAL        -6.0310   -0.3740   -0.1100 c3        1 1EY     -0.076400
     15 CAJ        -7.1980    0.0470    0.7550 c3        1 1EY     -0.204400
     16 CAH        -8.5100   -0.3390    0.1450 c         1 1EY      0.564900
     17 OAB        -9.5220   -0.5540    0.8120 o         1 1EY     -0.528100
     18 H1         10.2360    0.5410   -0.1130 hc        1 1EY      0.034367
     19 H2          9.4300    1.9700    0.6570 hc        1 1EY      0.034367
     20 H3          9.5210    0.3950    1.5450 hc        1 1EY      0.034367
     21 H4          7.9780    0.8930   -1.0980 hc        1 1EY      0.049700
     22 H5          8.0690   -0.6770   -0.2120 hc        1 1EY      0.049700
     23 H6          7.1540    1.3780    1.6850 ha        1 1EY      0.121000
     24 H7          4.8330    0.9310    1.1310 ha        1 1EY      0.121000
     25 H8          5.9850   -0.4450   -1.4270 ha        1 1EY      0.121000
     26 H9          3.6640   -0.8910   -1.9820 ha        1 1EY      0.121000
     27 H10         2.8360   -0.4070    0.8010 hc        1 1EY      0.050700
     28 H11         2.7480    1.1650   -0.0830 hc        1 1EY      0.050700
     29 H12         1.3280    0.0840   -1.8630 hc        1 1EY      0.041700
     30 H13         1.4150   -1.4870   -0.9780 hc        1 1EY      0.041700
     31 H14         0.3580   -0.4110    1.0390 hc        1 1EY      0.040700
     32 H15         0.2710    1.1610    0.1540 hc        1 1EY      0.040700
     33 H16        -1.1590    0.0840   -1.6180 hc        1 1EY      0.040200
     34 H17        -1.0720   -1.4880   -0.7340 hc        1 1EY      0.040200
     35 H18        -2.1290   -0.4110    1.2830 hc        1 1EY      0.040700
     36 H19        -2.2160    1.1600    0.3990 hc        1 1EY      0.040700
     37 H20        -3.6450    0.0840   -1.3740 hc        1 1EY      0.041200
     38 H21        -3.5590   -1.4880   -0.4890 hc        1 1EY      0.041200
     39 H22        -4.6160   -0.4110    1.5280 hc        1 1EY      0.042700
     40 H23        -4.7020    1.1610    0.6440 hc        1 1EY      0.042700
     41 H24        -6.1300    0.0850   -1.1300 hc        1 1EY      0.043700
     42 H25        -6.0440   -1.4880   -0.2440 hc        1 1EY      0.043700
     43 H26        -7.1060   -0.4060    1.7780 hc        1 1EY      0.074200
     44 H27        -7.1950    1.1630    0.8880 hc        1 1EY      0.074200
     45 H28        -8.5210   -0.4100   -0.9670 h4        1 1EY     -0.006800
@<TRIPOS>BOND
     1    1    2 1   
     2    1   18 1   
     3    1   19 1   
     4    1   20 1   
     5    2    3 1   
     6    2   21 1   
     7    2   22 1   
     8    3    4 2   
     9    3   23 1   
    10    4    5 1   
    11    4   24 1   
    12    5    6 2   
    13    5   25 1   
    14    6    7 1   
    15    6   26 1   
    16    7    8 1   
    17    7   27 1   
    18    7   28 1   
    19    8    9 1   
    20    8   29 1   
    21    8   30 1   
    22    9   10 1   
    23    9   31 1   
    24    9   32 1   
    25   10   11 1   
    26   10   33 1   
    27   10   34 1   
    28   11   12 1   
    29   11   35 1   
    30   11   36 1   
    31   12   13 1   
    32   12   37 1   
    33   12   38 1   
    34   13   14 1   
    35   13   39 1   
    36   13   40 1   
    37   14   15 1   
    38   14   41 1   
    39   14   42 1   
    40   15   16 1   
    41   15   43 1   
    42   15   44 1   
    43   16   17 2   
    44   16   45 1   
@<TRIPOS>SUBSTRUCTURE
     1 1EY         1 TEMP              0 ****  ****    0 ROOT
