@<TRIPOS>MOLECULE
1EZ
   49    48     1     0     0
SMALL
bcc


@<TRIPOS>ATOM
      1 C10        -0.2600    0.2380    0.6160 c3        1 1EZ      0.154000
      2 C13        -1.9450    0.5290   -1.1590 c2        1 1EZ     -0.173000
      3 C15        -4.8850    1.2400   -1.7640 c2        1 1EZ     -0.104000
      4 C17        -1.6810   -0.1970    1.0910 c2        1 1EZ      0.313000
      5 C20        -5.6840    0.5230   -0.9670 c2        1 1EZ     -0.242000
      6 C21        -2.5010    0.8400   -2.3350 c2        1 1EZ     -0.068000
      7 C22        -2.6460   -0.0870    0.0080 c3        1 1EZ     -0.206000
      8 C24         2.2820   -0.4800    3.8940 c1        1 1EZ      0.354000
      9 N01         5.2130   -1.3250    6.1960 n9        1 1EZ     -0.476000
     10 O03         3.4440    0.6020    7.1020 o         1 1EZ     -0.503900
     11 O04         4.9490    1.3300    5.4440 o         1 1EZ     -0.503900
     12 C05         3.0210    0.0040    4.7850 c1        1 1EZ     -1.402000
     13 C06         4.1700   -0.9620    0.6290 c2        1 1EZ     -0.105000
     14 C07         2.9540   -0.9200    1.0730 c1        1 1EZ     -0.214000
     15 C08         1.7210   -0.9180    1.5510 c2        1 1EZ      0.069000
     16 N09         0.5850   -0.9540    0.6780 n7        1 1EZ     -0.294000
     17 O11         0.0920    1.3610    1.4050 oh        1 1EZ     -0.309000
     18 C12        -0.5160    0.8010   -0.8230 c3        1 1EZ     -0.144000
     19 C14        -4.9240    2.7250   -1.7800 c3        1 1EZ     -0.196000
     20 C16        -1.9690   -0.6360    2.4280 c3        1 1EZ     -0.303000
     21 C18        -4.1860   -0.8320   -3.0350 c3        1 1EZ     -0.206000
     22 C19        -3.9230    0.6340   -2.7440 c3        1 1EZ     -0.068000
     23 C23         1.4510   -0.9590    2.9870 c2        1 1EZ     -0.343000
     24 H1         -3.8890    3.1460   -1.7490 hc        1 1EZ      0.093000
     25 H2         -1.4640    0.0360    3.1830 hc        1 1EZ      0.180667
     26 H3         -5.7030   -0.5740   -0.9660 ha        1 1EZ      0.122000
     27 H4         -6.4070    1.0000   -0.2900 ha        1 1EZ      0.122000
     28 H5         -4.0750    1.1940   -3.7190 hc        1 1EZ      0.125000
     29 H6         -1.8640    1.2960   -3.1170 ha        1 1EZ      0.148000
     30 H7         -3.5610    0.5200    0.3060 hc        1 1EZ      0.206000
     31 H8         -3.0630   -1.1120   -0.2460 hc        1 1EZ      0.206000
     32 H9          0.5540   -1.5030    3.3240 ha        1 1EZ      0.158000
     33 H10         5.1150   -1.5760    7.1620 hn        1 1EZ      0.187000
     34 H11         6.1660   -1.0700    6.0140 hn        1 1EZ      0.187000
     35 H12         4.6700   -1.9080    0.3660 ha        1 1EZ      0.149500
     36 H13         4.7780   -0.0520    0.4910 ha        1 1EZ      0.149500
     37 H14         0.8550   -1.2380   -0.2480 hn        1 1EZ      0.210000
     38 H15         0.1740    0.3400   -1.5730 hc        1 1EZ      0.139500
     39 H16        -0.3140    1.9060   -0.8070 hc        1 1EZ      0.139500
     40 H17        -5.4170    3.0790   -2.7210 hc        1 1EZ      0.093000
     41 H18        -5.5010    3.1290   -0.9120 hc        1 1EZ      0.093000
     42 H19        -1.4960   -1.6590    2.5750 hc        1 1EZ      0.180667
     43 H20        -3.0620   -0.7120    2.6550 hc        1 1EZ      0.180667
     44 H21        -3.9850   -1.4670   -2.1390 hc        1 1EZ      0.084667
     45 H22        -3.5270   -1.1800   -3.8670 hc        1 1EZ      0.084667
     46 H23        -5.2510   -0.9750   -3.3400 hc        1 1EZ      0.084667
     47 H24         0.6530    1.0970    2.1530 ho        1 1EZ      0.252000
     48 H013        4.9590   -2.1030    5.6200 hn        1 1EZ      0.187000
     49 S02         3.8640    0.5650    5.7950 s4        1 1EZ      2.205800
@<TRIPOS>BOND
     1    1    4 1   
     2    1   16 1   
     3    1   17 1   
     4    1   18 1   
     5    2    6 1   
     6    2    7 1   
     7    2   18 1   
     8    3    5 1   
     9    3   19 1   
    10    3   22 1   
    11    4    7 1   
    12    4   20 1   
    13    5   26 1   
    14    5   27 1   
    15    6   22 1   
    16    6   29 1   
    17    7   30 1   
    18    7   31 1   
    19    8   12 1   
    20    8   23 1   
    21    9   33 1   
    22    9   34 1   
    23    9   48 1   
    24   10   49 1   
    25   11   49 1   
    26   12   49 1   
    27   13   14 1   
    28   13   35 1   
    29   13   36 1   
    30   14   15 1   
    31   15   16 1   
    32   15   23 1   
    33   16   37 1   
    34   17   47 1   
    35   18   38 1   
    36   18   39 1   
    37   19   24 1   
    38   19   40 1   
    39   19   41 1   
    40   20   25 1   
    41   20   42 1   
    42   20   43 1   
    43   21   22 1   
    44   21   44 1   
    45   21   45 1   
    46   21   46 1   
    47   22   28 1   
    48   23   32 1   
@<TRIPOS>SUBSTRUCTURE
     1 1EZ         1 TEMP              0 ****  ****    0 ROOT
