@<TRIPOS>MOLECULE
1EZ
   48    51     1     0     0
SMALL
bcc


@<TRIPOS>ATOM
      1 C10        -0.9820    0.8200   -1.3700 c         1 1EZ      0.672100
      2 C13        -3.3740    0.5890   -0.5260 c3        1 1EZ     -0.044000
      3 C15        -3.9980   -0.5780    1.6000 c3        1 1EZ     -0.060700
      4 C17        -4.6590   -1.5580   -0.5920 c3        1 1EZ     -0.060700
      5 C20        -5.3100    0.1990    1.6500 c3        1 1EZ     -0.071400
      6 C21        -4.7020    1.3580   -0.4660 c3        1 1EZ     -0.068733
      7 C22        -3.5990   -0.7180   -1.2940 c3        1 1EZ     -0.068733
      8 C24         3.2160   -0.5240   -1.0260 ca        1 1EZ      0.013000
      9 N01         6.3940    0.5060   -0.4960 n3        1 1EZ     -1.026700
     10 O03         5.7310   -1.8540   -0.3460 o         1 1EZ     -0.662300
     11 O04         5.8700   -0.5290    1.6700 o         1 1EZ     -0.662300
     12 C05         3.9600   -0.1170    0.0870 ca        1 1EZ     -0.429500
     13 C06         3.3230    0.6860    1.0410 ca        1 1EZ      0.013000
     14 C07         2.0050    1.0820    0.8920 ca        1 1EZ     -0.207000
     15 C08         1.2570    0.6770   -0.2470 ca        1 1EZ      0.138600
     16 N09        -0.0640    1.1140   -0.3600 n         1 1EZ     -0.474100
     17 O11        -0.6990    0.1020   -2.3430 o         1 1EZ     -0.576100
     18 C12        -2.3520    1.4670   -1.2420 c3        1 1EZ     -0.147400
     19 C14        -2.9310    0.2590    0.9020 c3        1 1EZ     -0.068733
     20 C16        -4.2040   -1.8770    0.8280 c3        1 1EZ     -0.071400
     21 C18        -5.9710   -0.7830   -0.5420 c3        1 1EZ     -0.071400
     22 C19        -5.7640    0.5160    0.2300 c3        1 1EZ     -0.060700
     23 C23         1.8940   -0.1430   -1.2060 ca        1 1EZ     -0.207000
     24 H1         -3.6600   -0.8100    2.6450 hc        1 1EZ      0.052700
     25 H2         -4.8090   -2.5140   -1.1610 hc        1 1EZ      0.052700
     26 H3         -6.0910   -0.4100    2.1720 hc        1 1EZ      0.043533
     27 H4         -5.1690    1.1480    2.2260 hc        1 1EZ      0.043533
     28 H5         -4.5550    2.3180    0.0920 hc        1 1EZ      0.045033
     29 H6         -5.0370    1.6080   -1.5050 hc        1 1EZ      0.045033
     30 H7         -3.9290   -0.4860   -2.3390 hc        1 1EZ      0.045033
     31 H8         -2.6350   -1.2860   -1.3600 hc        1 1EZ      0.045033
     32 H9          3.6890   -1.1850   -1.7760 ha        1 1EZ      0.153500
     33 H10         6.6460    0.4260   -1.4480 hn        1 1EZ      0.445300
     34 H11         6.7340    1.3340   -0.0780 hn        1 1EZ      0.445300
     35 H12         3.8840    0.9950    1.9430 ha        1 1EZ      0.153500
     36 H13         1.5420    1.7100    1.6690 ha        1 1EZ      0.158500
     37 H14        -0.4100    1.6450    0.4100 hn        1 1EZ      0.320500
     38 H15        -2.2830    2.4550   -0.7170 hc        1 1EZ      0.071700
     39 H16        -2.7110    1.6600   -2.2890 hc        1 1EZ      0.071700
     40 H17        -1.9740   -0.3230    0.8790 hc        1 1EZ      0.045033
     41 H18        -2.7550    1.2070    1.4720 hc        1 1EZ      0.045033
     42 H19        -3.2470   -2.4580    0.8000 hc        1 1EZ      0.043533
     43 H20        -4.9760   -2.5050    1.3420 hc        1 1EZ      0.043533
     44 H21        -6.3200   -0.5570   -1.5820 hc        1 1EZ      0.043533
     45 H22        -6.7590   -1.4010   -0.0400 hc        1 1EZ      0.043533
     46 H23        -6.7280    1.0910    0.2630 hc        1 1EZ      0.052700
     47 H24         1.3490   -0.4920   -2.1000 ha        1 1EZ      0.158500
     48 S02         5.5540   -0.6080    0.2950 sy        1 1EZ      1.533200
@<TRIPOS>BOND
     1    1   16 1   
     2    1   17 2   
     3    1   18 1   
     4    2    6 1   
     5    2    7 1   
     6    2   18 1   
     7    2   19 1   
     8    3    5 1   
     9    3   19 1   
    10    3   20 1   
    11    3   24 1   
    12    4    7 1   
    13    4   20 1   
    14    4   21 1   
    15    4   25 1   
    16    5   22 1   
    17    5   26 1   
    18    5   27 1   
    19    6   22 1   
    20    6   28 1   
    21    6   29 1   
    22    7   30 1   
    23    7   31 1   
    24    8   12 ar  
    25    8   23 ar  
    26    8   32 1   
    27    9   33 1   
    28    9   34 1   
    29    9   48 1   
    30   10   48 2   
    31   11   48 2   
    32   12   13 ar  
    33   12   48 1   
    34   13   14 ar  
    35   13   35 1   
    36   14   15 ar  
    37   14   36 1   
    38   15   16 1   
    39   15   23 ar  
    40   16   37 1   
    41   18   38 1   
    42   18   39 1   
    43   19   40 1   
    44   19   41 1   
    45   20   42 1   
    46   20   43 1   
    47   21   22 1   
    48   21   44 1   
    49   21   45 1   
    50   22   46 1   
    51   23   47 1   
@<TRIPOS>SUBSTRUCTURE
     1 1EZ         1 TEMP              0 ****  ****    0 ROOT
