@<TRIPOS>MOLECULE
1EZ
   48    47     1     0     0
SMALL
bcc


@<TRIPOS>ATOM
      1 C10         0.0980   -1.6750   -0.0360 c2        1 1EZ      0.160000
      2 C13        -1.2380   -0.6770   -1.8480 c2        1 1EZ     -0.227000
      3 C15        -3.1070    2.0270    0.3220 c2        1 1EZ     -0.194000
      4 C17        -4.1530   -2.2900    0.8670 c1        1 1EZ     -0.158000
      5 C20        -2.4960    2.3380   -0.9940 c3        1 1EZ     -0.129000
      6 C21        -2.3820   -0.0640   -1.5260 c2        1 1EZ     -0.112000
      7 C22        -3.7610   -3.3710    0.2630 c2        1 1EZ     -0.193500
      8 C24         2.4760   -0.7000    3.3000 c1        1 1EZ     -0.048000
      9 N01         5.3240    0.4630    2.9520 n3        1 1EZ     -0.950000
     10 O03         4.6370    0.7710    5.2940 o         1 1EZ     -0.948000
     11 O04         4.3070    2.5620    3.7290 o         1 1EZ     -0.948000
     12 C05         2.8190    0.5500    3.5740 c2        1 1EZ     -0.870000
     13 C06         1.6290    1.4930    3.3480 c3        1 1EZ     -0.072000
     14 C07         0.7020    1.0040    2.3330 c1        1 1EZ     -0.205000
     15 C08         0.7090   -0.2990    1.8930 c2        1 1EZ     -0.236000
     16 N09        -0.0840   -0.6590    0.7900 n3        1 1EZ     -0.049000
     17 O11         1.0600   -2.6260    0.0970 oh        1 1EZ     -0.231000
     18 C12        -0.8050   -1.9490   -1.2200 c3        1 1EZ     -0.101000
     19 C14        -2.4240    1.9090    1.4580 c2        1 1EZ     -0.231000
     20 C16        -4.5510   -1.2140    1.4750 c2        1 1EZ     -0.193500
     21 C18        -4.2310    1.2730   -2.4810 c3        1 1EZ     -0.208000
     22 C19        -2.7770    1.2720   -2.0550 c3        1 1EZ     -0.084000
     23 C23         1.4120   -1.2790    2.7340 c2        1 1EZ     -0.149000
     24 H1         -2.9290    1.7090    2.4140 ha        1 1EZ      0.138500
     25 H2         -3.9970   -0.2620    1.4210 ha        1 1EZ      0.137000
     26 H3         -2.9050    3.3190   -1.3610 hc        1 1EZ      0.095500
     27 H4         -1.3840    2.4570   -0.8890 hc        1 1EZ      0.095500
     28 H5         -2.1490    1.5230   -2.9580 hc        1 1EZ      0.097000
     29 H6         -3.0920   -0.5070   -0.8030 ha        1 1EZ      0.136000
     30 H7         -4.0840   -3.6240   -0.7580 ha        1 1EZ      0.137000
     31 H8         -3.1040   -4.1090    0.7470 ha        1 1EZ      0.137000
     32 H9          0.9810   -2.2490    2.9980 ha        1 1EZ      0.149000
     33 H10         5.7260   -0.4260    3.1040 hn        1 1EZ      0.236500
     34 H11         5.6160    0.8800    2.1060 hn        1 1EZ      0.236500
     35 H12         2.0640    2.4770    3.0040 hc        1 1EZ      0.144500
     36 H13         1.0540    1.6880    4.2940 hc        1 1EZ      0.144500
     37 H14        -0.8050    0.0200    0.5620 hn        1 1EZ      0.291000
     38 H15        -1.6850   -2.5500   -0.8460 hc        1 1EZ      0.138500
     39 H16        -0.2390   -2.5860   -1.9520 hc        1 1EZ      0.138500
     40 H17        -0.5400   -0.2520   -2.5870 ha        1 1EZ      0.143000
     41 H18        -1.3260    2.0110    1.5400 ha        1 1EZ      0.138500
     42 H19        -4.2060    1.9200    0.3050 ha        1 1EZ      0.116000
     43 H20        -5.4660   -1.1920    2.0850 ha        1 1EZ      0.137000
     44 H21        -4.8990    1.0240   -1.6210 hc        1 1EZ      0.080333
     45 H22        -4.3990    0.5210   -3.2890 hc        1 1EZ      0.080333
     46 H23        -4.5140    2.2820   -2.8680 hc        1 1EZ      0.080333
     47 H24         1.7140   -2.3900    0.7860 ho        1 1EZ      0.272000
     48 S02         4.3080    1.1660    3.9790 s6        1 1EZ      2.882000
@<TRIPOS>BOND
     1    1   16 1   
     2    1   17 1   
     3    1   18 1   
     4    2    6 1   
     5    2   18 1   
     6    2   40 1   
     7    3    5 1   
     8    3   19 1   
     9    3   42 1   
    10    4    7 1   
    11    4   20 1   
    12    5   22 1   
    13    5   26 1   
    14    5   27 1   
    15    6   22 1   
    16    6   29 1   
    17    7   30 1   
    18    7   31 1   
    19    8   12 1   
    20    8   23 1   
    21    9   33 1   
    22    9   34 1   
    23    9   48 1   
    24   10   48 1   
    25   11   48 1   
    26   12   13 1   
    27   12   48 1   
    28   13   14 1   
    29   13   35 1   
    30   13   36 1   
    31   14   15 1   
    32   15   16 1   
    33   15   23 1   
    34   16   37 1   
    35   17   47 1   
    36   18   38 1   
    37   18   39 1   
    38   19   24 1   
    39   19   41 1   
    40   20   25 1   
    41   20   43 1   
    42   21   22 1   
    43   21   44 1   
    44   21   45 1   
    45   21   46 1   
    46   22   28 1   
    47   23   32 1   
@<TRIPOS>SUBSTRUCTURE
     1 1EZ         1 TEMP              0 ****  ****    0 ROOT
