@<TRIPOS>MOLECULE
1EZ
   49    48     1     0     0
SMALL
bcc


@<TRIPOS>ATOM
      1 C10         1.4280   -0.0050   -0.7700 c2        1 1EZ      0.315000
      2 C13        -1.1100   -0.0670   -1.0700 c3        1 1EZ     -0.067000
      3 C15        -7.2990    2.3970   -0.5830 c2        1 1EZ     -0.196000
      4 C17        -1.8280   -1.7310    0.6160 c1        1 1EZ     -0.178000
      5 C20        -5.8440    2.1090   -0.6520 c3        1 1EZ     -0.187000
      6 C21        -2.1390    0.4510   -2.0610 c3        1 1EZ     -0.235000
      7 C22        -1.5110   -1.4320   -0.6130 c2        1 1EZ     -0.127000
      8 C24         2.7610   -0.8990    3.5990 c1        1 1EZ      0.095000
      9 N01         5.5050   -0.4190    5.8110 n4        1 1EZ     -0.502000
     10 O03         3.4200    1.0490    5.8580 o         1 1EZ     -0.849500
     11 O04         5.2600    1.7550    4.4900 o         1 1EZ     -0.849500
     12 C05         3.8950   -0.1860    3.7110 c2        1 1EZ     -1.055000
     13 C06         4.6140   -0.2290    2.3660 c3        1 1EZ     -0.055000
     14 C07         3.6660   -0.3870    1.2240 c2        1 1EZ     -0.145000
     15 C08         2.3760   -0.8540    1.3390 c2        1 1EZ      0.060000
     16 N09         1.4050   -0.8480    0.3530 n         1 1EZ     -0.324000
     17 O11         2.3940    0.7490   -0.9670 o         1 1EZ     -0.334000
     18 C12         0.2630   -0.0930   -1.7310 c3        1 1EZ     -0.179000
     19 C14        -7.9290    2.7800    0.5250 c2        1 1EZ     -0.208000
     20 C16        -2.1870   -2.0450    1.8220 c2        1 1EZ     -0.167000
     21 C18        -6.3080   -0.2020   -1.6310 c3        1 1EZ     -0.269000
     22 C19        -5.4090    0.8280   -1.1690 c1        1 1EZ     -0.093000
     23 C23         2.0850   -1.5180    2.6430 c2        1 1EZ     -0.057000
     24 H1         -9.0060    2.9980    0.5400 ha        1 1EZ      0.114000
     25 H2         -3.2300   -1.9520    2.1640 ha        1 1EZ      0.133000
     26 H3         -5.3460    2.8920   -1.3020 hc        1 1EZ      0.140500
     27 H4         -5.3660    2.2130    0.3680 hc        1 1EZ      0.140500
     28 H5         -3.1620    0.4650   -1.5960 hc        1 1EZ      0.101333
     29 H6         -1.8780    1.4900   -2.3730 hc        1 1EZ      0.101333
     30 H7         -2.1680   -0.1980   -2.9690 hc        1 1EZ      0.101333
     31 H8         -1.5690   -2.1980   -1.4090 ha        1 1EZ      0.150000
     32 H9          1.4540   -2.4120    2.7120 ha        1 1EZ      0.210000
     33 H10         5.1690   -0.5540    6.7610 hn        1 1EZ      0.245000
     34 H11         6.4440   -0.0320    5.8610 hn        1 1EZ      0.245000
     35 H12         5.3830   -1.0470    2.3170 hc        1 1EZ      0.142500
     36 H13         5.1480    0.7590    2.2440 hc        1 1EZ      0.142500
     37 H14         0.5960   -1.4180    0.4990 hn        1 1EZ      0.261000
     38 H15         0.3850   -1.0260   -2.3440 hc        1 1EZ      0.133500
     39 H16         0.3580    0.7860   -2.4270 hc        1 1EZ      0.133500
     40 H17        -1.0810    0.6390   -0.1930 hc        1 1EZ      0.102000
     41 H18        -7.4200    2.9040    1.4890 ha        1 1EZ      0.114000
     42 H19        -7.8430    2.2860   -1.5360 ha        1 1EZ      0.124000
     43 H20        -1.4810   -2.4280    2.5730 ha        1 1EZ      0.133000
     44 H21        -7.4050    0.0010   -1.5270 hc        1 1EZ      0.109333
     45 H22        -6.0800   -0.3900   -2.7160 hc        1 1EZ      0.109333
     46 H23        -6.0660   -1.1490   -1.0770 hc        1 1EZ      0.109333
     47 H24         4.0790   -0.1180    0.2330 ha        1 1EZ      0.208000
     48 H013        5.5620   -1.3260    5.3620 hn        1 1EZ      0.245000
     49 S02         4.3270    0.8070    4.8530 s6        1 1EZ      2.861000
@<TRIPOS>BOND
     1    1   16 1   
     2    1   17 1   
     3    1   18 1   
     4    2    6 1   
     5    2    7 1   
     6    2   18 1   
     7    2   40 1   
     8    3    5 1   
     9    3   19 1   
    10    3   42 1   
    11    4    7 1   
    12    4   20 1   
    13    5   22 1   
    14    5   26 1   
    15    5   27 1   
    16    6   28 1   
    17    6   29 1   
    18    6   30 1   
    19    7   31 1   
    20    8   12 1   
    21    8   23 1   
    22    9   33 1   
    23    9   34 1   
    24    9   48 1   
    25    9   49 1   
    26   10   49 1   
    27   11   49 1   
    28   12   13 1   
    29   12   49 1   
    30   13   14 1   
    31   13   35 1   
    32   13   36 1   
    33   14   15 1   
    34   14   47 1   
    35   15   16 1   
    36   15   23 1   
    37   16   37 1   
    38   18   38 1   
    39   18   39 1   
    40   19   24 1   
    41   19   41 1   
    42   20   25 1   
    43   20   43 1   
    44   21   22 1   
    45   21   44 1   
    46   21   45 1   
    47   21   46 1   
    48   23   32 1   
@<TRIPOS>SUBSTRUCTURE
     1 1EZ         1 TEMP              0 ****  ****    0 ROOT
