@<TRIPOS>MOLECULE
1F0
   97   101     1     0     0
SMALL
bcc


@<TRIPOS>ATOM
      1 N1          1.2450    0.1640   -0.2580 n         1 1F0     -0.410300
      2 C5          2.5650    0.2600    0.4450 c3        1 1F0      0.120700
      3 C57         3.3530    1.4990    0.0270 c3        1 1F0     -0.116100
      4 C51         3.3520   -1.0060    0.1610 ca        1 1F0     -0.067300
      5 C4          2.1350    0.3400    2.0160 c3        1 1F0      0.168500
      6 C47         2.3840    1.7410    2.6010 c3        1 1F0     -0.087100
      7 C41         2.9080   -0.6350    2.8740 ca        1 1F0     -0.062300
      8 N3          0.6740    0.0770    2.0060 n2        1 1F0     -0.579900
      9 C2          0.2350    0.0700    0.7740 ce        1 1F0      0.512500
     10 C21        -1.1710   -0.1450    0.3880 ca        1 1F0     -0.165900
     11 C56         4.7030   -0.9620   -0.2060 ca        1 1F0     -0.108000
     12 C55         5.4070   -2.1300   -0.4950 ca        1 1F0     -0.129000
     13 C54         4.7600   -3.3660   -0.4210 ca        1 1F0      0.020400
     14 CL5         5.6120   -4.7920   -0.7790 cl        1 1F0     -0.093400
     15 C53         3.4130   -3.4310   -0.0540 ca        1 1F0     -0.129000
     16 C52         2.7200   -2.2580    0.2320 ca        1 1F0     -0.108000
     17 C42         4.3040   -0.5190    2.9430 ca        1 1F0     -0.106500
     18 C43         5.0530   -1.3460    3.7750 ca        1 1F0     -0.128500
     19 C44         4.4040   -2.3060    4.5570 ca        1 1F0      0.019400
     20 CL4         5.3110   -3.3190    5.5790 cl        1 1F0     -0.098400
     21 C45         3.0150   -2.4330    4.5030 ca        1 1F0     -0.128500
     22 C46         2.2730   -1.5990    3.6670 ca        1 1F0     -0.106500
     23 C10         1.0090    1.0800   -1.3540 c         1 1F0      0.751100
     24 O10         0.4820    2.1970   -1.1600 o         1 1F0     -0.596100
     25 N10         1.4540    0.7190   -2.6400 n         1 1F0     -0.417800
     26 C14         1.7540   -0.6510   -3.0000 c3        1 1F0      0.071500
     27 C13         0.6010   -1.3660   -3.7370 c3        1 1F0      0.137800
     28 N12         0.0910   -0.6000   -4.8670 n3        1 1F0     -0.730600
     29 C12        -0.2110    0.7820   -4.5220 c3        1 1F0      0.137800
     30 C11         0.9340    1.4840   -3.7610 c3        1 1F0      0.071500
     31 C22        -1.5150   -1.2580   -0.3800 ca        1 1F0     -0.071000
     32 C23        -2.8400   -1.5000   -0.7360 ca        1 1F0     -0.178000
     33 C24        -3.8570   -0.6280   -0.3300 ca        1 1F0     -0.008300
     34 C30        -5.3020   -0.8560   -0.6910 c3        1 1F0     -0.014700
     35 C33        -6.1260   -1.0010    0.5860 c3        1 1F0     -0.085767
     36 C31        -5.8180    0.3360   -1.4930 c3        1 1F0     -0.085767
     37 C25        -3.5220    0.4920    0.4410 ca        1 1F0     -0.216000
     38 C26        -2.1910    0.7380    0.8050 ca        1 1F0      0.185100
     39 O27        -1.7860    1.8050    1.5710 os        1 1F0     -0.307900
     40 C28        -2.7800    2.8030    1.8500 c3        1 1F0      0.128400
     41 C29        -2.0530    3.9140    2.5710 c3        1 1F0     -0.101100
     42 C32        -5.5000   -2.1140   -1.5290 c3        1 1F0     -0.085767
     43 C16        -1.4350   -0.6560   -6.8450 c3        1 1F0     -0.060400
     44 C17        -2.4180   -1.5580   -7.5610 c3        1 1F0     -0.321600
     45 S17        -3.0010   -0.8280   -8.9930 s6        1 1F0      1.341000
     46 C19        -4.1510   -1.9910   -9.4190 c3        1 1F0     -0.370300
     47 O17        -3.6470    0.3750   -8.6850 o         1 1F0     -0.650800
     48 O18        -1.9890   -0.7960   -9.9580 o         1 1F0     -0.650800
     49 C15        -1.0210   -1.2820   -5.5140 c3        1 1F0      0.179800
     50 H1          2.7270    2.4220    0.1080 hc        1 1F0      0.057700
     51 H2          3.6920    1.4050   -1.0340 hc        1 1F0      0.057700
     52 H3          4.2500    1.6200    0.6800 hc        1 1F0      0.057700
     53 H4          1.8420    2.5230    2.0180 hc        1 1F0      0.050700
     54 H5          2.0150    1.7720    3.6560 hc        1 1F0      0.050700
     55 H6          3.4740    1.9720    2.6050 hc        1 1F0      0.050700
     56 H10         5.2460   -0.0060   -0.2710 ha        1 1F0      0.142000
     57 H11         6.4690   -2.0740   -0.7790 ha        1 1F0      0.147000
     58 H12         2.9020   -4.4030    0.0150 ha        1 1F0      0.147000
     59 H13         1.6620   -2.3260    0.5310 ha        1 1F0      0.142000
     60 H14         4.8230    0.2260    2.3190 ha        1 1F0      0.145500
     61 H15         6.1480   -1.2430    3.8140 ha        1 1F0      0.145500
     62 H16         2.5010   -3.1860    5.1190 ha        1 1F0      0.145500
     63 H17         1.1770   -1.7130    3.6550 ha        1 1F0      0.145500
     64 H18         2.0300   -1.2670   -2.1000 h1        1 1F0      0.076200
     65 H19         2.6520   -0.6120   -3.6830 h1        1 1F0      0.076200
     66 H20        -0.2130   -1.6070   -2.9900 h1        1 1F0      0.042450
     67 H21         1.0030   -2.3390   -4.1350 h1        1 1F0      0.042450
     68 H23        -1.1570    0.8640   -3.9110 h1        1 1F0      0.042450
     69 H24        -0.3700    1.3470   -5.4840 h1        1 1F0      0.042450
     70 H25         1.7990    1.6480   -4.4650 h1        1 1F0      0.076200
     71 H26         0.5590    2.4860   -3.4100 h1        1 1F0      0.076200
     72 H27        -0.7260   -1.9550   -0.7040 ha        1 1F0      0.140000
     73 H28        -3.0670   -2.3920   -1.3380 ha        1 1F0      0.137000
     74 H29        -5.7540   -1.8610    1.1910 hc        1 1F0      0.038144
     75 H30        -7.1970   -1.1810    0.3270 hc        1 1F0      0.038144
     76 H31        -6.0620   -0.0740    1.2040 hc        1 1F0      0.038144
     77 H32        -6.8860    0.1710   -1.7740 hc        1 1F0      0.038144
     78 H33        -5.7500    1.2750   -0.8940 hc        1 1F0      0.038144
     79 H34        -5.2180    0.4640   -2.4260 hc        1 1F0      0.038144
     80 H35        -4.3170    1.1800    0.7650 ha        1 1F0      0.143000
     81 H36        -3.2280    3.1670    0.8880 h1        1 1F0      0.038700
     82 H37        -3.5790    2.3540    2.4960 h1        1 1F0      0.038700
     83 H38        -1.5840    3.5290    3.5080 hc        1 1F0      0.051367
     84 H39        -2.7810    4.7190    2.8270 hc        1 1F0      0.051367
     85 H40        -1.2480    4.3370    1.9230 hc        1 1F0      0.051367
     86 H41        -6.5840   -2.2360   -1.7700 hc        1 1F0      0.038144
     87 H42        -5.1600   -3.0180   -0.9690 hc        1 1F0      0.038144
     88 H43        -4.9330   -2.0420   -2.4870 hc        1 1F0      0.038144
     89 H44        -1.9150    0.3430   -6.6630 hc        1 1F0      0.070200
     90 H45        -0.5310   -0.4960   -7.4920 hc        1 1F0      0.070200
     91 H46        -3.2540   -1.8030   -6.8550 h1        1 1F0      0.109200
     92 H47        -1.9090   -2.5340   -7.7790 h1        1 1F0      0.109200
     93 H48        -5.0320   -2.0070   -8.7310 h1        1 1F0      0.117033
     94 H49        -3.7470   -3.0320   -9.4480 h1        1 1F0      0.117033
     95 H50        -4.5620   -1.7940  -10.4430 h1        1 1F0      0.117033
     96 H51        -1.9310   -1.3260   -4.8440 h1        1 1F0      0.032200
     97 H52        -0.6930   -2.3440   -5.7080 h1        1 1F0      0.032200
@<TRIPOS>BOND
     1    1    2 1   
     2    1    9 1   
     3    1   23 1   
     4    2    3 1   
     5    2    4 1   
     6    2    5 1   
     7    3   50 1   
     8    3   51 1   
     9    3   52 1   
    10    4   11 ar  
    11    4   16 ar  
    12    5    6 1   
    13    5    7 1   
    14    5    8 1   
    15    6   53 1   
    16    6   54 1   
    17    6   55 1   
    18    7   17 ar  
    19    7   22 ar  
    20    8    9 2   
    21    9   10 1   
    22   10   31 ar  
    23   10   38 ar  
    24   11   12 ar  
    25   11   56 1   
    26   12   13 ar  
    27   12   57 1   
    28   13   14 1   
    29   13   15 ar  
    30   15   16 ar  
    31   15   58 1   
    32   16   59 1   
    33   17   18 ar  
    34   17   60 1   
    35   18   19 ar  
    36   18   61 1   
    37   19   20 1   
    38   19   21 ar  
    39   21   22 ar  
    40   21   62 1   
    41   22   63 1   
    42   23   24 2   
    43   23   25 1   
    44   25   26 1   
    45   25   30 1   
    46   26   27 1   
    47   26   64 1   
    48   26   65 1   
    49   27   28 1   
    50   27   66 1   
    51   27   67 1   
    52   28   29 1   
    53   28   49 1   
    54   29   30 1   
    55   29   68 1   
    56   29   69 1   
    57   30   70 1   
    58   30   71 1   
    59   31   32 ar  
    60   31   72 1   
    61   32   33 ar  
    62   32   73 1   
    63   33   34 1   
    64   33   37 ar  
    65   34   35 1   
    66   34   36 1   
    67   34   42 1   
    68   35   74 1   
    69   35   75 1   
    70   35   76 1   
    71   36   77 1   
    72   36   78 1   
    73   36   79 1   
    74   37   38 ar  
    75   37   80 1   
    76   38   39 1   
    77   39   40 1   
    78   40   41 1   
    79   40   81 1   
    80   40   82 1   
    81   41   83 1   
    82   41   84 1   
    83   41   85 1   
    84   42   86 1   
    85   42   87 1   
    86   42   88 1   
    87   43   44 1   
    88   43   49 1   
    89   43   89 1   
    90   43   90 1   
    91   44   45 1   
    92   44   91 1   
    93   44   92 1   
    94   45   46 1   
    95   45   47 2   
    96   45   48 2   
    97   46   93 1   
    98   46   94 1   
    99   46   95 1   
   100   49   96 1   
   101   49   97 1   
@<TRIPOS>SUBSTRUCTURE
     1 1F0         1 TEMP              0 ****  ****    0 ROOT
