@<TRIPOS>MOLECULE
1F0
   97   101     1     0     0
SMALL
bcc


@<TRIPOS>ATOM
      1 N1         -0.8420   -0.6010    1.4240 n         1 1F0     -0.410300
      2 C5         -1.2010   -1.8500    2.1710 c3        1 1F0      0.120700
      3 C57        -0.6410   -1.8540    3.5920 c3        1 1F0     -0.116100
      4 C51        -0.6910   -3.0420    1.3840 ca        1 1F0     -0.067300
      5 C4         -2.8310   -1.8100    2.1830 c3        1 1F0      0.168500
      6 C47        -3.3810   -1.5110    3.5880 c3        1 1F0     -0.087100
      7 C41        -3.4400   -3.1220    1.7450 ca        1 1F0     -0.062300
      8 N3         -3.1720   -0.6800    1.2840 n2        1 1F0     -0.579900
      9 C2         -2.0870   -0.0210    0.9710 ce        1 1F0      0.512500
     10 C21        -2.0520    1.1720    0.1060 ca        1 1F0     -0.165900
     11 C56        -0.0040   -4.0920    2.0060 ca        1 1F0     -0.108000
     12 C55         0.4860   -5.1680    1.2660 ca        1 1F0     -0.129000
     13 C54         0.2950   -5.2030   -0.1170 ca        1 1F0      0.020400
     14 CL5         0.8970   -6.5080   -1.0240 cl        1 1F0     -0.093400
     15 C53        -0.3910   -4.1660   -0.7560 ca        1 1F0     -0.129000
     16 C52        -0.8760   -3.0980   -0.0070 ca        1 1F0     -0.108000
     17 C42        -3.1670   -4.2800    2.4900 ca        1 1F0     -0.106500
     18 C43        -3.7620   -5.4960    2.1710 ca        1 1F0     -0.128500
     19 C44        -4.6490   -5.5670    1.0930 ca        1 1F0      0.019400
     20 CL4        -5.3830   -7.0490    0.6970 cl        1 1F0     -0.098400
     21 C45        -4.9350   -4.4250    0.3420 ca        1 1F0     -0.128500
     22 C46        -4.3340   -3.2090    0.6710 ca        1 1F0     -0.106500
     23 C10         0.1330    0.2790    2.0340 c         1 1F0      0.750100
     24 O10        -0.2200    1.2010    2.8010 o         1 1F0     -0.596100
     25 N10         1.5000    0.0330    1.8020 n         1 1F0     -0.417800
     26 C14         1.9650   -0.7720    0.6930 c3        1 1F0      0.071500
     27 C13         2.4140    0.0580   -0.5300 c3        1 1F0      0.137800
     28 N12         3.3570    1.1120   -0.1810 n3        1 1F0     -0.730600
     29 C12         2.9070    1.9270    0.9380 c3        1 1F0      0.137800
     30 C11         2.4330    1.0930    2.1470 c3        1 1F0      0.071500
     31 C22        -1.3590    1.1300   -1.1040 ca        1 1F0     -0.071000
     32 C23        -1.3330    2.2340   -1.9530 ca        1 1F0     -0.178000
     33 C24        -2.0030    3.4130   -1.6070 ca        1 1F0     -0.008300
     34 C30        -2.0010    4.6290   -2.4990 c3        1 1F0     -0.014700
     35 C33        -3.4360    4.9720   -2.8900 c3        1 1F0     -0.085767
     36 C31        -1.3860    5.8070   -1.7470 c3        1 1F0     -0.085767
     37 C25        -2.7020    3.4670   -0.3950 ca        1 1F0     -0.216000
     38 C26        -2.7350    2.3570    0.4600 ca        1 1F0      0.185100
     39 O27        -3.4090    2.3260    1.6570 os        1 1F0     -0.307900
     40 C28        -3.9530    3.5740    2.1140 c3        1 1F0      0.128400
     41 C29        -4.5060    3.2990    3.4940 c3        1 1F0     -0.101100
     42 C32        -1.2000    4.4100   -3.7770 c3        1 1F0     -0.085767
     43 C16         4.8910    2.8590   -1.0980 c3        1 1F0     -0.060400
     44 C17         5.3680    3.4530   -2.4060 c3        1 1F0     -0.321600
     45 S17         6.5820    4.6280   -2.1500 s6        1 1F0      1.341000
     46 C19         6.7450    5.1750   -3.7410 c3        1 1F0     -0.370300
     47 O17         6.0820    5.6630   -1.3510 o         1 1F0     -0.650800
     48 O18         7.7690    4.0070   -1.7450 o         1 1F0     -0.650800
     49 C15         3.7280    1.9010   -1.3480 c3        1 1F0      0.179800
     50 H1         -1.0550   -2.7170    4.1650 hc        1 1F0      0.057700
     51 H2          0.4740   -1.9390    3.5710 hc        1 1F0      0.057700
     52 H3         -0.9030   -0.9100    4.1320 hc        1 1F0      0.057700
     53 H4         -2.9740   -0.5500    3.9840 hc        1 1F0      0.050700
     54 H5         -4.4950   -1.4280    3.5400 hc        1 1F0      0.050700
     55 H6         -3.1230   -2.3380    4.2900 hc        1 1F0      0.050700
     56 H10         0.1630   -4.0990    3.0940 ha        1 1F0      0.142000
     57 H11         1.0220   -5.9830    1.7750 ha        1 1F0      0.147000
     58 H12        -0.5530   -4.1940   -1.8440 ha        1 1F0      0.147000
     59 H13        -1.4250   -2.2930   -0.5240 ha        1 1F0      0.142000
     60 H14        -2.4580   -4.2340    3.3320 ha        1 1F0      0.145500
     61 H15        -3.5330   -6.3940    2.7640 ha        1 1F0      0.145500
     62 H16        -5.6350   -4.4760   -0.5050 ha        1 1F0      0.145500
     63 H17        -4.5900   -2.3220    0.0700 ha        1 1F0      0.145500
     64 H18         2.8480   -1.3630    1.0750 h1        1 1F0      0.076200
     65 H19         1.1810   -1.5030    0.3510 h1        1 1F0      0.076200
     66 H20         2.9300   -0.6420   -1.2450 h1        1 1F0      0.042450
     67 H21         1.4960    0.4680   -1.0470 h1        1 1F0      0.042450
     68 H23         3.7810    2.5480    1.2820 h1        1 1F0      0.042450
     69 H24         2.0780    2.6320    0.6360 h1        1 1F0      0.042450
     70 H25         1.9690    1.7930    2.8970 h1        1 1F0      0.076200
     71 H26         3.3240    0.5920    2.6230 h1        1 1F0      0.076200
     72 H27        -0.8310    0.2070   -1.3910 ha        1 1F0      0.140000
     73 H28        -0.7790    2.1560   -2.8990 ha        1 1F0      0.137000
     74 H29        -4.0480    5.2020   -1.9860 hc        1 1F0      0.038144
     75 H30        -3.4430    5.8650   -3.5600 hc        1 1F0      0.038144
     76 H31        -3.9050    4.1150   -3.4300 hc        1 1F0      0.038144
     77 H32        -0.3400    5.5690   -1.4430 hc        1 1F0      0.038144
     78 H33        -1.3720    6.7100   -2.4040 hc        1 1F0      0.038144
     79 H34        -1.9790    6.0440   -0.8320 hc        1 1F0      0.038144
     80 H35        -3.2320    4.3900   -0.1180 ha        1 1F0      0.143000
     81 H36        -3.1430    4.3480    2.1480 h1        1 1F0      0.038700
     82 H37        -4.7630    3.9010    1.4100 h1        1 1F0      0.038700
     83 H38        -5.2870    2.5020    3.4490 hc        1 1F0      0.051367
     84 H39        -3.6930    2.9560    4.1770 hc        1 1F0      0.051367
     85 H40        -4.9580    4.2360    3.8980 hc        1 1F0      0.051367
     86 H41        -1.6320    3.5720   -4.3740 hc        1 1F0      0.038144
     87 H42        -1.2280    5.3370   -4.4000 hc        1 1F0      0.038144
     88 H43        -0.1340    4.1800   -3.5390 hc        1 1F0      0.038144
     89 H44         5.7390    2.3140   -0.6020 hc        1 1F0      0.070200
     90 H45         4.5630    3.6880   -0.4140 hc        1 1F0      0.070200
     91 H46         5.7390    2.6190   -3.0590 h1        1 1F0      0.109200
     92 H47         4.4830    3.8860   -2.9430 h1        1 1F0      0.109200
     93 H48         5.8590    5.7570   -4.0960 h1        1 1F0      0.117033
     94 H49         7.6250    5.8610   -3.8430 h1        1 1F0      0.117033
     95 H50         6.9100    4.3560   -4.4820 h1        1 1F0      0.117033
     96 H51         4.0320    1.1770   -2.1570 h1        1 1F0      0.032200
     97 H52         2.8530    2.5000   -1.7420 h1        1 1F0      0.032200
@<TRIPOS>BOND
     1    1    2 1   
     2    1    9 1   
     3    1   23 1   
     4    2    3 1   
     5    2    4 1   
     6    2    5 1   
     7    3   50 1   
     8    3   51 1   
     9    3   52 1   
    10    4   11 ar  
    11    4   16 ar  
    12    5    6 1   
    13    5    7 1   
    14    5    8 1   
    15    6   53 1   
    16    6   54 1   
    17    6   55 1   
    18    7   17 ar  
    19    7   22 ar  
    20    8    9 2   
    21    9   10 1   
    22   10   31 ar  
    23   10   38 ar  
    24   11   12 ar  
    25   11   56 1   
    26   12   13 ar  
    27   12   57 1   
    28   13   14 1   
    29   13   15 ar  
    30   15   16 ar  
    31   15   58 1   
    32   16   59 1   
    33   17   18 ar  
    34   17   60 1   
    35   18   19 ar  
    36   18   61 1   
    37   19   20 1   
    38   19   21 ar  
    39   21   22 ar  
    40   21   62 1   
    41   22   63 1   
    42   23   24 2   
    43   23   25 1   
    44   25   26 1   
    45   25   30 1   
    46   26   27 1   
    47   26   64 1   
    48   26   65 1   
    49   27   28 1   
    50   27   66 1   
    51   27   67 1   
    52   28   29 1   
    53   28   49 1   
    54   29   30 1   
    55   29   68 1   
    56   29   69 1   
    57   30   70 1   
    58   30   71 1   
    59   31   32 ar  
    60   31   72 1   
    61   32   33 ar  
    62   32   73 1   
    63   33   34 1   
    64   33   37 ar  
    65   34   35 1   
    66   34   36 1   
    67   34   42 1   
    68   35   74 1   
    69   35   75 1   
    70   35   76 1   
    71   36   77 1   
    72   36   78 1   
    73   36   79 1   
    74   37   38 ar  
    75   37   80 1   
    76   38   39 1   
    77   39   40 1   
    78   40   41 1   
    79   40   81 1   
    80   40   82 1   
    81   41   83 1   
    82   41   84 1   
    83   41   85 1   
    84   42   86 1   
    85   42   87 1   
    86   42   88 1   
    87   43   44 1   
    88   43   49 1   
    89   43   89 1   
    90   43   90 1   
    91   44   45 1   
    92   44   91 1   
    93   44   92 1   
    94   45   46 1   
    95   45   47 2   
    96   45   48 2   
    97   46   93 1   
    98   46   94 1   
    99   46   95 1   
   100   49   96 1   
   101   49   97 1   
@<TRIPOS>SUBSTRUCTURE
     1 1F0         1 TEMP              0 ****  ****    0 ROOT
