@<TRIPOS>MOLECULE
1F0
   97    91     1     0     0
SMALL
bcc


@<TRIPOS>ATOM
      1 N1          1.7700    0.4610   -1.3740 n         1 1F0     -0.339000
      2 C5          3.2360    0.5570   -1.4250 c3        1 1F0      0.118000
      3 C57         3.6800    1.9440   -2.0700 c3        1 1F0     -0.222000
      4 C51         3.7630   -0.5090   -2.1630 c1        1 1F0     -0.075000
      5 C4          3.7040    0.4760    0.0790 c3        1 1F0      0.044000
      6 C47         4.7410    1.4870    0.6260 c3        1 1F0     -0.199000
      7 C41         4.3440   -0.7530    0.1920 c1        1 1F0     -0.058000
      8 N3          2.4920    0.3260    0.7400 n2        1 1F0     -0.213000
      9 C2          1.4690    0.3320   -0.0220 c2        1 1F0      0.172000
     10 C21         0.0840    0.8610    0.5340 c2        1 1F0     -0.087000
     11 C56         4.7460   -0.4450   -3.1680 c1        1 1F0     -0.108000
     12 C55         4.8000   -1.4420   -4.1760 c1        1 1F0     -0.127000
     13 C54         3.9080   -2.4560   -4.1750 c1        1 1F0     -0.058500
     14 CL5         3.8830   -3.6090   -5.5250 cl        1 1F0     -0.019500
     15 C53         2.9240   -2.5250   -3.1740 c2        1 1F0     -0.131500
     16 C52         2.8690   -1.5220   -2.1580 c1        1 1F0     -0.101500
     17 C42         5.6260   -0.4170   -0.2130 c1        1 1F0     -0.115000
     18 C43         6.6820   -1.3350   -0.0410 c1        1 1F0     -0.127000
     19 C44         6.4330   -2.5890    0.5420 c1        1 1F0     -0.058500
     20 CL4         7.7120   -3.7760    0.6330 cl        1 1F0     -0.019500
     21 C45         5.1340   -2.9270    0.9510 c2        1 1F0     -0.131500
     22 C46         4.0970   -2.0260    0.7820 c1        1 1F0     -0.101500
     23 C10         0.8170    0.4910   -2.5390 c2        1 1F0      0.419000
     24 O10         1.2340    0.6020   -3.6300 o         1 1F0     -0.371000
     25 N10        -0.6740    0.4920   -2.2970 n         1 1F0     -0.272000
     26 C14        -1.6460    0.6220   -3.3560 c3        1 1F0     -0.049500
     27 C13        -2.7170   -0.4960   -3.3070 c3        1 1F0     -0.104000
     28 N12        -3.3160   -0.6180   -1.9920 n3        1 1F0     -0.255000
     29 C12        -2.3020   -0.7420   -0.9210 c3        1 1F0     -0.104000
     30 C11        -1.2520    0.3650   -0.9890 c3        1 1F0     -0.049500
     31 C22        -0.0890   -0.3450    1.2150 c2        1 1F0     -0.065000
     32 C23        -0.3460   -0.3420    2.5950 c1        1 1F0     -0.173000
     33 C24        -0.4270    0.8460    3.2760 c1        1 1F0     -0.001000
     34 C30        -0.7200    0.8540    4.8710 c3        1 1F0     -0.022000
     35 C33         0.1960    1.8730    5.5530 c3        1 1F0     -0.204000
     36 C31        -2.1260    1.2300    5.1060 c3        1 1F0     -0.204000
     37 C25        -0.2460    2.0940    2.5670 c1        1 1F0     -0.209000
     38 C26         0.0020    2.0870    1.2300 c1        1 1F0      0.131000
     39 O27         0.2340    3.3130    0.5400 o         1 1F0     -0.210000
     40 C28        -0.6840    4.3410    0.8780 c3        1 1F0     -0.018000
     41 C29        -0.6150    5.4510   -0.1530 c3        1 1F0     -0.227000
     42 C32        -0.4640   -0.5100    5.4360 c3        1 1F0     -0.204000
     43 C16        -5.6640   -1.3190   -1.8570 c3        1 1F0     -0.138000
     44 C17        -6.5710   -2.5060   -1.3990 c3        1 1F0     -0.863000
     45 S17        -8.0050   -1.8750   -0.5780 s4        1 1F0      2.037800
     46 C19        -8.4680   -2.9550    0.8040 c2        1 1F0     -0.949000
     47 O17        -7.8050   -0.5420   -0.1380 o         1 1F0     -0.538900
     48 O18        -9.1260   -1.6990   -1.5240 o         1 1F0     -0.538900
     49 C15        -4.2060   -1.7910   -1.9670 c3        1 1F0     -0.058000
     50 H1          4.6370    1.9810   -2.1180 hc        1 1F0      0.096333
     51 H2          3.3680    2.6500   -1.5460 hc        1 1F0      0.096333
     52 H3          3.2890    2.0190   -3.0080 hc        1 1F0      0.096333
     53 H4          5.2920    1.7620   -0.0560 hc        1 1F0      0.088333
     54 H5          5.3010    1.0400    1.3580 hc        1 1F0      0.088333
     55 H6          4.2760    2.2580    0.9980 hc        1 1F0      0.088333
     56 H10         5.3570    0.2480   -3.1710 ha        1 1F0      0.144000
     57 H11         5.4100   -1.3990   -4.7980 ha        1 1F0      0.147000
     58 H12         2.2970   -3.2370   -3.1730 ha        1 1F0      0.145500
     59 H13         2.1340   -1.5710   -1.4050 ha        1 1F0      0.147500
     60 H14         5.8060    0.4970   -0.6430 ha        1 1F0      0.136000
     61 H15         7.6290   -1.0880   -0.3420 ha        1 1F0      0.147000
     62 H16         4.9630   -3.7870    1.3500 ha        1 1F0      0.145500
     63 H17         3.2190   -2.2600    1.0580 ha        1 1F0      0.147500
     64 H18        -2.1280    1.5620   -3.2660 h1        1 1F0      0.111500
     65 H19        -1.1990    0.5860   -4.1860 h1        1 1F0      0.111500
     66 H20        -2.3330   -1.2780   -3.5290 h1        1 1F0      0.084250
     67 H21        -3.3730   -0.3060   -3.9130 h1        1 1F0      0.084250
     68 H23        -1.8430   -1.6290   -1.0030 h1        1 1F0      0.084250
     69 H24        -2.7490   -0.6970   -0.0580 h1        1 1F0      0.084250
     70 H25        -0.5270    0.1590   -0.3340 h1        1 1F0      0.111500
     71 H26        -1.6900    1.2620   -0.7330 h1        1 1F0      0.111500
     72 H27        -0.0350   -1.1380    0.7600 ha        1 1F0      0.142000
     73 H28        -0.4670   -1.1720    3.0600 ha        1 1F0      0.141000
     74 H29         1.2110    1.6350    5.3450 hc        1 1F0      0.078111
     75 H30         0.0020    2.7360    5.2270 hc        1 1F0      0.078111
     76 H31         0.0500    1.8520    6.4970 hc        1 1F0      0.078111
     77 H32        -2.6640    0.6170    4.7340 hc        1 1F0      0.078111
     78 H33        -2.2960    2.0850    4.7110 hc        1 1F0      0.078111
     79 H34        -2.2900    1.2740    6.0300 hc        1 1F0      0.078111
     80 H35        -0.3020    2.9300    3.0400 ha        1 1F0      0.143000
     81 H36        -0.4630    4.6880    1.7270 h1        1 1F0      0.078500
     82 H37        -1.6220    3.9630    0.9030 h1        1 1F0      0.078500
     83 H38        -0.8140    5.0580   -1.1080 hc        1 1F0      0.095000
     84 H39        -1.3090    6.1680    0.0750 hc        1 1F0      0.095000
     85 H40         0.2780    5.8490   -0.1450 hc        1 1F0      0.095000
     86 H41        -1.1360   -1.1370    5.0900 hc        1 1F0      0.078111
     87 H42        -0.5200   -0.4770    6.3760 hc        1 1F0      0.078111
     88 H43         0.4780   -0.8270    5.1560 hc        1 1F0      0.078111
     89 H44        -5.7170   -0.6220   -1.2270 hc        1 1F0      0.109000
     90 H45        -5.9680   -0.9980   -2.7240 hc        1 1F0      0.109000
     91 H46        -6.8590   -3.0370   -2.2090 h1        1 1F0      0.149500
     92 H47        -6.0610   -3.0940   -0.7780 h1        1 1F0      0.149500
     93 H48        -7.7030   -3.2290    1.2540 ha        1 1F0      0.156333
     94 H49        -8.9580   -3.7610    0.4530 ha        1 1F0      0.156333
     95 H50        -9.0150   -2.4910    1.3840 ha        1 1F0      0.156333
     96 H51        -3.9770   -2.3820   -1.1560 h1        1 1F0      0.073500
     97 H52        -4.0900   -2.2990   -2.7810 h1        1 1F0      0.073500
@<TRIPOS>BOND
     1    1    2 1   
     2    1    9 1   
     3    1   23 1   
     4    2    3 1   
     5    2    4 1   
     6    2    5 1   
     7    3   50 1   
     8    3   51 1   
     9    3   52 1   
    10    4   11 1   
    11    5    6 1   
    12    5    7 1   
    13    5    8 1   
    14    6   53 1   
    15    6   54 1   
    16    6   55 1   
    17    7   17 1   
    18    8    9 1   
    19    9   10 1   
    20   10   31 1   
    21   10   38 1   
    22   11   56 1   
    23   12   13 1   
    24   12   57 1   
    25   13   15 1   
    26   15   16 1   
    27   15   58 1   
    28   16   59 1   
    29   17   60 1   
    30   18   19 1   
    31   18   61 1   
    32   19   21 1   
    33   21   22 1   
    34   21   62 1   
    35   22   63 1   
    36   23   24 1   
    37   23   25 1   
    38   25   26 1   
    39   25   30 1   
    40   26   27 1   
    41   26   64 1   
    42   26   65 1   
    43   27   28 1   
    44   27   66 1   
    45   27   67 1   
    46   28   29 1   
    47   28   49 1   
    48   29   30 1   
    49   29   68 1   
    50   29   69 1   
    51   30   70 1   
    52   30   71 1   
    53   31   32 1   
    54   31   72 1   
    55   32   73 1   
    56   33   34 1   
    57   33   37 1   
    58   34   35 1   
    59   34   36 1   
    60   34   42 1   
    61   35   74 1   
    62   35   75 1   
    63   35   76 1   
    64   36   77 1   
    65   36   78 1   
    66   36   79 1   
    67   37   80 1   
    68   39   40 1   
    69   40   41 1   
    70   40   81 1   
    71   40   82 1   
    72   41   83 1   
    73   41   84 1   
    74   41   85 1   
    75   42   86 1   
    76   42   87 1   
    77   42   88 1   
    78   43   44 1   
    79   43   49 1   
    80   43   89 1   
    81   43   90 1   
    82   44   45 1   
    83   44   91 1   
    84   44   92 1   
    85   45   47 1   
    86   45   48 1   
    87   46   93 1   
    88   46   94 1   
    89   46   95 1   
    90   49   96 1   
    91   49   97 1   
@<TRIPOS>SUBSTRUCTURE
     1 1F0         1 TEMP              0 ****  ****    0 ROOT
