@<TRIPOS>MOLECULE
1F0
   97   101     1     0     0
SMALL
bcc


@<TRIPOS>ATOM
      1 N1          1.2300    0.1180   -0.1260 n         1 1F0     -0.411300
      2 C5          2.5200    0.2070    0.6320 c3        1 1F0      0.120700
      3 C57         3.2960    1.4800    0.3040 c3        1 1F0     -0.117100
      4 C51         3.3440   -1.0280    0.3170 ca        1 1F0     -0.067300
      5 C4          2.0280    0.2030    2.1870 c3        1 1F0      0.168500
      6 C47         2.2250    1.5770    2.8480 c3        1 1F0     -0.087100
      7 C41         2.7870   -0.7990    3.0270 ca        1 1F0     -0.063300
      8 N3          0.5740   -0.0860    2.1060 n2        1 1F0     -0.576900
      9 C2          0.1850   -0.0440    0.8590 ce        1 1F0      0.510500
     10 C21        -1.2030   -0.2570    0.4080 ca        1 1F0     -0.160900
     11 C56         4.7040   -0.9390   -0.0060 ca        1 1F0     -0.108000
     12 C55         5.4410   -2.0790   -0.3250 ca        1 1F0     -0.129000
     13 C54         4.8200   -3.3300   -0.3270 ca        1 1F0      0.020400
     14 Cl5         5.7130   -4.7210   -0.7220 cl        1 1F0     -0.093400
     15 C53         3.4650   -3.4390   -0.0040 ca        1 1F0     -0.129000
     16 C52         2.7380   -2.2950    0.3120 ca        1 1F0     -0.108000
     17 C42         4.1780   -0.6650    3.1510 ca        1 1F0     -0.106500
     18 C43         4.9110   -1.5170    3.9710 ca        1 1F0     -0.128500
     19 C44         4.2510   -2.5210    4.6860 ca        1 1F0      0.019400
     20 Cl4         5.1390   -3.5660    5.6920 cl        1 1F0     -0.098400
     21 C45         2.8670   -2.6670    4.5770 ca        1 1F0     -0.128500
     22 C46         2.1400   -1.8070    3.7530 ca        1 1F0     -0.106500
     23 C10         1.0180    1.0780   -1.1890 c         1 1F0      0.754100
     24 O10         0.5120    2.1980   -0.9600 o         1 1F0     -0.604100
     25 N10         1.4650    0.7540   -2.4840 n         1 1F0     -0.414800
     26 C14         1.7680   -0.6050   -2.8800 c3        1 1F0      0.071500
     27 C13         0.6090   -1.3060   -3.6210 c3        1 1F0      0.137800
     28 N12         0.0870   -0.5160   -4.7290 n3        1 1F0     -0.729600
     29 C12        -0.2110    0.8590   -4.3530 c3        1 1F0      0.137800
     30 C11         0.9390    1.5440   -3.5850 c3        1 1F0      0.071500
     31 C22        -1.5470   -1.4300   -0.2660 ca        1 1F0     -0.076000
     32 C23        -2.8590   -1.6570   -0.6760 ca        1 1F0     -0.170000
     33 C24        -3.8620   -0.7150   -0.4170 ca        1 1F0     -0.016300
     34 C30        -5.2940   -0.9300   -0.8350 c3        1 1F0     -0.014700
     35 C33        -6.1880   -0.9240    0.4020 c3        1 1F0     -0.085767
     36 C31        -5.7230    0.1950   -1.7740 c3        1 1F0     -0.085767
     37 C25        -3.5260    0.4640    0.2590 ca        1 1F0     -0.199000
     38 C26        -2.2080    0.6950    0.6740 ca        1 1F0      0.173100
     39 O27        -1.8350    1.8090    1.3910 os        1 1F0     -0.318900
     40 C28        -2.5200    3.0260    1.0440 c3        1 1F0      0.132400
     41 C29        -1.5160    4.1410    1.2210 c3        1 1F0     -0.109100
     42 C32        -5.4950   -2.2560   -1.5590 c3        1 1F0     -0.085767
     43 C16        -1.4760   -0.5200   -6.6790 c3        1 1F0     -0.060400
     44 C17        -2.4620   -1.4070   -7.4080 c3        1 1F0     -0.321600
     45 S17        -3.0880   -0.6310   -8.7960 s6        1 1F0      1.341000
     46 C19        -4.2250   -1.7960   -9.2480 c3        1 1F0     -0.370300
     47 O17        -3.7490    0.5460   -8.4250 o         1 1F0     -0.650800
     48 O18        -2.0970   -0.5390   -9.7800 o         1 1F0     -0.650800
     49 C15        -1.0320   -1.1850   -5.3780 c3        1 1F0      0.179800
     50 H1          3.6670    1.4480   -0.7510 hc        1 1F0      0.058033
     51 H2          4.1710    1.5820    0.9890 hc        1 1F0      0.058033
     52 H3          2.6500    2.3860    0.4140 hc        1 1F0      0.058033
     53 H4          1.6860    2.3770    2.2850 hc        1 1F0      0.051367
     54 H5          3.3100    1.8300    2.9010 hc        1 1F0      0.051367
     55 H6          1.8210    1.5480    3.8900 hc        1 1F0      0.051367
     56 H10         5.2270    0.0290   -0.0130 ha        1 1F0      0.142000
     57 H11         6.5100   -1.9880   -0.5740 ha        1 1F0      0.147000
     58 H12         2.9730   -4.4240    0.0050 ha        1 1F0      0.147000
     59 H13         1.6730   -2.3980    0.5760 ha        1 1F0      0.142000
     60 H14         4.7050    0.1160    2.5800 ha        1 1F0      0.145500
     61 H15         6.0020   -1.3990    4.0540 ha        1 1F0      0.146000
     62 H16         2.3440   -3.4540    5.1410 ha        1 1F0      0.146000
     63 H17         1.0480   -1.9360    3.6980 ha        1 1F0      0.145500
     64 H18         2.6590   -0.5440   -3.5720 h1        1 1F0      0.076450
     65 H19         2.0580   -1.2410   -1.9980 h1        1 1F0      0.076450
     66 H20         1.0090   -2.2690   -4.0460 h1        1 1F0      0.042950
     67 H21        -0.1960   -1.5660   -2.8720 h1        1 1F0      0.042950
     68 H23        -1.1530    0.9290   -3.7360 h1        1 1F0      0.042950
     69 H24        -0.3740    1.4430   -5.3020 h1        1 1F0      0.042950
     70 H25         0.5670    2.5380   -3.2090 h1        1 1F0      0.076450
     71 H26         1.8000    1.7240   -4.2900 h1        1 1F0      0.076450
     72 H27        -0.7680   -2.1810   -0.4750 ha        1 1F0      0.139000
     73 H28        -3.0880   -2.5950   -1.2020 ha        1 1F0      0.137000
     74 H29        -6.1180    0.0540    0.9340 hc        1 1F0      0.038367
     75 H30        -7.2510   -1.0900    0.1030 hc        1 1F0      0.038367
     76 H31        -5.8820   -1.7350    1.1050 hc        1 1F0      0.038367
     77 H32        -5.0740    0.2110   -2.6810 hc        1 1F0      0.038367
     78 H33        -5.6470    1.1840   -1.2630 hc        1 1F0      0.038367
     79 H34        -6.7820    0.0400   -2.0920 hc        1 1F0      0.038367
     80 H35        -4.2990    1.2150    0.4810 ha        1 1F0      0.144000
     81 H36        -3.3890    3.1320    1.7470 h1        1 1F0      0.039700
     82 H37        -2.8930    2.9890   -0.0120 h1        1 1F0      0.039700
     83 H38        -0.6410    3.9740    0.5440 hc        1 1F0      0.053367
     84 H39        -1.1460    4.1700    2.2740 hc        1 1F0      0.053367
     85 H40        -1.9980    5.1150    0.9740 hc        1 1F0      0.053367
     86 H41        -6.5680   -2.3660   -1.8490 hc        1 1F0      0.038367
     87 H42        -4.8750   -2.2960   -2.4870 hc        1 1F0      0.038367
     88 H43        -5.2210   -3.1120   -0.8980 hc        1 1F0      0.038367
     89 H44        -1.9640    0.4680   -6.4550 hc        1 1F0      0.070200
     90 H45        -0.5870   -0.3270   -7.3370 hc        1 1F0      0.070200
     91 H46        -1.9460   -2.3670   -7.6750 h1        1 1F0      0.109200
     92 H47        -3.2790   -1.6920   -6.6940 h1        1 1F0      0.109200
     93 H48        -4.6660   -1.5620  -10.2510 h1        1 1F0      0.117033
     94 H49        -5.0880   -1.8630   -8.5410 h1        1 1F0      0.117033
     95 H50        -3.8010   -2.8260   -9.3350 h1        1 1F0      0.117033
     96 H51        -1.9290   -1.2590   -4.6930 h1        1 1F0      0.032200
     97 H52        -0.6990   -2.2370   -5.6120 h1        1 1F0      0.032200
@<TRIPOS>BOND
     1    1    2 1   
     2    1    9 1   
     3    1   23 1   
     4    2    3 1   
     5    2    4 1   
     6    2    5 1   
     7    3   50 1   
     8    3   51 1   
     9    3   52 1   
    10    4   11 ar  
    11    4   16 ar  
    12    5    6 1   
    13    5    7 1   
    14    5    8 1   
    15    6   53 1   
    16    6   54 1   
    17    6   55 1   
    18    7   17 ar  
    19    7   22 ar  
    20    8    9 2   
    21    9   10 1   
    22   10   31 ar  
    23   10   38 ar  
    24   11   12 ar  
    25   11   56 1   
    26   12   13 ar  
    27   12   57 1   
    28   13   14 1   
    29   13   15 ar  
    30   15   16 ar  
    31   15   58 1   
    32   16   59 1   
    33   17   18 ar  
    34   17   60 1   
    35   18   19 ar  
    36   18   61 1   
    37   19   20 1   
    38   19   21 ar  
    39   21   22 ar  
    40   21   62 1   
    41   22   63 1   
    42   23   24 2   
    43   23   25 1   
    44   25   26 1   
    45   25   30 1   
    46   26   27 1   
    47   26   64 1   
    48   26   65 1   
    49   27   28 1   
    50   27   66 1   
    51   27   67 1   
    52   28   29 1   
    53   28   49 1   
    54   29   30 1   
    55   29   68 1   
    56   29   69 1   
    57   30   70 1   
    58   30   71 1   
    59   31   32 ar  
    60   31   72 1   
    61   32   33 ar  
    62   32   73 1   
    63   33   34 1   
    64   33   37 ar  
    65   34   35 1   
    66   34   36 1   
    67   34   42 1   
    68   35   74 1   
    69   35   75 1   
    70   35   76 1   
    71   36   77 1   
    72   36   78 1   
    73   36   79 1   
    74   37   38 ar  
    75   37   80 1   
    76   38   39 1   
    77   39   40 1   
    78   40   41 1   
    79   40   81 1   
    80   40   82 1   
    81   41   83 1   
    82   41   84 1   
    83   41   85 1   
    84   42   86 1   
    85   42   87 1   
    86   42   88 1   
    87   43   44 1   
    88   43   49 1   
    89   43   89 1   
    90   43   90 1   
    91   44   45 1   
    92   44   91 1   
    93   44   92 1   
    94   45   46 1   
    95   45   47 2   
    96   45   48 2   
    97   46   93 1   
    98   46   94 1   
    99   46   95 1   
   100   49   96 1   
   101   49   97 1   
@<TRIPOS>SUBSTRUCTURE
     1 1F0         1 TEMP              0 ****  ****    0 ROOT
