@<TRIPOS>MOLECULE
1F0
   97   101     1     0     0
SMALL
bcc


@<TRIPOS>ATOM
      1 N1          1.2430    0.1630   -0.2510 n         1 1F0     -0.410300
      2 C5          2.5590    0.2590    0.4610 c3        1 1F0      0.120700
      3 C57         3.3530    1.4950    0.0430 c3        1 1F0     -0.116100
      4 C51         3.3460   -1.0100    0.1850 ca        1 1F0     -0.067300
      5 C4          2.1190    0.3460    2.0280 c3        1 1F0      0.168500
      6 C47         2.3660    1.7480    2.6100 c3        1 1F0     -0.087100
      7 C41         2.8840   -0.6280    2.8940 ca        1 1F0     -0.062300
      8 N3          0.6580    0.0860    2.0090 n2        1 1F0     -0.579900
      9 C2          0.2270    0.0750    0.7740 ce        1 1F0      0.512500
     10 C21        -1.1770   -0.1390    0.3800 ca        1 1F0     -0.165900
     11 C56         4.6990   -0.9690   -0.1730 ca        1 1F0     -0.108000
     12 C55         5.4020   -2.1400   -0.4530 ca        1 1F0     -0.129000
     13 C54         4.7530   -3.3740   -0.3800 ca        1 1F0      0.020400
     14 CL5         5.6040   -4.8040   -0.7270 cl        1 1F0     -0.093400
     15 C53         3.4030   -3.4360   -0.0200 ca        1 1F0     -0.129000
     16 C52         2.7110   -2.2600    0.2570 ca        1 1F0     -0.108000
     17 C42         4.2800   -0.5150    2.9720 ca        1 1F0     -0.106500
     18 C43         5.0220   -1.3400    3.8120 ca        1 1F0     -0.128500
     19 C44         4.3660   -2.2960    4.5940 ca        1 1F0      0.019400
     20 CL4         5.2640   -3.3060    5.6250 cl        1 1F0     -0.098400
     21 C45         2.9770   -2.4210    4.5310 ca        1 1F0     -0.128500
     22 C46         2.2420   -1.5880    3.6870 ca        1 1F0     -0.106500
     23 C10         1.0170    1.0760   -1.3520 c         1 1F0      0.750100
     24 O10         0.4920    2.1950   -1.1650 o         1 1F0     -0.596100
     25 N10         1.4670    0.7080   -2.6340 n         1 1F0     -0.417800
     26 C14         1.7640   -0.6630   -2.9870 c3        1 1F0      0.071500
     27 C13         0.6120   -1.3770   -3.7270 c3        1 1F0      0.137800
     28 N12         0.1110   -0.6140   -4.8620 n3        1 1F0     -0.730600
     29 C12        -0.1880    0.7710   -4.5240 c3        1 1F0      0.137800
     30 C11         0.9560    1.4710   -3.7610 c3        1 1F0      0.071500
     31 C22        -1.5180   -1.2560   -0.3850 ca        1 1F0     -0.071000
     32 C23        -2.8410   -1.4960   -0.7490 ca        1 1F0     -0.178000
     33 C24        -3.8580   -0.6200   -0.3550 ca        1 1F0     -0.008300
     34 C30        -5.3020   -0.8470   -0.7260 c3        1 1F0     -0.014700
     35 C33        -6.1360   -0.9830    0.5460 c3        1 1F0     -0.085767
     36 C31        -5.8090    0.3430   -1.5370 c3        1 1F0     -0.085767
     37 C25        -3.5270    0.5030    0.4130 ca        1 1F0     -0.216000
     38 C26        -2.1980    0.7480    0.7850 ca        1 1F0      0.185100
     39 O27        -1.7960    1.8170    1.5490 os        1 1F0     -0.307900
     40 C28        -2.7890    2.8190    1.8150 c3        1 1F0      0.128400
     41 C29        -2.0650    3.9330    2.5360 c3        1 1F0     -0.101100
     42 C32        -5.4960   -2.1080   -1.5590 c3        1 1F0     -0.085767
     43 C16        -1.4100   -0.6700   -6.8440 c3        1 1F0     -0.060400
     44 C17        -2.3940   -1.5700   -7.5610 c3        1 1F0     -0.321600
     45 S17        -2.9720   -0.8420   -8.9950 s6        1 1F0      1.341000
     46 C19        -4.1240   -2.0030   -9.4220 c3        1 1F0     -0.370300
     47 O17        -3.6160    0.3630   -8.6910 o         1 1F0     -0.650800
     48 O18        -1.9580   -0.8140   -9.9590 o         1 1F0     -0.650800
     49 C15        -1.0020   -1.2950   -5.5110 c3        1 1F0      0.179800
     50 H1          3.6980    1.3970   -1.0160 hc        1 1F0      0.057700
     51 H2          4.2460    1.6170    0.7010 hc        1 1F0      0.057700
     52 H3          2.7280    2.4200    0.1170 hc        1 1F0      0.057700
     53 H4          3.4570    1.9770    2.6200 hc        1 1F0      0.050700
     54 H5          1.8300    2.5290    2.0200 hc        1 1F0      0.050700
     55 H6          1.9910    1.7840    3.6630 hc        1 1F0      0.050700
     56 H10         5.2440   -0.0150   -0.2380 ha        1 1F0      0.142000
     57 H11         6.4660   -2.0870   -0.7310 ha        1 1F0      0.147000
     58 H12         2.8890   -4.4060    0.0490 ha        1 1F0      0.147000
     59 H13         1.6510   -2.3250    0.5500 ha        1 1F0      0.142000
     60 H14         4.8050    0.2270    2.3490 ha        1 1F0      0.145500
     61 H15         6.1170   -1.2390    3.8580 ha        1 1F0      0.145500
     62 H16         2.4570   -3.1700    5.1460 ha        1 1F0      0.145500
     63 H17         1.1460   -1.7000    3.6680 ha        1 1F0      0.145500
     64 H18         2.6660   -0.6310   -3.6660 h1        1 1F0      0.076200
     65 H19         2.0340   -1.2770   -2.0830 h1        1 1F0      0.076200
     66 H20         1.0130   -2.3530   -4.1200 h1        1 1F0      0.042450
     67 H21        -0.2060   -1.6120   -2.9830 h1        1 1F0      0.042450
     68 H23        -1.1370    0.8600   -3.9190 h1        1 1F0      0.042450
     69 H24        -0.3390    1.3320   -5.4890 h1        1 1F0      0.042450
     70 H25         0.5840    2.4760   -3.4160 h1        1 1F0      0.076200
     71 H26         1.8260    1.6290   -4.4610 h1        1 1F0      0.076200
     72 H27        -0.7280   -1.9560   -0.7000 ha        1 1F0      0.140000
     73 H28        -3.0660   -2.3900   -1.3490 ha        1 1F0      0.137000
     74 H29        -6.0740   -0.0540    1.1610 hc        1 1F0      0.038144
     75 H30        -5.7690   -1.8420    1.1580 hc        1 1F0      0.038144
     76 H31        -7.2050   -1.1630    0.2800 hc        1 1F0      0.038144
     77 H32        -5.2020    0.4650   -2.4660 hc        1 1F0      0.038144
     78 H33        -5.7430    1.2840   -0.9420 hc        1 1F0      0.038144
     79 H34        -6.8750    0.1790   -1.8250 hc        1 1F0      0.038144
     80 H35        -4.3230    1.1940    0.7280 ha        1 1F0      0.143000
     81 H36        -3.2300    3.1790    0.8490 h1        1 1F0      0.038700
     82 H37        -3.5950    2.3760    2.4580 h1        1 1F0      0.038700
     83 H38        -2.7930    4.7410    2.7830 hc        1 1F0      0.051367
     84 H39        -1.6030    3.5510    3.4780 hc        1 1F0      0.051367
     85 H40        -1.2550    4.3500    1.8910 hc        1 1F0      0.051367
     86 H41        -4.9220   -2.0420   -2.5140 hc        1 1F0      0.038144
     87 H42        -5.1630   -3.0100   -0.9920 hc        1 1F0      0.038144
     88 H43        -6.5790   -2.2290   -1.8070 hc        1 1F0      0.038144
     89 H44        -0.5050   -0.5140   -7.4900 hc        1 1F0      0.070200
     90 H45        -1.8880    0.3310   -6.6660 hc        1 1F0      0.070200
     91 H46        -1.8870   -2.5480   -7.7760 h1        1 1F0      0.109200
     92 H47        -3.2320   -1.8130   -6.8560 h1        1 1F0      0.109200
     93 H48        -3.7210   -3.0440   -9.4500 h1        1 1F0      0.117033
     94 H49        -5.0060   -2.0170   -8.7360 h1        1 1F0      0.117033
     95 H50        -4.5340   -1.8060  -10.4470 h1        1 1F0      0.117033
     96 H51        -1.9140   -1.3350   -4.8440 h1        1 1F0      0.032200
     97 H52        -0.6760   -2.3570   -5.7020 h1        1 1F0      0.032200
@<TRIPOS>BOND
     1    1    2 1   
     2    1    9 1   
     3    1   23 1   
     4    2    3 1   
     5    2    4 1   
     6    2    5 1   
     7    3   50 1   
     8    3   51 1   
     9    3   52 1   
    10    4   11 ar  
    11    4   16 ar  
    12    5    6 1   
    13    5    7 1   
    14    5    8 1   
    15    6   53 1   
    16    6   54 1   
    17    6   55 1   
    18    7   17 ar  
    19    7   22 ar  
    20    8    9 2   
    21    9   10 1   
    22   10   31 ar  
    23   10   38 ar  
    24   11   12 ar  
    25   11   56 1   
    26   12   13 ar  
    27   12   57 1   
    28   13   14 1   
    29   13   15 ar  
    30   15   16 ar  
    31   15   58 1   
    32   16   59 1   
    33   17   18 ar  
    34   17   60 1   
    35   18   19 ar  
    36   18   61 1   
    37   19   20 1   
    38   19   21 ar  
    39   21   22 ar  
    40   21   62 1   
    41   22   63 1   
    42   23   24 2   
    43   23   25 1   
    44   25   26 1   
    45   25   30 1   
    46   26   27 1   
    47   26   64 1   
    48   26   65 1   
    49   27   28 1   
    50   27   66 1   
    51   27   67 1   
    52   28   29 1   
    53   28   49 1   
    54   29   30 1   
    55   29   68 1   
    56   29   69 1   
    57   30   70 1   
    58   30   71 1   
    59   31   32 ar  
    60   31   72 1   
    61   32   33 ar  
    62   32   73 1   
    63   33   34 1   
    64   33   37 ar  
    65   34   35 1   
    66   34   36 1   
    67   34   42 1   
    68   35   74 1   
    69   35   75 1   
    70   35   76 1   
    71   36   77 1   
    72   36   78 1   
    73   36   79 1   
    74   37   38 ar  
    75   37   80 1   
    76   38   39 1   
    77   39   40 1   
    78   40   41 1   
    79   40   81 1   
    80   40   82 1   
    81   41   83 1   
    82   41   84 1   
    83   41   85 1   
    84   42   86 1   
    85   42   87 1   
    86   42   88 1   
    87   43   44 1   
    88   43   49 1   
    89   43   89 1   
    90   43   90 1   
    91   44   45 1   
    92   44   91 1   
    93   44   92 1   
    94   45   46 1   
    95   45   47 2   
    96   45   48 2   
    97   46   93 1   
    98   46   94 1   
    99   46   95 1   
   100   49   96 1   
   101   49   97 1   
@<TRIPOS>SUBSTRUCTURE
     1 1F0         1 TEMP              0 ****  ****    0 ROOT
