@<TRIPOS>MOLECULE
1F1
   18    19     1     0     0
SMALL
bcc


@<TRIPOS>ATOM
      1 O1          2.9090   -1.5060    0.0280 o         1 1F1     -0.832300
      2 C2          2.5920   -0.2830    0.0060 c         1 1F1      0.907200
      3 O3          3.4270    0.6650   -0.0010 o         1 1F1     -0.832300
      4 C4          1.1100    0.0690   -0.0100 ca        1 1F1     -0.107600
      5 C5          0.7150    1.4240    0.0080 ca        1 1F1     -0.120000
      6 C6         -0.6200    1.7960    0.0070 ca        1 1F1     -0.129000
      7 C7         -1.5990    0.8000   -0.0090 ca        1 1F1     -0.113800
      8 C8         -3.0470    0.8020    0.0030 cc        1 1F1     -0.186200
      9 C9         -3.4620   -0.5230   -0.0140 cd        1 1F1     -0.156100
     10 N10        -2.3530   -1.3800   -0.1070 na        1 1F1     -0.194400
     11 C11        -1.1940   -0.5850   -0.0380 ca        1 1F1     -0.069200
     12 C12         0.1610   -0.9460   -0.0380 ca        1 1F1     -0.126000
     13 H5          1.5160    2.1810    0.0230 ha        1 1F1      0.152000
     14 H6         -0.9140    2.8540    0.0180 ha        1 1F1      0.108000
     15 H8         -3.6790    1.6840    0.0140 ha        1 1F1      0.134000
     16 H9         -4.4720   -0.9330   -0.0120 h4        1 1F1      0.140000
     17 H12         0.4930   -1.9950   -0.0570 ha        1 1F1      0.153000
     18 HN10       -2.3700   -2.3240    0.1740 hn        1 1F1      0.273700
@<TRIPOS>BOND
     1    1    2 1   
     2    2    3 1   
     3    2    4 1   
     4    4    5 ar  
     5    4   12 ar  
     6    5    6 ar  
     7    5   13 1   
     8    6    7 ar  
     9    6   14 1   
    10    7    8 1   
    11    7   11 ar  
    12    8    9 2   
    13    8   15 1   
    14    9   10 1   
    15    9   16 1   
    16   10   11 1   
    17   10   18 1   
    18   11   12 ar  
    19   12   17 1   
@<TRIPOS>SUBSTRUCTURE
     1 1F1         1 TEMP              0 ****  ****    0 ROOT
