@<TRIPOS>MOLECULE
1F1
   18    12     1     0     0
SMALL
bcc


@<TRIPOS>ATOM
      1 O1         -1.1390    0.9620    3.6690 o         1 1F1     -0.565000
      2 C2         -1.6910    0.4300    2.6710 c1        1 1F1      0.356000
      3 O3         -2.8430   -0.0680    2.7790 os        1 1F1     -0.569000
      4 C4         -0.9720    0.3900    1.3410 c2        1 1F1     -0.087000
      5 C5         -1.0320    1.4780    0.4800 c2        1 1F1     -0.120000
      6 C6         -0.3360    1.4520   -0.7200 c1        1 1F1     -0.129000
      7 C7          0.4300    0.3250   -1.0640 c1        1 1F1     -0.150000
      8 C8          1.2040    0.0360   -2.1670 c1        1 1F1     -0.150000
      9 C9          1.7400   -1.2240   -1.9930 c1        1 1F1     -0.076500
     10 N10         1.3010   -1.7080   -0.7920 n2        1 1F1     -0.217000
     11 C11         0.4880   -0.7500   -0.2140 c1        1 1F1     -0.076500
     12 C12        -0.2170   -0.7230    1.0010 c1        1 1F1     -0.126000
     13 H5         -1.5580    2.2640    0.7220 ha        1 1F1      0.152000
     14 H6         -0.3770    2.2170   -1.3250 ha        1 1F1      0.108000
     15 H8          1.3470    0.6200   -2.9360 DU        1 1F1      0.166000
     16 H9          2.3310   -1.6870   -2.6170 DU        1 1F1      0.166000
     17 H12        -0.1860   -1.4930    1.6010 ha        1 1F1      0.153000
     18 HN10        1.5080   -2.5210   -0.4350 DU        1 1F1      0.166000
@<TRIPOS>BOND
     1    1    2 1   
     2    2    4 1   
     3    4    5 1   
     4    4   12 1   
     5    5    6 1   
     6    5   13 1   
     7    6   14 1   
     8    7   11 1   
     9    8    9 1   
    10    9   10 1   
    11   10   11 1   
    12   12   17 1   
@<TRIPOS>SUBSTRUCTURE
     1 1F1         1 TEMP              0 ****  ****    0 ROOT
