@<TRIPOS>MOLECULE
1F1
   18    19     1     0     0
SMALL
bcc


@<TRIPOS>ATOM
      1 O1         -0.0650    0.0030    0.0070 o         1 1F1     -0.832300
      2 C2          1.1990   -0.0100    0.0440 c         1 1F1      0.907200
      3 O3          1.8760   -0.0060    1.1110 o         1 1F1     -0.832300
      4 C4          1.9510   -0.0280   -1.2810 ca        1 1F1     -0.107600
      5 C5          3.3620   -0.0010   -1.2820 ca        1 1F1     -0.120000
      6 C6          4.0920   -0.0030   -2.4590 ca        1 1F1     -0.129000
      7 C7          3.4090   -0.0300   -3.6780 ca        1 1F1     -0.113800
      8 C8          3.8160   -0.0240   -5.0670 cc        1 1F1     -0.186200
      9 C9          2.6590   -0.0520   -5.8360 cd        1 1F1     -0.156100
     10 N10         1.5280   -0.1490   -5.0100 na        1 1F1     -0.194400
     11 C11         1.9670   -0.0690   -3.6750 ca        1 1F1     -0.069200
     12 C12         1.2410   -0.0670   -2.4750 ca        1 1F1     -0.126000
     13 H5          3.8640    0.0230   -0.3010 ha        1 1F1      0.152000
     14 H6          5.1900    0.0150   -2.4460 ha        1 1F1      0.108000
     15 H8          4.8390   -0.0070   -5.4280 ha        1 1F1      0.134000
     16 H9          2.5480   -0.0570   -6.9200 h4        1 1F1      0.140000
     17 H12         0.1420   -0.0930   -2.4490 ha        1 1F1      0.153000
     18 HN10        0.6240    0.1250   -5.2910 hn        1 1F1      0.273700
@<TRIPOS>BOND
     1    1    2 1   
     2    2    3 1   
     3    2    4 1   
     4    4    5 ar  
     5    4   12 ar  
     6    5    6 ar  
     7    5   13 1   
     8    6    7 ar  
     9    6   14 1   
    10    7    8 1   
    11    7   11 ar  
    12    8    9 2   
    13    8   15 1   
    14    9   10 1   
    15    9   16 1   
    16   10   11 1   
    17   10   18 1   
    18   11   12 ar  
    19   12   17 1   
@<TRIPOS>SUBSTRUCTURE
     1 1F1         1 TEMP              0 ****  ****    0 ROOT
