@<TRIPOS>MOLECULE
1F6
   51    53     1     0     0
SMALL
bcc


@<TRIPOS>ATOM
      1 C1         -0.0680   -0.1770    0.1350 ca        1 1F6     -0.160300
      2 C2          1.3060   -0.0110   -0.0020 ca        1 1F6     -0.071000
      3 C3          2.1330    0.0880    1.1370 ca        1 1F6      0.001600
      4 C4          1.5430    0.0100    2.4320 ca        1 1F6      0.057600
      5 C5          0.1420   -0.1550    2.5320 ca        1 1F6     -0.142000
      6 C6         -0.6540   -0.2420    1.3990 ca        1 1F6     -0.056000
      7 N7          3.5300    0.2820    0.9470 n         1 1F6     -0.252200
      8 C8          4.4540   -0.5910    1.4820 c         1 1F6      0.701700
      9 C9          4.0830   -1.3810    2.7000 cc        1 1F6     -0.128400
     10 C10         3.4320   -0.6570    3.8440 c         1 1F6      0.698700
     11 N11         2.3130    0.1250    3.6110 n         1 1F6     -0.356000
     12 C12         4.4950   -2.6460    2.9110 c2        1 1F6     -0.029000
     13 N13         5.3350   -3.4030    1.9980 n4        1 1F6     -0.656800
     14 C14         4.6460   -4.6230    1.4700 c3        1 1F6      0.106800
     15 C15         5.6050   -5.5160    0.6740 c3        1 1F6      0.102400
     16 O16         6.7070   -5.7860    1.5300 os        1 1F6     -0.461600
     17 C17         7.5650   -6.8100    1.0350 c3        1 1F6      0.118700
     18 C18         3.9260    1.2640   -0.0220 ca        1 1F6     -0.001400
     19 C19         3.5540    2.6100    0.1780 ca        1 1F6     -0.114000
     20 C20         3.9340    3.5740   -0.7520 ca        1 1F6     -0.115000
     21 C21         4.6830    3.2210   -1.8750 ca        1 1F6     -0.103000
     22 C22         5.0570    1.8930   -2.0690 ca        1 1F6     -0.115000
     23 C23         4.6840    0.9110   -1.1540 ca        1 1F6     -0.114000
     24 C24         1.7480    0.8590    4.7250 c3        1 1F6      0.070300
     25 C25        -0.9310   -0.3080   -1.1200 c3        1 1F6      0.691200
     26 F26        -0.9660   -1.5850   -1.6250 f         1 1F6     -0.224300
     27 F27        -2.2480    0.0280   -0.9380 f         1 1F6     -0.224300
     28 F28        -0.5130    0.4660   -2.1730 f         1 1F6     -0.224300
     29 O29         5.6040   -0.7440    1.0120 o         1 1F6     -0.636500
     30 O30         3.9460   -0.7430    4.9730 o         1 1F6     -0.574500
     31 H1          1.7440    0.0690   -1.0140 ha        1 1F6      0.177000
     32 H2         -0.3350   -0.2060    3.5260 ha        1 1F6      0.166000
     33 H3         -1.7480   -0.3600    1.4970 ha        1 1F6      0.177000
     34 H5          4.2520   -3.1940    3.8480 hx        1 1F6      0.216000
     35 H6          4.2400   -5.1990    2.3510 hx        1 1F6      0.111700
     36 H7          3.7950   -4.3000    0.8090 hx        1 1F6      0.111700
     37 H8          5.0630   -6.4620    0.4030 h1        1 1F6      0.075200
     38 H9          5.9670   -5.0090   -0.2600 h1        1 1F6      0.075200
     39 H10         7.9930   -6.5110    0.0470 h1        1 1F6      0.059033
     40 H11         7.0070   -7.7740    0.9460 h1        1 1F6      0.059033
     41 H12         8.3680   -6.8850    1.8120 h1        1 1F6      0.059033
     42 H13         2.9660    2.9060    1.0600 ha        1 1F6      0.143500
     43 H14         3.6410    4.6240   -0.5930 ha        1 1F6      0.151500
     44 H15         4.9800    3.9910   -2.6040 ha        1 1F6      0.153000
     45 H16         5.6550    1.6120   -2.9510 ha        1 1F6      0.151500
     46 H17         5.0090   -0.1290   -1.3090 ha        1 1F6      0.143500
     47 H18         2.5850    1.2650    5.3550 h1        1 1F6      0.070700
     48 H19         1.1110    0.1860    5.3610 h1        1 1F6      0.070700
     49 H20         1.1280    1.7060    4.3320 h1        1 1F6      0.070700
     50 H4          5.6560   -2.8110    1.2100 hn        1 1F6      0.485300
     51 H132        6.1790   -3.7080    2.5160 hn        1 1F6      0.485300
@<TRIPOS>BOND
     1    1    2 ar  
     2    1    6 ar  
     3    1   25 1   
     4    2    3 ar  
     5    2   31 1   
     6    3    4 ar  
     7    3    7 1   
     8    4    5 ar  
     9    4   11 1   
    10    5    6 ar  
    11    5   32 1   
    12    6   33 1   
    13    7    8 1   
    14    7   18 1   
    15    8    9 1   
    16    8   29 2   
    17    9   10 1   
    18    9   12 2   
    19   10   11 1   
    20   10   30 2   
    21   11   24 1   
    22   12   13 1   
    23   12   34 1   
    24   13   14 1   
    25   13   50 1   
    26   13   51 1   
    27   14   15 1   
    28   14   35 1   
    29   14   36 1   
    30   15   16 1   
    31   15   37 1   
    32   15   38 1   
    33   16   17 1   
    34   17   39 1   
    35   17   40 1   
    36   17   41 1   
    37   18   19 ar  
    38   18   23 ar  
    39   19   20 ar  
    40   19   42 1   
    41   20   21 ar  
    42   20   43 1   
    43   21   22 ar  
    44   21   44 1   
    45   22   23 ar  
    46   22   45 1   
    47   23   46 1   
    48   24   47 1   
    49   24   48 1   
    50   24   49 1   
    51   25   26 1   
    52   25   27 1   
    53   25   28 1   
@<TRIPOS>SUBSTRUCTURE
     1 1F6         1 TEMP              0 ****  ****    0 ROOT
