@<TRIPOS>MOLECULE
1F6
   51    53     1     0     0
SMALL
bcc


@<TRIPOS>ATOM
      1 C1         -0.0660   -0.1670    0.1380 ca        1 1F6     -0.160300
      2 C2          1.3080   -0.0050    0.0010 ca        1 1F6     -0.071000
      3 C3          2.1370    0.0920    1.1380 ca        1 1F6      0.001600
      4 C4          1.5480    0.0160    2.4340 ca        1 1F6      0.057600
      5 C5          0.1470   -0.1440    2.5360 ca        1 1F6     -0.142000
      6 C6         -0.6510   -0.2300    1.4030 ca        1 1F6     -0.056000
      7 N7          3.5340    0.2820    0.9460 n         1 1F6     -0.252200
      8 C8          4.4560   -0.5930    1.4810 c         1 1F6      0.701700
      9 C9          4.0840   -1.3820    2.7000 cc        1 1F6     -0.128400
     10 C10         3.4370   -0.6560    3.8440 c         1 1F6      0.698700
     11 N11         2.3200    0.1300    3.6120 n         1 1F6     -0.356000
     12 C12         4.4920   -2.6480    2.9100 c2        1 1F6     -0.029000
     13 N13         5.3290   -3.4090    1.9970 ny        1 1F6     -0.656800
     14 C14         4.6350   -4.6260    1.4690 c3        1 1F6      0.106800
     15 C15         5.5900   -5.5220    0.6730 c3        1 1F6      0.102400
     16 O16         6.6920   -5.7970    1.5280 os        1 1F6     -0.461600
     17 C17         7.5460   -6.8240    1.0310 c3        1 1F6      0.118700
     18 C18         3.9320    1.2620   -0.0230 ca        1 1F6     -0.001400
     19 C19         3.5650    2.6090    0.1760 ca        1 1F6     -0.114000
     20 C20         3.9460    3.5720   -0.7540 ca        1 1F6     -0.115000
     21 C21         4.6930    3.2170   -1.8770 ca        1 1F6     -0.103000
     22 C22         5.0640    1.8870   -2.0710 ca        1 1F6     -0.115000
     23 C23         4.6890    0.9070   -1.1560 ca        1 1F6     -0.114000
     24 C24         1.7580    0.8660    4.7260 c3        1 1F6      0.070300
     25 C25        -0.9310   -0.2960   -1.1150 c3        1 1F6      0.691200
     26 F26        -0.9690   -1.5740   -1.6200 f         1 1F6     -0.224300
     27 F27        -2.2470    0.0440   -0.9320 f         1 1F6     -0.224300
     28 F28        -0.5110    0.4760   -2.1690 f         1 1F6     -0.224300
     29 O29         5.6050   -0.7510    1.0100 o         1 1F6     -0.636500
     30 O30         3.9520   -0.7430    4.9730 o         1 1F6     -0.574500
     31 H1          1.7450    0.0730   -1.0120 ha        1 1F6      0.177000
     32 H2         -0.3290   -0.1930    3.5300 ha        1 1F6      0.166000
     33 H3         -1.7450   -0.3450    1.5030 ha        1 1F6      0.177000
     34 H5          4.2480   -3.1960    3.8480 hx        1 1F6      0.216000
     35 H6          4.2280   -5.2000    2.3510 hx        1 1F6      0.111700
     36 H7          3.7850   -4.3000    0.8080 hx        1 1F6      0.111700
     37 H8          5.0440   -6.4660    0.4010 h1        1 1F6      0.075200
     38 H9          5.9530   -5.0160   -0.2620 h1        1 1F6      0.075200
     39 H10         7.9740   -6.5260    0.0430 h1        1 1F6      0.059033
     40 H11         6.9840   -7.7850    0.9430 h1        1 1F6      0.059033
     41 H12         8.3490   -6.9010    1.8080 h1        1 1F6      0.059033
     42 H13         2.9780    2.9080    1.0590 ha        1 1F6      0.143500
     43 H14         3.6560    4.6230   -0.5950 ha        1 1F6      0.151500
     44 H15         4.9920    3.9860   -2.6070 ha        1 1F6      0.153000
     45 H16         5.6600    1.6040   -2.9530 ha        1 1F6      0.151500
     46 H17         5.0100   -0.1340   -1.3110 ha        1 1F6      0.143500
     47 H18         2.5980    1.2700    5.3560 h1        1 1F6      0.070700
     48 H19         1.1210    0.1960    5.3630 h1        1 1F6      0.070700
     49 H20         1.1400    1.7150    4.3330 h1        1 1F6      0.070700
     50 H4          5.6520   -2.8180    1.2080 hn        1 1F6      0.485300
     51 H132        6.1720   -3.7170    2.5140 hn        1 1F6      0.485300
@<TRIPOS>BOND
     1    1    2 ar  
     2    1    6 ar  
     3    1   25 1   
     4    2    3 ar  
     5    2   31 1   
     6    3    4 ar  
     7    3    7 1   
     8    4    5 ar  
     9    4   11 1   
    10    5    6 ar  
    11    5   32 1   
    12    6   33 1   
    13    7    8 1   
    14    7   18 1   
    15    8    9 1   
    16    8   29 2   
    17    9   10 1   
    18    9   12 2   
    19   10   11 1   
    20   10   30 2   
    21   11   24 1   
    22   12   13 1   
    23   12   34 1   
    24   13   14 1   
    25   13   50 1   
    26   13   51 1   
    27   14   15 1   
    28   14   35 1   
    29   14   36 1   
    30   15   16 1   
    31   15   37 1   
    32   15   38 1   
    33   16   17 1   
    34   17   39 1   
    35   17   40 1   
    36   17   41 1   
    37   18   19 ar  
    38   18   23 ar  
    39   19   20 ar  
    40   19   42 1   
    41   20   21 ar  
    42   20   43 1   
    43   21   22 ar  
    44   21   44 1   
    45   22   23 ar  
    46   22   45 1   
    47   23   46 1   
    48   24   47 1   
    49   24   48 1   
    50   24   49 1   
    51   25   26 1   
    52   25   27 1   
    53   25   28 1   
@<TRIPOS>SUBSTRUCTURE
     1 1F6         1 TEMP              0 ****  ****    0 ROOT
