@<TRIPOS>MOLECULE
1F6
   50    45     1     0     0
SMALL
bcc


@<TRIPOS>ATOM
      1 C1         -4.0730    0.4860   -1.8140 c1        1 1F6     -0.168000
      2 C2         -2.7080    0.4820   -1.8130 c2        1 1F6     -0.082000
      3 C3         -1.9820    0.5330   -0.5640 c1        1 1F6      0.048000
      4 C4         -2.6180    0.5820    0.5500 c2        1 1F6      0.091000
      5 C5         -4.0570    0.5870    0.5560 c1        1 1F6     -0.162000
      6 C6         -4.7520    0.5380   -0.6410 c1        1 1F6     -0.073000
      7 N7         -0.6770    0.9300   -0.3940 n2        1 1F6     -0.248000
      8 C8          0.2310   -0.2140   -0.4460 c1        1 1F6      0.400000
      9 C9         -0.0280   -1.2620    0.8910 c1        1 1F6     -0.370000
     10 C10        -1.4710   -1.0390    1.5430 c2        1 1F6      0.381000
     11 N11        -1.7920    0.2610    1.5840 n         1 1F6     -0.280000
     12 C12         0.9050   -2.1930    1.3540 c1        1 1F6      0.145000
     13 N13         2.1730   -2.3220    0.7080 n2        1 1F6     -0.293000
     14 C14         2.9170   -3.5320    0.8440 c3        1 1F6     -0.040000
     15 C15         4.5020   -3.2020    0.8150 c3        1 1F6     -0.054000
     16 O16         5.2080   -4.3400    0.4970 os        1 1F6     -0.280000
     17 C17         6.4840   -4.0830   -0.0850 c3        1 1F6     -0.073000
     18 C18        -0.2590    2.2700   -0.3930 c2        1 1F6      0.048000
     19 C19        -1.1800    3.2710   -0.6190 c2        1 1F6     -0.132000
     20 C20        -0.7600    4.5900   -0.7370 c1        1 1F6     -0.124000
     21 C21         0.6100    4.9070   -0.6250 c1        1 1F6     -0.127500
     22 C22         1.5360    3.9030   -0.3980 c1        1 1F6     -0.127500
     23 C23         1.1150    2.5850   -0.2810 c1        1 1F6     -0.120000
     24 C24        -1.5340    1.1190    2.7100 c3        1 1F6     -0.079000
     25 C25        -4.8320    0.3800   -3.1390 c2        1 1F6      0.470000
     26 F26        -5.4410    1.5910   -3.4290 f         1 1F6     -0.165333
     27 F27        -3.9370    0.0580   -4.1590 f         1 1F6     -0.165333
     28 F28        -5.7440   -0.5560   -3.0430 f         1 1F6     -0.165333
     29 O29         1.2220   -0.2160   -1.0820 o         1 1F6     -0.378000
     30 O30        -2.2060   -1.9250    1.8700 o         1 1F6     -0.363000
     31 H1         -2.2200    0.4430   -2.6620 ha        1 1F6      0.166000
     32 H2         -4.5620    0.6240    1.4410 ha        1 1F6      0.150000
     33 H3         -5.7380    0.5390   -0.6400 ha        1 1F6      0.155000
     34 H5          0.7050   -2.7220    2.0720 ha        1 1F6      0.168000
     35 H6          2.6990   -4.1240    0.1260 h1        1 1F6      0.113500
     36 H7          2.6840   -3.9690    1.7220 h1        1 1F6      0.113500
     37 H8          4.6850   -2.5010    0.1350 h1        1 1F6      0.080000
     38 H9          4.7860   -2.8770    1.7140 h1        1 1F6      0.080000
     39 H10         6.8200   -4.8810   -0.4760 h1        1 1F6      0.077333
     40 H11         6.3940   -3.3720   -0.7920 h1        1 1F6      0.077333
     41 H12         7.0930   -3.7790    0.5980 h1        1 1F6      0.077333
     42 H13        -2.1440    3.0480   -0.6980 ha        1 1F6      0.141000
     43 H14        -1.4150    5.2970   -0.8960 ha        1 1F6      0.135000
     44 H15         0.9010    5.8220   -0.7070 ha        1 1F6      0.134500
     45 H16         2.5430    4.1340   -0.3170 ha        1 1F6      0.134500
     46 H17         1.7870    1.8530   -0.1170 ha        1 1F6      0.155000
     47 H18        -2.0620    0.8090    3.4880 h1        1 1F6      0.091333
     48 H19        -0.5760    1.0910    2.9320 h1        1 1F6      0.091333
     49 H20        -1.7760    1.9890    2.4990 h1        1 1F6      0.091333
     50 H4          2.5440   -1.6160    0.3160 hn        1 1F6      0.254000
@<TRIPOS>BOND
     1    1    2 1   
     2    1    6 1   
     3    2    3 1   
     4    2   31 1   
     5    3    4 1   
     6    4    5 1   
     7    4   11 1   
     8    5   32 1   
     9    6   33 1   
    10    7    8 1   
    11    7   18 1   
    12    8   29 1   
    13    9   10 1   
    14    9   12 1   
    15   10   11 1   
    16   10   30 1   
    17   11   24 1   
    18   12   34 1   
    19   13   14 1   
    20   13   50 1   
    21   14   15 1   
    22   14   35 1   
    23   14   36 1   
    24   15   16 1   
    25   15   37 1   
    26   15   38 1   
    27   16   17 1   
    28   17   39 1   
    29   17   40 1   
    30   17   41 1   
    31   18   19 1   
    32   18   23 1   
    33   19   20 1   
    34   19   42 1   
    35   20   43 1   
    36   21   22 1   
    37   21   44 1   
    38   22   45 1   
    39   23   46 1   
    40   24   47 1   
    41   24   48 1   
    42   24   49 1   
    43   25   26 1   
    44   25   27 1   
    45   25   28 1   
@<TRIPOS>SUBSTRUCTURE
     1 1F6         1 TEMP              0 ****  ****    0 ROOT
