@<TRIPOS>MOLECULE
1F6
   50    52     1     0     0
SMALL
bcc


@<TRIPOS>ATOM
      1 C1          2.5990    0.0300   -1.3260 ca        1 1F6     -0.176300
      2 C2          1.6440   -0.5560   -0.5030 ca        1 1F6     -0.083000
      3 C3          0.8670    0.2310    0.3740 ca        1 1F6      0.042600
      4 C4          1.0570    1.6450    0.3860 ca        1 1F6      0.082600
      5 C5          2.0370    2.2050   -0.4670 ca        1 1F6     -0.163000
      6 C6          2.8020    1.4100   -1.3070 ca        1 1F6     -0.075000
      7 N7         -0.0640   -0.4070    1.2300 n         1 1F6     -0.304200
      8 C8         -1.4280   -0.0670    1.2070 c         1 1F6      0.761700
      9 C9         -1.8290    1.2770    0.7710 cc        1 1F6     -0.419400
     10 C10        -1.0960    2.4750    1.2050 c         1 1F6      0.743700
     11 N11         0.3110    2.4760    1.2460 n         1 1F6     -0.377000
     12 C12        -3.0310    1.4990    0.1260 c2        1 1F6      0.234000
     13 N13        -3.9390    0.5640   -0.2210 nh        1 1F6     -0.731000
     14 C14        -5.0720    0.8520   -1.0560 c3        1 1F6      0.205800
     15 C15        -4.9470    0.3260   -2.4940 c3        1 1F6      0.098400
     16 O16        -4.9550   -1.0950   -2.4110 os        1 1F6     -0.424600
     17 C17        -4.8250   -1.7190   -3.6790 c3        1 1F6      0.115700
     18 C18         0.4000   -1.5600    1.9300 ca        1 1F6      0.042600
     19 C19         1.5450   -1.4530    2.7510 ca        1 1F6     -0.127500
     20 C20         2.0110   -2.5630    3.4470 ca        1 1F6     -0.124000
     21 C21         1.3520   -3.7880    3.3520 ca        1 1F6     -0.132000
     22 C22         0.2180   -3.9000    2.5500 ca        1 1F6     -0.124000
     23 C23        -0.2590   -2.8030    1.8360 ca        1 1F6     -0.127500
     24 C24         0.9630    3.6520    1.7720 c3        1 1F6      0.076300
     25 C25         3.4150   -0.8420   -2.2710 c3        1 1F6      0.691200
     26 F26         2.8360   -1.0280   -3.5050 f         1 1F6     -0.237300
     27 F27         4.6660   -0.3530   -2.5630 f         1 1F6     -0.237300
     28 F28         3.6500   -2.1180   -1.8190 f         1 1F6     -0.237300
     29 O29        -2.2770   -0.9100    1.5680 o         1 1F6     -0.647500
     30 O30        -1.6990    3.5090    1.5630 o         1 1F6     -0.642500
     31 H1          1.5120   -1.6520   -0.5210 ha        1 1F6      0.166000
     32 H2          2.2040    3.2940   -0.4680 ha        1 1F6      0.150000
     33 H3          3.5670    1.8640   -1.9570 ha        1 1F6      0.154000
     34 H5         -3.2910    2.5530   -0.1300 h4        1 1F6      0.163000
     35 H6         -5.9760    0.3690   -0.5830 h1        1 1F6      0.070700
     36 H7         -5.2430    1.9640   -1.1090 h1        1 1F6      0.070700
     37 H8         -5.8310    0.6770   -3.0910 h1        1 1F6      0.039700
     38 H9         -4.0030    0.6770   -2.9880 h1        1 1F6      0.039700
     39 H10        -5.6770   -1.4350   -4.3450 h1        1 1F6      0.038033
     40 H11        -3.8550   -1.4390   -4.1580 h1        1 1F6      0.038033
     41 H12        -4.8510   -2.8140   -3.4510 h1        1 1F6      0.038033
     42 H13         2.0730   -0.4920    2.8430 ha        1 1F6      0.149000
     43 H14         2.9040   -2.4670    4.0820 ha        1 1F6      0.134500
     44 H15         1.7240   -4.6600    3.9080 ha        1 1F6      0.133000
     45 H16        -0.3100   -4.8620    2.4740 ha        1 1F6      0.134500
     46 H17        -1.1690   -2.9050    1.2240 ha        1 1F6      0.149000
     47 H18         0.9270    4.5050    1.0410 h1        1 1F6      0.050700
     48 H19         0.4280    3.9670    2.7080 h1        1 1F6      0.050700
     49 H20         2.0300    3.4110    2.0110 h1        1 1F6      0.050700
     50 H4         -3.7750   -0.3990    0.0030 hn        1 1F6      0.473800
@<TRIPOS>BOND
     1    1    2 ar  
     2    1    6 ar  
     3    1   25 1   
     4    2    3 ar  
     5    2   31 1   
     6    3    4 ar  
     7    3    7 1   
     8    4    5 ar  
     9    4   11 1   
    10    5    6 ar  
    11    5   32 1   
    12    6   33 1   
    13    7    8 1   
    14    7   18 1   
    15    8    9 1   
    16    8   29 2   
    17    9   10 1   
    18    9   12 2   
    19   10   11 1   
    20   10   30 2   
    21   11   24 1   
    22   12   13 1   
    23   12   34 1   
    24   13   14 1   
    25   13   50 1   
    26   14   15 1   
    27   14   35 1   
    28   14   36 1   
    29   15   16 1   
    30   15   37 1   
    31   15   38 1   
    32   16   17 1   
    33   17   39 1   
    34   17   40 1   
    35   17   41 1   
    36   18   19 ar  
    37   18   23 ar  
    38   19   20 ar  
    39   19   42 1   
    40   20   21 ar  
    41   20   43 1   
    42   21   22 ar  
    43   21   44 1   
    44   22   23 ar  
    45   22   45 1   
    46   23   46 1   
    47   24   47 1   
    48   24   48 1   
    49   24   49 1   
    50   25   26 1   
    51   25   27 1   
    52   25   28 1   
@<TRIPOS>SUBSTRUCTURE
     1 1F6         1 TEMP              0 ****  ****    0 ROOT
