@<TRIPOS>MOLECULE
1F6
   51    53     1     0     0
SMALL
bcc


@<TRIPOS>ATOM
      1 C1         -0.0660   -0.1760    0.1220 ca        1 1F6     -0.160300
      2 C2          1.3080   -0.0120   -0.0100 ca        1 1F6     -0.071000
      3 C3          2.1330    0.0890    1.1300 ca        1 1F6      0.001600
      4 C4          1.5390    0.0140    2.4240 ca        1 1F6      0.057600
      5 C5          0.1380   -0.1490    2.5210 ca        1 1F6     -0.142000
      6 C6         -0.6560   -0.2380    1.3850 ca        1 1F6     -0.056000
      7 N7          3.5300    0.2820    0.9430 n         1 1F6     -0.252200
      8 C8          4.4520   -0.5910    1.4830 c         1 1F6      0.701700
      9 C9          4.0770   -1.3770    2.7020 cc        1 1F6     -0.128400
     10 C10         3.4240   -0.6500    3.8420 c         1 1F6      0.698700
     11 N11         2.3060    0.1320    3.6040 n         1 1F6     -0.356000
     12 C12         4.4880   -2.6420    2.9180 c2        1 1F6     -0.029000
     13 N13         5.3310   -3.4020    2.0090 n4        1 1F6     -0.656800
     14 C14         4.6440   -4.6250    1.4850 c3        1 1F6      0.106800
     15 C15         5.6040   -5.5200    0.6940 c3        1 1F6      0.102400
     16 O16         6.7060   -5.7850    1.5520 os        1 1F6     -0.461600
     17 C17         7.5660   -6.8100    1.0610 c3        1 1F6      0.118700
     18 C18         3.9290    1.2610   -0.0270 ca        1 1F6     -0.001400
     19 C19         3.5610    2.6080    0.1690 ca        1 1F6     -0.114000
     20 C20         3.9440    3.5690   -0.7630 ca        1 1F6     -0.115000
     21 C21         4.6930    3.2120   -1.8830 ca        1 1F6     -0.103000
     22 C22         5.0660    1.8820   -2.0740 ca        1 1F6     -0.115000
     23 C23         4.6890    0.9030   -1.1570 ca        1 1F6     -0.114000
     24 C24         1.7380    0.8690    4.7150 c3        1 1F6      0.070300
     25 C25        -0.9260   -0.3090   -1.1340 c3        1 1F6      0.691200
     26 F26        -0.9600   -1.5880   -1.6360 f         1 1F6     -0.224300
     27 F27        -2.2430    0.0290   -0.9560 f         1 1F6     -0.224300
     28 F28        -0.5030    0.4610   -2.1880 f         1 1F6     -0.224300
     29 O29         5.6030   -0.7460    1.0160 o         1 1F6     -0.636500
     30 O30         3.9350   -0.7340    4.9730 o         1 1F6     -0.574500
     31 H1          1.7490    0.0660   -1.0220 ha        1 1F6      0.177000
     32 H2         -0.3420   -0.1980    3.5130 ha        1 1F6      0.166000
     33 H3         -1.7490   -0.3560    1.4800 ha        1 1F6      0.177000
     34 H5          4.2430   -3.1880    3.8550 hx        1 1F6      0.216000
     35 H6          4.2380   -5.1970    2.3680 hx        1 1F6      0.111700
     36 H7          3.7930   -4.3050    0.8220 hx        1 1F6      0.111700
     37 H8          5.0640   -6.4670    0.4250 h1        1 1F6      0.075200
     38 H9          5.9660   -5.0160   -0.2420 h1        1 1F6      0.075200
     39 H10         8.3690   -6.8800    1.8380 h1        1 1F6      0.059033
     40 H11         7.0090   -7.7740    0.9760 h1        1 1F6      0.059033
     41 H12         7.9940   -6.5140    0.0710 h1        1 1F6      0.059033
     42 H13         2.9720    2.9080    1.0500 ha        1 1F6      0.143500
     43 H14         3.6530    4.6200   -0.6060 ha        1 1F6      0.151500
     44 H15         4.9930    3.9800   -2.6140 ha        1 1F6      0.153000
     45 H16         5.6630    1.5980   -2.9540 ha        1 1F6      0.151500
     46 H17         5.0110   -0.1380   -1.3100 ha        1 1F6      0.143500
     47 H18         1.0990    0.1980    5.3510 h1        1 1F6      0.070700
     48 H19         2.5740    1.2760    5.3470 h1        1 1F6      0.070700
     49 H20         1.1200    1.7150    4.3180 h1        1 1F6      0.070700
     50 H4          6.1740   -3.7040    2.5300 hn        1 1F6      0.485300
     51 H132        5.6530   -2.8130    1.2190 hn        1 1F6      0.485300
@<TRIPOS>BOND
     1    1    2 ar  
     2    1    6 ar  
     3    1   25 1   
     4    2    3 ar  
     5    2   31 1   
     6    3    4 ar  
     7    3    7 1   
     8    4    5 ar  
     9    4   11 1   
    10    5    6 ar  
    11    5   32 1   
    12    6   33 1   
    13    7    8 1   
    14    7   18 1   
    15    8    9 1   
    16    8   29 2   
    17    9   10 1   
    18    9   12 2   
    19   10   11 1   
    20   10   30 2   
    21   11   24 1   
    22   12   13 1   
    23   12   34 1   
    24   13   14 1   
    25   13   50 1   
    26   13   51 1   
    27   14   15 1   
    28   14   35 1   
    29   14   36 1   
    30   15   16 1   
    31   15   37 1   
    32   15   38 1   
    33   16   17 1   
    34   17   39 1   
    35   17   40 1   
    36   17   41 1   
    37   18   19 ar  
    38   18   23 ar  
    39   19   20 ar  
    40   19   42 1   
    41   20   21 ar  
    42   20   43 1   
    43   21   22 ar  
    44   21   44 1   
    45   22   23 ar  
    46   22   45 1   
    47   23   46 1   
    48   24   47 1   
    49   24   48 1   
    50   24   49 1   
    51   25   26 1   
    52   25   27 1   
    53   25   28 1   
@<TRIPOS>SUBSTRUCTURE
     1 1F6         1 TEMP              0 ****  ****    0 ROOT
