@<TRIPOS>MOLECULE
1F7
   85    84     1     0     0
SMALL
bcc


@<TRIPOS>ATOM
      1 O1P         1.2660    0.6920    0.8750 o         1 1F7     -0.922833
      2 P           1.9720    1.3680    2.0250 p5        1 1F7      1.346900
      3 O2P         2.9240    0.3440    2.6170 o         1 1F7     -0.922833
      4 O3P         3.0570    2.4370    1.2370 os        1 1F7     -0.560200
      5 C1         -2.1310   -3.3450   -1.1110 c         1 1F7      0.538700
      6 O1C        -2.3690   -4.0500   -0.1190 o         1 1F7     -0.560100
      7 C2         -2.8900   -3.5420   -2.4010 c3        1 1F7     -0.211400
      8 C3         -4.3990   -3.5580   -2.1740 c3        1 1F7      0.144100
      9 O3C        -5.0590   -4.0900   -3.3160 oh        1 1F7     -0.608800
     10 C4         -4.9170   -2.1640   -1.8360 c3        1 1F7     -0.113400
     11 C5         -6.3750   -2.1980   -1.4380 c3        1 1F7     -0.075400
     12 C6         -6.9050   -0.8040   -1.1810 c3        1 1F7     -0.081400
     13 C7         -8.3600   -0.8380   -0.7620 c3        1 1F7     -0.076400
     14 C8         -8.8880    0.5570   -0.5040 c3        1 1F7     -0.080400
     15 C9        -10.3420    0.5260   -0.0840 c3        1 1F7     -0.077400
     16 C10       -10.8690    1.9210    0.1760 c3        1 1F7     -0.080400
     17 C11       -12.3230    1.8900    0.5960 c3        1 1F7     -0.078400
     18 C12       -12.8490    3.2850    0.8570 c3        1 1F7     -0.080400
     19 C13       -14.3030    3.2570    1.2780 c3        1 1F7     -0.079400
     20 C14       -14.8310    4.6440    1.5390 c3        1 1F7     -0.092100
     21 C28         3.8760    1.8410    0.3110 c3        1 1F7      0.228400
     22 C29         5.3830    1.9590    0.6910 c3        1 1F7     -0.111000
     23 C30         5.9160    3.2520    0.0820 c3        1 1F7     -0.091100
     24 C31         5.5500    2.0140    2.2000 c3        1 1F7     -0.091100
     25 C32         6.2180    0.8010    0.1110 c3        1 1F7      0.093100
     26 O33         5.8250    0.4280   -1.1990 oh        1 1F7     -0.615800
     27 C34         6.3040   -0.4580    0.9990 c         1 1F7      0.622100
     28 O35         7.4340   -0.9740    1.1980 o         1 1F7     -0.694100
     29 N36         5.1440   -1.0240    1.4500 n         1 1F7     -0.540900
     30 C37         5.1820   -2.1880    2.2970 c3        1 1F7      0.112000
     31 C38         3.8320   -2.5010    2.9420 c3        1 1F7     -0.174400
     32 C39         2.8560   -3.0510    1.9160 c         1 1F7      0.659100
     33 O40         2.7460   -4.2980    1.7630 o         1 1F7     -0.723100
     34 N41         2.1380   -2.1590    1.1710 n         1 1F7     -0.541900
     35 C42         1.2140   -2.5960    0.1620 c3        1 1F7      0.120000
     36 C43        -0.1240   -1.8720    0.2130 c3        1 1F7     -0.072300
     37 S44        -1.0210   -2.0760   -1.2960 ss        1 1F7     -0.216700
     38 O1          1.2090    2.2590    2.9440 o         1 1F7     -0.922833
     39 H2         -2.6230   -2.7380   -3.1360 hc        1 1F7      0.068700
     40 H3         -2.5830   -4.5290   -2.8410 hc        1 1F7      0.068700
     41 H4         -4.6510   -4.2830   -1.3480 h1        1 1F7      0.093700
     42 H5         -4.8760   -3.4930   -4.0510 ho        1 1F7      0.389000
     43 H6         -4.2990   -1.7470   -0.9970 hc        1 1F7      0.057700
     44 H7         -4.7800   -1.4890   -2.7220 hc        1 1F7      0.057700
     45 H8         -6.9700   -2.6920   -2.2520 hc        1 1F7      0.041200
     46 H9         -6.4960   -2.8230   -0.5140 hc        1 1F7      0.041200
     47 H10        -6.2930   -0.3120   -0.3790 hc        1 1F7      0.045200
     48 H11        -6.7950   -0.1820   -2.1080 hc        1 1F7      0.045200
     49 H12        -8.9710   -1.3310   -1.5630 hc        1 1F7      0.035200
     50 H13        -8.4690   -1.4580    0.1660 hc        1 1F7      0.035200
     51 H14        -8.2750    1.0480    0.2970 hc        1 1F7      0.043200
     52 H15        -8.7780    1.1790   -1.4320 hc        1 1F7      0.043200
     53 H16       -10.9550    0.0350   -0.8850 hc        1 1F7      0.035700
     54 H17       -10.4510   -0.0960    0.8430 hc        1 1F7      0.035700
     55 H18       -10.2560    2.4100    0.9770 hc        1 1F7      0.041700
     56 H19       -10.7590    2.5430   -0.7510 hc        1 1F7      0.041700
     57 H20       -12.9370    1.4000   -0.2050 hc        1 1F7      0.036700
     58 H21       -12.4330    1.2680    1.5230 hc        1 1F7      0.036700
     59 H22       -12.2360    3.7750    1.6580 hc        1 1F7      0.040700
     60 H23       -12.7390    3.9080   -0.0700 hc        1 1F7      0.040700
     61 H24       -14.9150    2.7660    0.4760 hc        1 1F7      0.036200
     62 H25       -14.4110    2.6330    2.2040 hc        1 1F7      0.036200
     63 H26       -14.2480    5.1410    2.3520 hc        1 1F7      0.030033
     64 H27       -14.7540    5.2750    0.6200 hc        1 1F7      0.030033
     65 H28       -15.9030    4.6010    1.8480 hc        1 1F7      0.030033
     66 H29         3.5840    0.7600    0.1750 h1        1 1F7     -0.004300
     67 H30         3.7480    2.3510   -0.6910 h1        1 1F7     -0.004300
     68 H31         5.2420    4.0960    0.3650 hc        1 1F7      0.034367
     69 H32         6.9460    3.4700    0.4540 hc        1 1F7      0.034367
     70 H33         5.9490    3.1710   -1.0310 hc        1 1F7      0.034367
     71 H34         4.7100    1.4440    2.6940 hc        1 1F7      0.034367
     72 H35         6.5380    1.5980    2.5120 hc        1 1F7      0.034367
     73 H36         5.4790    3.0710    2.5530 hc        1 1F7      0.034367
     74 H37         7.2850    1.1500   -0.0260 h1        1 1F7      0.064700
     75 H38         4.8980    0.1580   -1.1630 ho        1 1F7      0.418000
     76 H39         4.3290   -0.4190    1.5890 hn        1 1F7      0.397500
     77 H40         5.5230   -3.0690    1.6810 h1        1 1F7      0.023700
     78 H41         5.9440   -2.0470    3.1190 h1        1 1F7      0.023700
     79 H42         3.9880   -3.2900    3.7200 hc        1 1F7      0.094700
     80 H43         3.4100   -1.5710    3.4280 hc        1 1F7      0.094700
     81 H44         2.1730   -1.1540    1.3750 hn        1 1F7      0.410500
     82 H45         1.6790   -2.4010   -0.8500 h1        1 1F7      0.034700
     83 H46         1.0480   -3.7090    0.2560 h1        1 1F7      0.034700
     84 H47        -0.7300   -2.1980    1.0880 h1        1 1F7      0.149700
     85 H48         0.0520   -0.7450    0.2920 h1        1 1F7      0.149700
@<TRIPOS>BOND
     1    1    2 1   
     2    2    3 1   
     3    2    4 1   
     4    2   38 1   
     5    4   21 1   
     6    5    6 2   
     7    5    7 1   
     8    5   37 1   
     9    7    8 1   
    10    7   39 1   
    11    7   40 1   
    12    8    9 1   
    13    8   10 1   
    14    8   41 1   
    15    9   42 1   
    16   10   11 1   
    17   10   43 1   
    18   10   44 1   
    19   11   12 1   
    20   11   45 1   
    21   11   46 1   
    22   12   13 1   
    23   12   47 1   
    24   12   48 1   
    25   13   14 1   
    26   13   49 1   
    27   13   50 1   
    28   14   15 1   
    29   14   51 1   
    30   14   52 1   
    31   15   16 1   
    32   15   53 1   
    33   15   54 1   
    34   16   17 1   
    35   16   55 1   
    36   16   56 1   
    37   17   18 1   
    38   17   57 1   
    39   17   58 1   
    40   18   19 1   
    41   18   59 1   
    42   18   60 1   
    43   19   20 1   
    44   19   61 1   
    45   19   62 1   
    46   20   63 1   
    47   20   64 1   
    48   20   65 1   
    49   21   22 1   
    50   21   66 1   
    51   21   67 1   
    52   22   23 1   
    53   22   24 1   
    54   22   25 1   
    55   23   68 1   
    56   23   69 1   
    57   23   70 1   
    58   24   71 1   
    59   24   72 1   
    60   24   73 1   
    61   25   26 1   
    62   25   27 1   
    63   25   74 1   
    64   26   75 1   
    65   27   28 2   
    66   27   29 1   
    67   29   30 1   
    68   29   76 1   
    69   30   31 1   
    70   30   77 1   
    71   30   78 1   
    72   31   32 1   
    73   31   79 1   
    74   31   80 1   
    75   32   33 2   
    76   32   34 1   
    77   34   35 1   
    78   34   81 1   
    79   35   36 1   
    80   35   82 1   
    81   35   83 1   
    82   36   37 1   
    83   36   84 1   
    84   36   85 1   
@<TRIPOS>SUBSTRUCTURE
     1 1F7         1 TEMP              0 ****  ****    0 ROOT
