@<TRIPOS>MOLECULE
1F8
   30    31     1     0     0
SMALL
bcc


@<TRIPOS>ATOM
      1 SD         -0.1270    0.8920    0.7640 sh        1 1F8     -0.252900
      2 C15         1.5900    1.1980    0.5730 c3        1 1F8     -0.063300
      3 C16         2.3680    0.0850    1.2530 c3        1 1F8      0.103800
      4 N17         3.8290    0.3770    1.3600 ny        1 1F8     -0.672800
      5 C18         4.6280   -0.7610    1.9760 c         1 1F8      0.603300
      6 O19         4.0330   -1.8290    2.0920 o         1 1F8     -0.461100
      7 C20         5.9660   -0.4300    2.3490 cc        1 1F8     -0.315400
      8 C21         6.7290    0.7950    2.1340 ca        1 1F8     -0.087800
      9 C22         7.9970    0.5550    2.7480 ca        1 1F8      0.053100
     10 O23         8.0330   -0.7370    3.3050 os        1 1F8     -0.153200
     11 C24         6.8080   -1.3160    3.0480 cd        1 1F8      0.249900
     12 C25         9.0390    1.4720    2.7800 ca        1 1F8     -0.074000
     13 C26         8.7960    2.6970    2.1560 ca        1 1F8     -0.097000
     14 C27         7.5680    2.9620    1.5360 ca        1 1F8     -0.099000
     15 C28         6.5320    2.0270    1.5140 ca        1 1F8     -0.131000
     16 C29         6.6210   -2.6860    3.5300 c3        1 1F8     -0.094900
     17 HSD        -0.3390    0.1070   -0.2790 hs        1 1F8      0.210800
     18 H15         1.7710    2.1850    1.0740 h1        1 1F8      0.096200
     19 H15A        1.8860    1.2970   -0.5000 h1        1 1F8      0.096200
     20 H16         2.2530   -0.8840    0.6830 hx        1 1F8      0.123200
     21 H16A        1.9760   -0.0830    2.3000 hx        1 1F8      0.123200
     22 HN17        4.2130    0.5650    0.4270 hn        1 1F8      0.456300
     23 H25         9.9980    1.2400    3.2670 ha        1 1F8      0.180000
     24 H26         9.5860    3.4660    2.1500 ha        1 1F8      0.168000
     25 H27         7.4180    3.9400    1.0480 ha        1 1F8      0.158000
     26 H28         5.6030    2.2920    0.9960 ha        1 1F8      0.111000
     27 H29         7.0860   -3.4040    2.8010 hc        1 1F8      0.105033
     28 H29A        5.5300   -2.9220    3.6190 hc        1 1F8      0.105033
     29 H29B        7.1220   -2.8290    4.5230 hc        1 1F8      0.105033
     30 H172        3.9720    1.2160    1.9350 hn        1 1F8      0.456300
@<TRIPOS>BOND
     1    1    2 1   
     2    1   17 1   
     3    2    3 1   
     4    2   18 1   
     5    2   19 1   
     6    3    4 1   
     7    3   20 1   
     8    3   21 1   
     9    4    5 1   
    10    4   22 1   
    11    4   30 1   
    12    5    6 2   
    13    5    7 1   
    14    7    8 1   
    15    7   11 2   
    16    8    9 ar  
    17    8   15 ar  
    18    9   10 1   
    19    9   12 ar  
    20   10   11 1   
    21   11   16 1   
    22   12   13 ar  
    23   12   23 1   
    24   13   14 ar  
    25   13   24 1   
    26   14   15 ar  
    27   14   25 1   
    28   15   26 1   
    29   16   27 1   
    30   16   28 1   
    31   16   29 1   
@<TRIPOS>SUBSTRUCTURE
     1 1F8         1 TEMP              0 ****  ****    0 ROOT
