@<TRIPOS>MOLECULE
1F8
   29    25     1     0     0
SMALL
bcc


@<TRIPOS>ATOM
      1 SD         -5.6850   -1.2300   -0.7650 sh        1 1F8     -0.008000
      2 C15        -3.9290   -1.3670   -1.0310 c3        1 1F8     -0.296000
      3 C16        -3.2190   -0.1740   -0.3790 c3        1 1F8     -0.033000
      4 N17        -1.8020   -0.4450   -0.2880 n         1 1F8     -0.372000
      5 C18        -0.8780    0.6240    0.0320 c2        1 1F8      0.370000
      6 O19        -1.2530    1.7840   -0.0010 o         1 1F8     -0.362000
      7 C20         0.5880    0.2960    0.3890 c2        1 1F8     -0.186000
      8 C21         1.7970    0.3370   -0.3020 c1        1 1F8     -0.063000
      9 C22         2.8090    0.4590    0.6220 c1        1 1F8      0.007000
     10 O23         2.2340    0.4940    1.8900 o         1 1F8     -0.107000
     11 C24         0.8670    0.3940    1.7430 c1        1 1F8      0.053000
     12 C25         4.1480    0.5740    0.1920 c1        1 1F8     -0.122000
     13 C26         4.4450    0.5640   -1.1640 c1        1 1F8     -0.129000
     14 C27         3.4210    0.4410   -2.1010 c1        1 1F8     -0.129000
     15 C28         2.0990    0.3280   -1.6770 c1        1 1F8     -0.070000
     16 C29         0.3620    0.3340    3.1800 c2        1 1F8     -0.179000
     17 HSD        -6.2400   -2.1000   -1.3410 hs        1 1F8      0.035000
     18 H15        -3.7440   -1.3720   -1.9870 h1        1 1F8      0.119000
     19 H15A       -3.6030   -2.1970   -0.6320 h1        1 1F8      0.119000
     20 H16        -3.3640    0.6300   -0.9230 h1        1 1F8      0.111000
     21 H16A       -3.5830   -0.0290    0.5210 h1        1 1F8      0.111000
     22 HN17       -1.4870   -1.2880   -0.4460 hn        1 1F8      0.215000
     23 H25         4.8670    0.6600    0.8500 ha        1 1F8      0.151000
     24 H26         5.3740    0.6440   -1.4620 ha        1 1F8      0.137000
     25 H27         3.6300    0.4350   -3.0510 ha        1 1F8      0.137000
     26 H28         1.3830    0.2420   -2.3320 ha        1 1F8      0.166000
     27 H29         1.0160   -0.1390    3.7370 ha        1 1F8      0.109000
     28 H29A       -0.4950   -0.1430    3.2050 ha        1 1F8      0.109000
     29 H29B        0.2390    1.2460    3.5220 ha        1 1F8      0.109000
@<TRIPOS>BOND
     1    1    2 1   
     2    1   17 1   
     3    2    3 1   
     4    2   18 1   
     5    2   19 1   
     6    3    4 1   
     7    3   20 1   
     8    3   21 1   
     9    4    5 1   
    10    4   22 1   
    11    5    6 1   
    12    5    7 1   
    13    7    8 1   
    14    7   11 1   
    15    8   15 1   
    16    9   12 1   
    17   10   11 1   
    18   12   23 1   
    19   13   14 1   
    20   13   24 1   
    21   14   25 1   
    22   15   26 1   
    23   16   27 1   
    24   16   28 1   
    25   16   29 1   
@<TRIPOS>SUBSTRUCTURE
     1 1F8         1 TEMP              0 ****  ****    0 ROOT
