@<TRIPOS>MOLECULE
1F8
   29    30     1     0     0
SMALL
bcc


@<TRIPOS>ATOM
      1 SD         -5.2360   -1.0500    0.3910 sh        1 1F8     -0.368900
      2 C15        -3.6220   -0.4310    0.7720 c3        1 1F8     -0.028300
      3 C16        -2.7650   -0.6760   -0.4680 c3        1 1F8      0.098000
      4 N17        -1.3530   -0.5170   -0.2620 n         1 1F8     -0.559900
      5 C18        -0.7060    0.6840   -0.5060 c         1 1F8      0.700300
      6 O19        -1.3120    1.6460   -1.0260 o         1 1F8     -0.614100
      7 C20         0.7160    0.7650   -0.1450 cc        1 1F8     -0.216400
      8 C21         1.6790   -0.3200   -0.0290 ca        1 1F8     -0.078800
      9 C22         2.9050    0.3040    0.3630 ca        1 1F8      0.053100
     10 O23         2.7330    1.6880    0.4780 os        1 1F8     -0.198200
     11 C24         1.3910    1.9380    0.1500 cd        1 1F8      0.133900
     12 C25         4.0870   -0.3920    0.5830 ca        1 1F8     -0.113000
     13 C26         4.0360   -1.7720    0.3900 ca        1 1F8     -0.116000
     14 C27         2.8530   -2.4080   -0.0120 ca        1 1F8     -0.139000
     15 C28         1.6730   -1.6980   -0.2300 ca        1 1F8     -0.097000
     16 C29         0.9850    3.3460    0.1890 c3        1 1F8     -0.063900
     17 HSD        -5.9220   -0.4340    1.3360 hs        1 1F8      0.204800
     18 H15        -3.6550    0.6590    1.0110 h1        1 1F8      0.066700
     19 H15A       -3.2130   -0.9670    1.6620 h1        1 1F8      0.066700
     20 H16        -2.9410   -1.7320   -0.8250 h1        1 1F8      0.078200
     21 H16A       -3.0920    0.0360   -1.2810 h1        1 1F8      0.078200
     22 HN17       -0.9030   -1.1800    0.3240 hn        1 1F8      0.309500
     23 H25         5.0080    0.1220    0.8860 ha        1 1F8      0.153000
     24 H26         4.9440   -2.3720    0.5520 ha        1 1F8      0.139000
     25 H27         2.8600   -3.4980   -0.1660 ha        1 1F8      0.136000
     26 H28         0.7720   -2.2250   -0.5720 ha        1 1F8      0.142000
     27 H29         1.0120    3.7270    1.2410 hc        1 1F8      0.078700
     28 H29A        1.6850    3.9660   -0.4280 hc        1 1F8      0.078700
     29 H29B       -0.0540    3.4460   -0.2200 hc        1 1F8      0.078700
@<TRIPOS>BOND
     1    1    2 1   
     2    1   17 1   
     3    2    3 1   
     4    2   18 1   
     5    2   19 1   
     6    3    4 1   
     7    3   20 1   
     8    3   21 1   
     9    4    5 1   
    10    4   22 1   
    11    5    6 2   
    12    5    7 1   
    13    7    8 1   
    14    7   11 2   
    15    8    9 ar  
    16    8   15 ar  
    17    9   10 1   
    18    9   12 ar  
    19   10   11 1   
    20   11   16 1   
    21   12   13 ar  
    22   12   23 1   
    23   13   14 ar  
    24   13   24 1   
    25   14   15 ar  
    26   14   25 1   
    27   15   26 1   
    28   16   27 1   
    29   16   28 1   
    30   16   29 1   
@<TRIPOS>SUBSTRUCTURE
     1 1F8         1 TEMP              0 ****  ****    0 ROOT
