@<TRIPOS>MOLECULE
1F8
   30    31     1     0     0
SMALL
bcc


@<TRIPOS>ATOM
      1 SD         -0.1010    0.7170    0.5950 sh        1 1F8     -0.252900
      2 C15         1.6070    1.0920    0.4690 c3        1 1F8     -0.063300
      3 C16         2.4050   -0.0080    1.1460 c3        1 1F8      0.103800
      4 N17         3.8500    0.3360    1.3100 n4        1 1F8     -0.672800
      5 C18         4.6720   -0.7870    1.9230 c         1 1F8      0.603300
      6 O19         4.1150   -1.8790    1.9900 o         1 1F8     -0.461100
      7 C20         5.9830   -0.4150    2.3500 cc        1 1F8     -0.315400
      8 C21         6.7030    0.8430    2.1940 ca        1 1F8     -0.087800
      9 C22         7.9590    0.6360    2.8450 ca        1 1F8      0.053100
     10 O23         8.0270   -0.6690    3.3700 os        1 1F8     -0.153200
     11 C24         6.8340   -1.2870    3.0550 cd        1 1F8      0.249900
     12 C25         8.9620    1.5900    2.9370 ca        1 1F8     -0.074000
     13 C26         8.6930    2.8210    2.3370 ca        1 1F8     -0.097000
     14 C27         7.4770    3.0570    1.6820 ca        1 1F8     -0.099000
     15 C28         6.4800    2.0830    1.6000 ca        1 1F8     -0.131000
     16 C29         6.6850   -2.6760    3.4950 c3        1 1F8     -0.094900
     17 HSD        -0.2490   -0.0470   -0.4760 hs        1 1F8      0.210800
     18 H15         1.7330    2.0720    1.0010 h1        1 1F8      0.096200
     19 H15A        1.9340    1.2330   -0.5900 h1        1 1F8      0.096200
     20 H16         2.3470   -0.9650    0.5480 hx        1 1F8      0.123200
     21 H16A        1.9860   -0.2190    2.1740 hx        1 1F8      0.123200
     22 HN17        4.2570    0.5640    0.3960 hn        1 1F8      0.456300
     23 H25         9.9120    1.3820    3.4500 ha        1 1F8      0.180000
     24 H26         9.4520    3.6200    2.3780 ha        1 1F8      0.168000
     25 H27         7.3050    4.0400    1.2140 ha        1 1F8      0.158000
     26 H28         5.5590    2.3270    1.0560 ha        1 1F8      0.111000
     27 H29         7.2020   -3.3560    2.7640 hc        1 1F8      0.105033
     28 H29A        5.6010   -2.9560    3.5390 hc        1 1F8      0.105033
     29 H29B        7.1560   -2.8270    4.5010 hc        1 1F8      0.105033
     30 H172        3.9410    1.1640    1.9110 hn        1 1F8      0.456300
@<TRIPOS>BOND
     1    1    2 1   
     2    1   17 1   
     3    2    3 1   
     4    2   18 1   
     5    2   19 1   
     6    3    4 1   
     7    3   20 1   
     8    3   21 1   
     9    4    5 1   
    10    4   22 1   
    11    4   30 1   
    12    5    6 2   
    13    5    7 1   
    14    7    8 1   
    15    7   11 2   
    16    8    9 ar  
    17    8   15 ar  
    18    9   10 1   
    19    9   12 ar  
    20   10   11 1   
    21   11   16 1   
    22   12   13 ar  
    23   12   23 1   
    24   13   14 ar  
    25   13   24 1   
    26   14   15 ar  
    27   14   25 1   
    28   15   26 1   
    29   16   27 1   
    30   16   28 1   
    31   16   29 1   
@<TRIPOS>SUBSTRUCTURE
     1 1F8         1 TEMP              0 ****  ****    0 ROOT
