@<TRIPOS>MOLECULE
1FA
   68    64     1     0     0
SMALL
bcc


@<TRIPOS>ATOM
      1 F25        -5.7460    7.0090    2.8670 f         1 1FA     -0.169000
      2 C24        -5.8470    5.9770    3.7360 c3        1 1FA      0.466000
      3 F27        -7.0270    5.3000    3.5110 f         1 1FA     -0.169000
      4 F26        -5.8340    6.4540    5.0070 f         1 1FA     -0.169000
      5 C21        -4.6840    5.0360    3.5410 c2        1 1FA     -0.163000
      6 C22        -3.8350    5.2120    2.4590 c2        1 1FA     -0.083000
      7 C23        -2.9160    4.2290    2.1330 c1        1 1FA     -0.113000
      8 C20        -4.6100    3.8550    4.3080 c1        1 1FA     -0.088000
      9 C19        -3.6920    2.8740    3.9820 c1        1 1FA     -0.137000
     10 C18        -2.8430    3.0490    2.9010 c1        1 1FA      0.083500
     11 C17        -2.0160    1.8540    2.3820 c1        1 1FA     -0.106000
     12 C16        -1.3820    0.9410    1.9850 c1        1 1FA     -0.098000
     13 C3         -0.5670   -0.2230    1.4770 c1        1 1FA      0.088000
     14 C4          0.8170   -0.1210    1.4180 c2        1 1FA     -0.159000
     15 N2         -1.2040   -1.3120    0.9130 n1        1 1FA     -0.127000
     16 C1         -0.4620   -2.3030    0.2870 c1        1 1FA      0.083500
     17 C7         -1.1830   -3.4330   -0.4800 c1        1 1FA     -0.106000
     18 C8         -1.7310   -4.2900   -1.0600 c1        1 1FA     -0.098000
     19 C9         -2.4310   -5.3810   -1.7970 c2        1 1FA      0.045000
     20 N10        -3.8630   -5.3210   -1.5050 n3        1 1FA     -0.245000
     21 C11        -4.3880   -6.6580   -1.3670 c3        1 1FA     -0.108000
     22 C12        -5.8760   -6.6730   -1.2020 c3        1 1FA     -0.023000
     23 O13        -6.5440   -5.9210   -2.2150 os        1 1FA     -0.277000
     24 C14        -6.0210   -4.5880   -2.3500 c3        1 1FA     -0.023000
     25 C15        -4.5270   -4.5730   -2.5160 c3        1 1FA     -0.108000
     26 C6          0.9250   -2.2010    0.2280 c1        1 1FA     -0.137000
     27 C5          1.5620   -1.1130    0.7910 c1        1 1FA     -0.212000
     28 S28         3.3730   -1.0920    0.9110 ss        1 1FA      0.388000
     29 C29         3.9950    0.2340   -0.0060 c2        1 1FA     -0.379000
     30 C30         3.2720    1.4370   -0.0780 c2        1 1FA     -0.042000
     31 C31         3.8240    2.5500   -0.7260 c1        1 1FA     -0.213000
     32 C34         5.2530    0.1450   -0.5760 c1        1 1FA      0.005000
     33 C35         6.2870   -1.0220   -0.6520 c2        1 1FA     -0.129000
     34 C36         7.4950   -0.5190   -1.3250 c3        1 1FA     -0.158000
     35 C37         7.2430    0.8800   -1.7140 c3        1 1FA     -0.102000
     36 C33         5.8080    1.2640   -1.2270 c2        1 1FA     -0.161000
     37 C32         5.0820    2.4670   -1.2970 c1        1 1FA      0.176000
     38 O38         5.6210    3.5810   -1.9790 os        1 1FA     -0.194000
     39 C39         6.2790    4.5290   -1.1190 c3        1 1FA     -0.107000
     40 C40         6.1900    5.9350   -1.7410 c2        1 1FA      0.316000
     41 O42         7.2310    6.5860   -1.9590 o         1 1FA     -0.554000
     42 O41         5.0500    6.4710   -1.9440 o         1 1FA     -0.554000
     43 H22        -3.9400    6.0420    1.8510 ha        1 1FA      0.154000
     44 H23        -2.2610    4.4000    1.4710 ha        1 1FA      0.158000
     45 H20        -5.2900    3.6860    5.0340 ha        1 1FA      0.148000
     46 H19        -3.6810    2.0660    4.4610 ha        1 1FA      0.152500
     47 H4          1.2770    0.6530    1.8370 ha        1 1FA      0.170000
     48 H91        -2.2810   -5.2660   -2.8090 h4        1 1FA      0.090500
     49 H92        -2.0810   -6.2340   -1.5150 h4        1 1FA      0.090500
     50 H111       -4.1570   -7.1700   -2.1580 h1        1 1FA      0.085000
     51 H112       -3.9590   -7.1010   -0.5470 h1        1 1FA      0.085000
     52 H121       -6.1910   -7.6070   -1.2370 h1        1 1FA      0.091750
     53 H122       -6.1000   -6.2970   -0.3310 h1        1 1FA      0.091750
     54 H141       -6.4350   -4.1590   -3.1410 h1        1 1FA      0.091750
     55 H142       -6.2620   -4.0620   -1.5340 h1        1 1FA      0.091750
     56 H151       -4.2060   -3.6240   -2.4830 h1        1 1FA      0.085000
     57 H152       -4.3040   -4.9470   -3.3770 h1        1 1FA      0.085000
     58 H6          1.4350   -2.8850   -0.2040 ha        1 1FA      0.152500
     59 H30         2.4110    1.5000    0.3270 ha        1 1FA      0.136000
     60 H31         3.3290    3.3760   -0.7700 ha        1 1FA      0.217000
     61 H351        6.5240   -1.3430    0.3030 ha        1 1FA      0.092000
     62 H352        5.9150   -1.7500   -1.1540 ha        1 1FA      0.092000
     63 H361        7.6560   -1.0440   -2.1190 hc        1 1FA      0.075000
     64 H362        8.2730   -0.5510   -0.6820 hc        1 1FA      0.075000
     65 H371        7.8750    1.4400   -1.2870 hc        1 1FA      0.094500
     66 H372        7.2850    0.9570   -2.7330 hc        1 1FA      0.094500
     67 H391        7.2670    4.2650   -1.0080 h1        1 1FA      0.081000
     68 H392        5.8200    4.5330   -0.1980 h1        1 1FA      0.081000
@<TRIPOS>BOND
     1    1    2 1   
     2    2    3 1   
     3    2    4 1   
     4    2    5 1   
     5    5    6 1   
     6    5    8 1   
     7    6    7 1   
     8    6   43 1   
     9    7   44 1   
    10    8   45 1   
    11    9   10 1   
    12    9   46 1   
    13   10   11 1   
    14   11   12 1   
    15   13   14 1   
    16   13   15 1   
    17   14   27 1   
    18   14   47 1   
    19   16   17 1   
    20   16   26 1   
    21   17   18 1   
    22   19   20 1   
    23   19   48 1   
    24   19   49 1   
    25   20   21 1   
    26   20   25 1   
    27   21   22 1   
    28   21   50 1   
    29   21   51 1   
    30   22   23 1   
    31   22   52 1   
    32   22   53 1   
    33   23   24 1   
    34   24   25 1   
    35   24   54 1   
    36   24   55 1   
    37   25   56 1   
    38   25   57 1   
    39   26   58 1   
    40   27   28 1   
    41   28   29 1   
    42   29   30 1   
    43   29   32 1   
    44   30   31 1   
    45   30   59 1   
    46   31   60 1   
    47   32   36 1   
    48   33   34 1   
    49   33   61 1   
    50   33   62 1   
    51   34   35 1   
    52   34   63 1   
    53   34   64 1   
    54   35   36 1   
    55   35   65 1   
    56   35   66 1   
    57   36   37 1   
    58   37   38 1   
    59   38   39 1   
    60   39   40 1   
    61   39   67 1   
    62   39   68 1   
    63   40   41 1   
    64   40   42 1   
@<TRIPOS>SUBSTRUCTURE
     1 1FA         1 TEMP              0 ****  ****    0 ROOT
