@<TRIPOS>MOLECULE
1FA
   68    72     1     0     0
SMALL
bcc


@<TRIPOS>ATOM
      1 F25        -0.6700    1.2850    1.1690 f         1 1FA     -0.239967
      2 C24         0.5200    1.0450    0.5230 c3        1 1FA      0.687200
      3 F27         1.3630    0.6400    1.5320 f         1 1FA     -0.239967
      4 F26         0.2840   -0.1030   -0.1930 f         1 1FA     -0.239967
      5 C21         1.0340    2.2190   -0.2980 ca        1 1FA     -0.168300
      6 C22         1.8240    3.1940    0.3160 ca        1 1FA     -0.086000
      7 C23         2.2840    4.2790   -0.4230 ca        1 1FA     -0.112000
      8 C20         0.7030    2.3220   -1.6510 ca        1 1FA     -0.086000
      9 C19         1.1620    3.4070   -2.3950 ca        1 1FA     -0.112000
     10 C18         1.9550    4.3950   -1.7860 ca        1 1FA      0.062000
     11 C17         2.4200    5.4930   -2.5300 cg        1 1FA     -0.108000
     12 C16         2.8120    6.4270   -3.1710 ch        1 1FA     -0.170000
     13 C3          3.2650    7.5240   -3.9480 ca        1 1FA      0.529300
     14 C4          2.8530    7.5930   -5.2980 ca        1 1FA     -0.222300
     15 N2          4.0680    8.4500   -3.3610 nb        1 1FA     -0.650000
     16 C1          4.4800    9.4840   -4.1420 ca        1 1FA      0.529300
     17 C7          5.3190   10.4740   -3.5660 cg        1 1FA     -0.196000
     18 C8          6.0170   11.3170   -3.0830 c1        1 1FA     -0.118100
     19 C9          6.8270   12.3730   -2.5270 c3        1 1FA      0.254900
     20 N10         8.1110   11.9270   -1.9900 n3        1 1FA     -0.719600
     21 C11         7.9780   10.8550   -1.0110 c3        1 1FA      0.128800
     22 C12         9.3250   10.4540   -0.4020 c3        1 1FA      0.127400
     23 O13        10.0210   11.5790    0.1260 os        1 1FA     -0.420600
     24 C14        10.2110   12.5980   -0.8480 c3        1 1FA      0.127400
     25 C15         8.8820   13.0480   -1.4670 c3        1 1FA      0.128800
     26 C6          4.1170    9.6260   -5.4990 ca        1 1FA     -0.223300
     27 C5          3.2850    8.6630   -6.0900 ca        1 1FA      0.014900
     28 S28         2.8930    8.8980   -7.7130 ss        1 1FA     -0.078800
     29 C29         1.8930    7.6060   -8.1580 ca        1 1FA     -0.155100
     30 C30         2.4640    6.4680   -8.7580 ca        1 1FA     -0.035000
     31 C31         1.6890    5.4220   -9.2320 ca        1 1FA     -0.239000
     32 C34         0.5020    7.6540   -8.0540 ca        1 1FA      0.008700
     33 C35        -0.3490    8.7360   -7.4670 c3        1 1FA     -0.043100
     34 C36        -1.7980    8.2500   -7.6240 c3        1 1FA     -0.081400
     35 C37        -1.7500    6.8780   -8.3090 c3        1 1FA     -0.021100
     36 C33        -0.3010    6.6050   -8.5270 ca        1 1FA     -0.158300
     37 C32         0.2800    5.4690   -9.1190 ca        1 1FA      0.218100
     38 O38        -0.5700    4.4960   -9.5360 os        1 1FA     -0.270900
     39 C39         0.0240    3.3150  -10.0970 c3        1 1FA     -0.019600
     40 C40        -1.1460    2.3230  -10.3890 c         1 1FA      0.928600
     41 O42        -1.6340    1.7060   -9.4090 o         1 1FA     -0.812300
     42 O41        -1.4630    2.1800  -11.5980 o         1 1FA     -0.812300
     43 H22         2.0830    3.0980    1.3820 ha        1 1FA      0.153500
     44 H23         2.9060    5.0490    0.0560 ha        1 1FA      0.156500
     45 H20         0.0850    1.5460   -2.1290 ha        1 1FA      0.153500
     46 H19         0.9020    3.4910   -3.4620 ha        1 1FA      0.156500
     47 H4          2.2000    6.8120   -5.7190 ha        1 1FA      0.171000
     48 H91         7.0570   13.1190   -3.3470 h1        1 1FA      0.050700
     49 H92         6.2080   12.9080   -1.7400 h1        1 1FA      0.050700
     50 H111        7.5390    9.9630   -1.5390 h1        1 1FA      0.045450
     51 H112        7.2790   11.1430   -0.1730 h1        1 1FA      0.045450
     52 H121        9.9700    9.9400   -1.1620 h1        1 1FA      0.053200
     53 H122        9.1640    9.7860    0.4840 h1        1 1FA      0.053200
     54 H141       10.6780   13.4450   -0.2810 h1        1 1FA      0.053200
     55 H142       10.9120   12.2310   -1.6430 h1        1 1FA      0.053200
     56 H151        8.3040   13.6270   -0.6880 h1        1 1FA      0.045450
     57 H152        9.1030   13.7450   -2.3220 h1        1 1FA      0.045450
     58 H6          4.4830   10.4830   -6.0820 ha        1 1FA      0.154000
     59 H30         3.5600    6.4130   -8.8530 ha        1 1FA      0.130000
     60 H31         2.1690    4.5510   -9.7000 ha        1 1FA      0.150000
     61 H351       -0.0940    8.8990   -6.3900 hc        1 1FA      0.054700
     62 H352       -0.1860    9.7020   -8.0080 hc        1 1FA      0.054700
     63 H361       -2.3850    8.9740   -8.2400 hc        1 1FA      0.038200
     64 H362       -2.2920    8.1720   -6.6250 hc        1 1FA      0.038200
     65 H371       -2.2090    6.0810   -7.6700 hc        1 1FA      0.066200
     66 H372       -2.3010    6.8840   -9.2830 hc        1 1FA      0.066200
     67 H391        0.7300    2.8630   -9.3570 h1        1 1FA      0.026200
     68 H392        0.5570    3.5880  -11.0410 h1        1 1FA      0.026200
@<TRIPOS>BOND
     1    1    2 1   
     2    2    3 1   
     3    2    4 1   
     4    2    5 1   
     5    5    6 ar  
     6    5    8 ar  
     7    6    7 ar  
     8    6   43 1   
     9    7   10 ar  
    10    7   44 1   
    11    8    9 ar  
    12    8   45 1   
    13    9   10 ar  
    14    9   46 1   
    15   10   11 1   
    16   11   12 3   
    17   12   13 1   
    18   13   14 ar  
    19   13   15 ar  
    20   14   27 ar  
    21   14   47 1   
    22   15   16 ar  
    23   16   17 1   
    24   16   26 ar  
    25   17   18 3   
    26   18   19 1   
    27   19   20 1   
    28   19   48 1   
    29   19   49 1   
    30   20   21 1   
    31   20   25 1   
    32   21   22 1   
    33   21   50 1   
    34   21   51 1   
    35   22   23 1   
    36   22   52 1   
    37   22   53 1   
    38   23   24 1   
    39   24   25 1   
    40   24   54 1   
    41   24   55 1   
    42   25   56 1   
    43   25   57 1   
    44   26   27 ar  
    45   26   58 1   
    46   27   28 1   
    47   28   29 1   
    48   29   30 ar  
    49   29   32 ar  
    50   30   31 ar  
    51   30   59 1   
    52   31   37 ar  
    53   31   60 1   
    54   32   33 1   
    55   32   36 ar  
    56   33   34 1   
    57   33   61 1   
    58   33   62 1   
    59   34   35 1   
    60   34   63 1   
    61   34   64 1   
    62   35   36 1   
    63   35   65 1   
    64   35   66 1   
    65   36   37 ar  
    66   37   38 1   
    67   38   39 1   
    68   39   40 1   
    69   39   67 1   
    70   39   68 1   
    71   40   41 1   
    72   40   42 1   
@<TRIPOS>SUBSTRUCTURE
     1 1FA         1 TEMP              0 ****  ****    0 ROOT
