@<TRIPOS>MOLECULE
1FA
   68    72     1     0     0
SMALL
bcc


@<TRIPOS>ATOM
      1 F25       -10.2350    2.5930   -0.3800 f         1 1FA     -0.239967
      2 C24        -9.5090    2.4390   -1.5380 c3        1 1FA      0.688200
      3 F27       -10.2530    1.5500   -2.2770 f         1 1FA     -0.239967
      4 F26        -9.6750    3.6360   -2.1920 f         1 1FA     -0.239967
      5 C21        -8.0600    2.0290   -1.3180 ca        1 1FA     -0.171300
      6 C22        -7.7260    0.6740   -1.2560 ca        1 1FA     -0.085000
      7 C23        -6.4040    0.2970   -1.0390 ca        1 1FA     -0.116500
      8 C20        -7.0770    3.0090   -1.1650 ca        1 1FA     -0.085000
      9 C19        -5.7540    2.6360   -0.9480 ca        1 1FA     -0.116500
     10 C18        -5.4060    1.2750   -0.8820 ca        1 1FA      0.074000
     11 C17        -4.0700    0.8990   -0.6620 cg        1 1FA     -0.133000
     12 C16        -2.9310    0.5760   -0.4750 ch        1 1FA     -0.149000
     13 C3         -1.5850    0.1840   -0.2540 ca        1 1FA      0.515300
     14 C4         -1.2890   -1.1940   -0.2270 ca        1 1FA     -0.223300
     15 N2         -0.6500    1.1580   -0.0800 nb        1 1FA     -0.649000
     16 C1          0.6270    0.7470    0.1270 ca        1 1FA      0.543300
     17 C7          1.6390    1.7240    0.3140 cg        1 1FA     -0.213000
     18 C8          2.5130    2.5240    0.4820 c1        1 1FA     -0.094100
     19 C9          3.6120    3.4300    0.7030 c3        1 1FA      0.247900
     20 N10         3.3760    4.7930    0.2290 n3        1 1FA     -0.719600
     21 C11         2.1610    5.3840    0.7750 c3        1 1FA      0.128300
     22 C12         1.9690    6.8350    0.3250 c3        1 1FA      0.127900
     23 O13         3.1190    7.6300    0.5960 os        1 1FA     -0.421600
     24 C14         4.2970    7.0870    0.0110 c3        1 1FA      0.127900
     25 C15         4.5410    5.6400    0.4550 c3        1 1FA      0.128300
     26 C6          1.0090   -0.6150    0.1680 ca        1 1FA     -0.224300
     27 C5          0.0370   -1.6050   -0.0100 ca        1 1FA      0.015900
     28 S28         0.3160   -3.2670    0.0120 ss        1 1FA     -0.079800
     29 C29         1.9670   -3.4780    0.3220 ca        1 1FA     -0.154100
     30 C30         2.3900   -3.7120    1.6430 ca        1 1FA     -0.035000
     31 C31         3.7110   -3.9960    1.9520 ca        1 1FA     -0.239000
     32 C34         2.9300   -3.5380   -0.6870 ca        1 1FA      0.008700
     33 C35         2.7490   -3.3290   -2.1570 c3        1 1FA     -0.043100
     34 C36         4.1420   -3.5190   -2.7740 c3        1 1FA     -0.080400
     35 C37         5.1120   -3.8350   -1.6270 c3        1 1FA     -0.021100
     36 C33         4.2730   -3.8230   -0.3960 ca        1 1FA     -0.158300
     37 C32         4.6860   -4.0520    0.9280 ca        1 1FA      0.219100
     38 O38         6.0050   -4.3100    1.1200 os        1 1FA     -0.270900
     39 C39         6.4350   -4.5050    2.4760 c3        1 1FA     -0.018600
     40 C40         7.9840   -4.6970    2.4300 c         1 1FA      0.927600
     41 O42         8.4030   -5.8760    2.5590 o         1 1FA     -0.812300
     42 O41         8.6870   -3.6600    2.3300 o         1 1FA     -0.812300
     43 H22        -8.5080   -0.0910   -1.3830 ha        1 1FA      0.150000
     44 H23        -6.1360   -0.7700   -0.9900 ha        1 1FA      0.152500
     45 H20        -7.3510    4.0750   -1.2220 ha        1 1FA      0.150000
     46 H19        -4.9760    3.4050   -0.8270 ha        1 1FA      0.152500
     47 H4         -2.0860   -1.9360   -0.3720 ha        1 1FA      0.152000
     48 H91         3.8610    3.4100    1.8110 h1        1 1FA      0.059700
     49 H92         4.5160    3.0390    0.1440 h1        1 1FA      0.059700
     50 H111        1.2890    4.7720    0.4100 h1        1 1FA      0.046700
     51 H112        2.1580    5.3570    1.9040 h1        1 1FA      0.046700
     52 H121        1.7320    6.8840   -0.7700 h1        1 1FA      0.051950
     53 H122        1.1500    7.3190    0.9200 h1        1 1FA      0.051950
     54 H141        4.2240    7.1510   -1.1060 h1        1 1FA      0.051950
     55 H142        5.1240    7.7470    0.3830 h1        1 1FA      0.051950
     56 H151        4.8490    5.6460    1.5420 h1        1 1FA      0.046700
     57 H152        5.3950    5.2200   -0.1450 h1        1 1FA      0.046700
     58 H6          2.0620   -0.8880    0.3390 ha        1 1FA      0.172000
     59 H30         1.6450   -3.6700    2.4540 ha        1 1FA      0.130000
     60 H31         4.0050   -4.1790    2.9950 ha        1 1FA      0.150000
     61 H351        2.0190   -4.0680   -2.5730 hc        1 1FA      0.054700
     62 H352        2.3530   -2.3030   -2.3640 hc        1 1FA      0.054700
     63 H361        4.1280   -4.3540   -3.5160 hc        1 1FA      0.038200
     64 H362        4.4590   -2.5910   -3.3100 hc        1 1FA      0.038200
     65 H371        5.5980   -4.8340   -1.7630 hc        1 1FA      0.066200
     66 H372        5.9290   -3.0730   -1.5550 hc        1 1FA      0.066200
     67 H391        6.1800   -3.6010    3.0830 h1        1 1FA      0.026700
     68 H392        5.9380   -5.4170    2.8900 h1        1 1FA      0.026700
@<TRIPOS>BOND
     1    1    2 1   
     2    2    3 1   
     3    2    4 1   
     4    2    5 1   
     5    5    6 ar  
     6    5    8 ar  
     7    6    7 ar  
     8    6   43 1   
     9    7   10 ar  
    10    7   44 1   
    11    8    9 ar  
    12    8   45 1   
    13    9   10 ar  
    14    9   46 1   
    15   10   11 1   
    16   11   12 3   
    17   12   13 1   
    18   13   14 ar  
    19   13   15 ar  
    20   14   27 ar  
    21   14   47 1   
    22   15   16 ar  
    23   16   17 1   
    24   16   26 ar  
    25   17   18 3   
    26   18   19 1   
    27   19   20 1   
    28   19   48 1   
    29   19   49 1   
    30   20   21 1   
    31   20   25 1   
    32   21   22 1   
    33   21   50 1   
    34   21   51 1   
    35   22   23 1   
    36   22   52 1   
    37   22   53 1   
    38   23   24 1   
    39   24   25 1   
    40   24   54 1   
    41   24   55 1   
    42   25   56 1   
    43   25   57 1   
    44   26   27 ar  
    45   26   58 1   
    46   27   28 1   
    47   28   29 1   
    48   29   30 ar  
    49   29   32 ar  
    50   30   31 ar  
    51   30   59 1   
    52   31   37 ar  
    53   31   60 1   
    54   32   33 1   
    55   32   36 ar  
    56   33   34 1   
    57   33   61 1   
    58   33   62 1   
    59   34   35 1   
    60   34   63 1   
    61   34   64 1   
    62   35   36 1   
    63   35   65 1   
    64   35   66 1   
    65   36   37 ar  
    66   37   38 1   
    67   38   39 1   
    68   39   40 1   
    69   39   67 1   
    70   39   68 1   
    71   40   41 1   
    72   40   42 1   
@<TRIPOS>SUBSTRUCTURE
     1 1FA         1 TEMP              0 ****  ****    0 ROOT
