@<TRIPOS>MOLECULE
1FA
   68    72     1     0     0
SMALL
bcc


@<TRIPOS>ATOM
      1 F25        -0.2680   -0.1950   -1.3330 f         1 1FA     -0.239967
      2 C24         0.7930    0.1190   -0.5160 c3        1 1FA      0.687200
      3 F27         0.2240    0.2350    0.7300 f         1 1FA     -0.239967
      4 F26         1.5130   -1.0490   -0.4450 f         1 1FA     -0.239967
      5 C21         1.5910    1.3350   -0.9650 ca        1 1FA     -0.170300
      6 C22         1.2030    2.6090   -0.5420 ca        1 1FA     -0.086000
      7 C23         1.9190    3.7250   -0.9620 ca        1 1FA     -0.114000
      8 C20         2.6930    1.1730   -1.8070 ca        1 1FA     -0.086000
      9 C19         3.4120    2.2880   -2.2300 ca        1 1FA     -0.114000
     10 C18         3.0300    3.5740   -1.8110 ca        1 1FA      0.069000
     11 C17         3.7520    4.7030   -2.2350 cg        1 1FA     -0.121000
     12 C16         4.3740    5.6600   -2.6010 ch        1 1FA     -0.158000
     13 C3          5.1220    6.7810   -3.0430 ca        1 1FA      0.523300
     14 C4          6.2400    6.5460   -3.8750 ca        1 1FA     -0.223300
     15 N2          4.7280    8.0210   -2.6490 nb        1 1FA     -0.652000
     16 C1          5.4720    9.0680   -3.0950 ca        1 1FA      0.526300
     17 C7          5.0920   10.3800   -2.7060 cg        1 1FA     -0.194000
     18 C8          4.7720   11.4840   -2.3760 c1        1 1FA     -0.119100
     19 C9          4.4010   12.8040   -1.9310 c3        1 1FA      0.242900
     20 N10         4.3550   13.8140   -2.9900 n3        1 1FA     -0.706600
     21 C11         3.4940   13.4640   -4.1110 c3        1 1FA      0.123800
     22 C12         2.0000   13.7290   -3.8900 c3        1 1FA      0.091900
     23 O13         1.7610   15.0570   -3.4310 os        1 1FA     -0.416600
     24 C14         2.5130   15.3800   -2.2670 c3        1 1FA      0.091900
     25 C15         4.0120   15.1330   -2.4740 c3        1 1FA      0.123800
     26 C6          6.6040    8.9200   -3.9250 ca        1 1FA     -0.221300
     27 C5          6.9990    7.6330   -4.3250 ca        1 1FA      0.014900
     28 S28         8.3530    7.5360   -5.3190 ss        1 1FA     -0.067800
     29 C29         8.6530    5.8870   -5.5770 ca        1 1FA     -0.126100
     30 C30         9.7340    5.2970   -4.8940 ca        1 1FA     -0.063000
     31 C31        10.1220    3.9880   -5.1360 ca        1 1FA     -0.199000
     32 C34         7.9750    5.1140   -6.5170 ca        1 1FA     -0.018300
     33 C35         6.8450    5.5090   -7.4140 c3        1 1FA     -0.042100
     34 C36         6.5730    4.2830   -8.2990 c3        1 1FA     -0.078400
     35 C37         7.5330    3.1720   -7.8530 c3        1 1FA     -0.043100
     36 C33         8.3460    3.7780   -6.7630 ca        1 1FA     -0.094300
     37 C32         9.4150    3.2000   -6.0710 ca        1 1FA      0.223100
     38 O38         9.6570    1.8600   -6.2280 os        1 1FA     -0.342900
     39 C39        10.9960    1.5010   -6.6120 c3        1 1FA      0.006400
     40 C40        11.3160    1.7890   -8.0940 c         1 1FA      0.899600
     41 O42        12.4880    1.4960   -8.4600 o         1 1FA     -0.828800
     42 O41        10.4230    2.2720   -8.8400 o         1 1FA     -0.828800
     43 H22         0.3360    2.7240    0.1270 ha        1 1FA      0.151000
     44 H23         1.6180    4.7310   -0.6310 ha        1 1FA      0.155000
     45 H20         2.9940    0.1640   -2.1310 ha        1 1FA      0.151000
     46 H19         4.2820    2.1630   -2.8930 ha        1 1FA      0.155000
     47 H4          6.5090    5.5190   -4.1680 ha        1 1FA      0.171000
     48 H91         3.4090   12.7210   -1.3860 h1        1 1FA      0.050700
     49 H92         5.1740   13.1530   -1.1800 h1        1 1FA      0.050700
     50 H111        3.8440   14.0860   -4.9830 h1        1 1FA      0.066200
     51 H112        3.6380   12.3800   -4.3710 h1        1 1FA      0.066200
     52 H121        1.5690   13.0000   -3.1540 h1        1 1FA      0.050700
     53 H122        1.4420   13.6680   -4.8600 h1        1 1FA      0.050700
     54 H141        2.3130   16.4710   -2.1020 h1        1 1FA      0.050700
     55 H142        2.1260   14.7860   -1.3970 h1        1 1FA      0.050700
     56 H151        4.3960   15.8740   -3.2310 h1        1 1FA      0.066200
     57 H152        4.5480   15.3120   -1.5030 h1        1 1FA      0.066200
     58 H6          7.1670    9.8060   -4.2530 ha        1 1FA      0.157000
     59 H30        10.2880    5.8990   -4.1560 ha        1 1FA      0.128000
     60 H31        10.9840    3.5570   -4.6080 ha        1 1FA      0.140000
     61 H351        5.9410    5.7820   -6.8120 hc        1 1FA      0.050200
     62 H352        7.1270    6.3980   -8.0330 hc        1 1FA      0.050200
     63 H361        6.7470    4.5350   -9.3730 hc        1 1FA      0.036200
     64 H362        5.5110    3.9540   -8.1920 hc        1 1FA      0.036200
     65 H371        8.2240    2.8380   -8.6780 hc        1 1FA      0.090200
     66 H372        6.9770    2.2720   -7.4890 hc        1 1FA      0.090200
     67 H391       11.0070    0.3940   -6.4340 h1        1 1FA      0.037700
     68 H392       11.7380    2.0060   -5.9450 h1        1 1FA      0.037700
@<TRIPOS>BOND
     1    1    2 1   
     2    2    3 1   
     3    2    4 1   
     4    2    5 1   
     5    5    6 ar  
     6    5    8 ar  
     7    6    7 ar  
     8    6   43 1   
     9    7   10 ar  
    10    7   44 1   
    11    8    9 ar  
    12    8   45 1   
    13    9   10 ar  
    14    9   46 1   
    15   10   11 1   
    16   11   12 3   
    17   12   13 1   
    18   13   14 ar  
    19   13   15 ar  
    20   14   27 ar  
    21   14   47 1   
    22   15   16 ar  
    23   16   17 1   
    24   16   26 ar  
    25   17   18 3   
    26   18   19 1   
    27   19   20 1   
    28   19   48 1   
    29   19   49 1   
    30   20   21 1   
    31   20   25 1   
    32   21   22 1   
    33   21   50 1   
    34   21   51 1   
    35   22   23 1   
    36   22   52 1   
    37   22   53 1   
    38   23   24 1   
    39   24   25 1   
    40   24   54 1   
    41   24   55 1   
    42   25   56 1   
    43   25   57 1   
    44   26   27 ar  
    45   26   58 1   
    46   27   28 1   
    47   28   29 1   
    48   29   30 ar  
    49   29   32 ar  
    50   30   31 ar  
    51   30   59 1   
    52   31   37 ar  
    53   31   60 1   
    54   32   33 1   
    55   32   36 ar  
    56   33   34 1   
    57   33   61 1   
    58   33   62 1   
    59   34   35 1   
    60   34   63 1   
    61   34   64 1   
    62   35   36 1   
    63   35   65 1   
    64   35   66 1   
    65   36   37 ar  
    66   37   38 1   
    67   38   39 1   
    68   39   40 1   
    69   39   67 1   
    70   39   68 1   
    71   40   41 1   
    72   40   42 1   
@<TRIPOS>SUBSTRUCTURE
     1 1FA         1 TEMP              0 ****  ****    0 ROOT
