@<TRIPOS>MOLECULE
1FA
   68    72     1     0     0
SMALL
bcc


@<TRIPOS>ATOM
      1 F25         3.6780   -1.7240   -0.5640 f         1 1FA     -0.239967
      2 C24         4.5740   -0.8060   -0.0690 c3        1 1FA      0.688200
      3 F27         4.3650   -0.8420    1.2890 f         1 1FA     -0.239967
      4 F26         5.7950   -1.4150   -0.2340 f         1 1FA     -0.239967
      5 C21         4.4630    0.5770   -0.6940 ca        1 1FA     -0.171300
      6 C22         3.6020    1.5240   -0.1330 ca        1 1FA     -0.085000
      7 C23         3.4870    2.7840   -0.7130 ca        1 1FA     -0.116500
      8 C20         5.2100    0.8850   -1.8330 ca        1 1FA     -0.085000
      9 C19         5.0980    2.1440   -2.4150 ca        1 1FA     -0.116500
     10 C18         4.2340    3.1050   -1.8600 ca        1 1FA      0.074000
     11 C17         4.1200    4.3750   -2.4490 cg        1 1FA     -0.133000
     12 C16         4.0220    5.4600   -2.9500 ch        1 1FA     -0.149000
     13 C3          3.9000    6.7470   -3.5360 ca        1 1FA      0.515300
     14 C4          3.0270    7.6750   -2.9300 ca        1 1FA     -0.223300
     15 N2          4.6310    7.0190   -4.6520 nb        1 1FA     -0.649000
     16 C1          4.4910    8.2610   -5.1840 ca        1 1FA      0.543300
     17 C7          5.2310    8.5940   -6.3470 cg        1 1FA     -0.213000
     18 C8          5.8380    8.9020   -7.3320 c1        1 1FA     -0.094100
     19 C9          6.5260    9.3370   -8.5220 c3        1 1FA      0.247900
     20 N10         7.7130    8.5510   -8.8530 n3        1 1FA     -0.719600
     21 C11         7.4390    7.1240   -8.9630 c3        1 1FA      0.128300
     22 C12         8.6780    6.3260   -9.3830 c3        1 1FA      0.127900
     23 O13         9.2680    6.8500  -10.5680 os        1 1FA     -0.421600
     24 C14         9.5930    8.2290  -10.4410 c3        1 1FA      0.127900
     25 C15         8.3740    9.0700  -10.0450 c3        1 1FA      0.128300
     26 C6          3.6380    9.2490   -4.6380 ca        1 1FA     -0.224300
     27 C5          2.8920    8.9540   -3.4930 ca        1 1FA      0.015900
     28 S28         1.8300   10.0080   -2.7170 ss        1 1FA     -0.079800
     29 C29         1.8330   11.4460   -3.6120 ca        1 1FA     -0.154100
     30 C30         0.8330   11.6510   -4.5810 ca        1 1FA     -0.035000
     31 C31         0.7170   12.8450   -5.2730 ca        1 1FA     -0.239000
     32 C34         2.7200   12.4940   -3.3650 ca        1 1FA      0.009700
     33 C35         3.8620   12.5360   -2.3990 c3        1 1FA     -0.043100
     34 C36         4.4810   13.9340   -2.5540 c3        1 1FA     -0.080400
     35 C37         3.6710   14.6770   -3.6250 c3        1 1FA     -0.021100
     36 C33         2.6210   13.7120   -4.0560 ca        1 1FA     -0.158300
     37 C32         1.6200   13.9050   -5.0240 ca        1 1FA      0.219100
     38 O38         1.6030   15.1090   -5.6520 os        1 1FA     -0.270900
     39 C39         0.6070   15.2940   -6.6690 c3        1 1FA     -0.018600
     40 C40         0.8550   16.7070   -7.2860 c         1 1FA      0.927600
     41 O42         0.0670   17.6190   -6.9230 o         1 1FA     -0.812300
     42 O41         1.7760   16.8090   -8.1350 o         1 1FA     -0.812300
     43 H22         3.0220    1.2720    0.7680 ha        1 1FA      0.150000
     44 H23         2.8100    3.5320   -0.2730 ha        1 1FA      0.152500
     45 H20         5.8900    0.1330   -2.2640 ha        1 1FA      0.150000
     46 H19         5.6850    2.3930   -3.3120 ha        1 1FA      0.152500
     47 H4          2.4620    7.3970   -2.0300 ha        1 1FA      0.152000
     48 H91         5.7760    9.3430   -9.3740 h1        1 1FA      0.059700
     49 H92         6.8720   10.4040   -8.3640 h1        1 1FA      0.059700
     50 H111        6.6130    6.9150   -9.7040 h1        1 1FA      0.046700
     51 H112        7.1000    6.7620   -7.9520 h1        1 1FA      0.046700
     52 H121        8.3870    5.2780   -9.6560 h1        1 1FA      0.051950
     53 H122        9.4400    6.3130   -8.5600 h1        1 1FA      0.051950
     54 H141       10.4190    8.3520   -9.6910 h1        1 1FA      0.051950
     55 H142        9.9500    8.5280  -11.4610 h1        1 1FA      0.051950
     56 H151        8.7190   10.1170   -9.8200 h1        1 1FA      0.046700
     57 H152        7.6700    9.1170  -10.9270 h1        1 1FA      0.046700
     58 H6          3.5670   10.2400   -5.1140 ha        1 1FA      0.172000
     59 H30         0.1210   10.8360   -4.7900 ha        1 1FA      0.130000
     60 H31        -0.0810   12.9730   -6.0190 ha        1 1FA      0.150000
     61 H351        3.5000   12.3680   -1.3530 hc        1 1FA      0.054700
     62 H352        4.6090   11.7370   -2.6360 hc        1 1FA      0.054700
     63 H361        5.5520   13.8520   -2.8600 hc        1 1FA      0.038200
     64 H362        4.4440   14.4840   -1.5830 hc        1 1FA      0.038200
     65 H371        3.2050   15.6090   -3.2150 hc        1 1FA      0.066200
     66 H372        4.3110   14.9770   -4.4930 hc        1 1FA      0.066200
     67 H391       -0.4080   15.2400   -6.2020 h1        1 1FA      0.026700
     68 H392        0.7260   14.5080   -7.4560 h1        1 1FA      0.026700
@<TRIPOS>BOND
     1    1    2 1   
     2    2    3 1   
     3    2    4 1   
     4    2    5 1   
     5    5    6 ar  
     6    5    8 ar  
     7    6    7 ar  
     8    6   43 1   
     9    7   10 ar  
    10    7   44 1   
    11    8    9 ar  
    12    8   45 1   
    13    9   10 ar  
    14    9   46 1   
    15   10   11 1   
    16   11   12 3   
    17   12   13 1   
    18   13   14 ar  
    19   13   15 ar  
    20   14   27 ar  
    21   14   47 1   
    22   15   16 ar  
    23   16   17 1   
    24   16   26 ar  
    25   17   18 3   
    26   18   19 1   
    27   19   20 1   
    28   19   48 1   
    29   19   49 1   
    30   20   21 1   
    31   20   25 1   
    32   21   22 1   
    33   21   50 1   
    34   21   51 1   
    35   22   23 1   
    36   22   52 1   
    37   22   53 1   
    38   23   24 1   
    39   24   25 1   
    40   24   54 1   
    41   24   55 1   
    42   25   56 1   
    43   25   57 1   
    44   26   27 ar  
    45   26   58 1   
    46   27   28 1   
    47   28   29 1   
    48   29   30 ar  
    49   29   32 ar  
    50   30   31 ar  
    51   30   59 1   
    52   31   37 ar  
    53   31   60 1   
    54   32   33 1   
    55   32   36 ar  
    56   33   34 1   
    57   33   61 1   
    58   33   62 1   
    59   34   35 1   
    60   34   63 1   
    61   34   64 1   
    62   35   36 1   
    63   35   65 1   
    64   35   66 1   
    65   36   37 ar  
    66   37   38 1   
    67   38   39 1   
    68   39   40 1   
    69   39   67 1   
    70   39   68 1   
    71   40   41 1   
    72   40   42 1   
@<TRIPOS>SUBSTRUCTURE
     1 1FA         1 TEMP              0 ****  ****    0 ROOT
