@<TRIPOS>MOLECULE
1FB
   38    33     1     0     0
SMALL
bcc


@<TRIPOS>ATOM
      1 CAA         1.3360    2.9070    2.2470 c3        1 1FB     -0.223333
      2 CAV         0.2220    2.4040    1.3370 c3        1 1FB      0.121000
      3 CAB        -0.1420    3.4760    0.3570 c3        1 1FB     -0.223333
      4 CAC        -0.9860    2.0530    2.1670 c3        1 1FB     -0.223333
      5 NAU         0.6760    1.2240    0.6180 n3        1 1FB     -0.134000
      6 NAM        -0.0600    0.0800    0.7900 n2        1 1FB     -0.092000
      7 C4          1.6300    0.9780   -0.3440 c1        1 1FB      0.108000
      8 N3          2.6220    1.7460   -0.8570 n1        1 1FB     -0.226000
      9 C2          3.4710    1.2300   -1.7900 c1        1 1FB      0.040000
     10 N1          3.3240   -0.0590   -2.2090 n1        1 1FB     -0.281000
     11 C6          2.3480   -0.8180   -1.7050 c1        1 1FB      0.260000
     12 NAD         2.7570   -1.9610   -2.4570 n3        1 1FB     -0.360000
     13 C5          1.4840   -0.2960   -0.7560 c1        1 1FB     -0.306000
     14 CAR         0.4270   -0.8590   -0.0470 c1        1 1FB      0.064000
     15 OAN         0.1410   -2.1950    0.3720 o         1 1FB     -0.141000
     16 CAQ        -1.1910   -2.5320    0.0080 c2        1 1FB      0.059000
     17 CAJ        -1.4790   -2.8990   -1.2950 c2        1 1FB     -0.126000
     18 CAO        -2.7610   -3.2960   -1.6360 c1        1 1FB     -0.051000
     19 CL1        -3.1270   -3.7510   -3.2830 cl        1 1FB     -0.009000
     20 CAG        -3.7520   -3.3260   -0.6760 c2        1 1FB     -0.130000
     21 CAF        -3.4660   -2.9590    0.6260 c1        1 1FB     -0.108000
     22 CAH        -2.1830   -2.5620    0.9690 c1        1 1FB     -0.131000
     23 H1          1.7110    2.1610    2.7440 hc        1 1FB      0.090889
     24 H2          0.9710    3.5710    2.8760 hc        1 1FB      0.090889
     25 H3          2.0440    3.3270    1.7000 hc        1 1FB      0.090889
     26 H4          0.6740    3.8860    0.0050 hc        1 1FB      0.090889
     27 H5         -0.6520    3.0870   -0.3740 hc        1 1FB      0.090889
     28 H6         -0.6830    4.1590    0.8050 hc        1 1FB      0.090889
     29 H7         -1.7220    1.7810    1.5760 hc        1 1FB      0.090889
     30 H8         -0.7630    1.3170    2.7710 hc        1 1FB      0.090889
     31 H9         -1.2590    2.8330    2.6910 hc        1 1FB      0.090889
     32 H10         4.1810    1.7810   -2.1580 ha        1 1FB      0.188000
     33 H11         2.2450   -2.7240   -2.4490 hn        1 1FB      0.246500
     34 H12         3.5390   -1.9370   -2.9390 hn        1 1FB      0.246500
     35 H13        -0.7740   -2.9360   -1.9520 ha        1 1FB      0.163000
     36 H14        -4.6580   -3.6060   -0.9180 ha        1 1FB      0.150000
     37 H15        -4.1620   -2.9810    1.2990 ha        1 1FB      0.143000
     38 H16        -1.9820   -2.3050    1.8830 ha        1 1FB      0.156000
@<TRIPOS>BOND
     1    1    2 1   
     2    1   23 1   
     3    1   24 1   
     4    1   25 1   
     5    2    3 1   
     6    2    4 1   
     7    2    5 1   
     8    3   26 1   
     9    3   27 1   
    10    3   28 1   
    11    4   29 1   
    12    4   30 1   
    13    4   31 1   
    14    5    6 1   
    15    5    7 1   
    16    6   14 1   
    17    7    8 1   
    18    9   10 1   
    19    9   32 1   
    20   11   12 1   
    21   11   13 1   
    22   12   33 1   
    23   12   34 1   
    24   15   16 1   
    25   16   17 1   
    26   16   22 1   
    27   17   18 1   
    28   17   35 1   
    29   18   20 1   
    30   20   21 1   
    31   20   36 1   
    32   21   37 1   
    33   22   38 1   
@<TRIPOS>SUBSTRUCTURE
     1 1FB         1 TEMP              0 ****  ****    0 ROOT
