@<TRIPOS>MOLECULE
1FB
   39    41     1     0     0
SMALL
bcc


@<TRIPOS>ATOM
      1 CAA         0.2850   -0.4830   -0.1240 c3        1 1FB     -0.112433
      2 CAV         1.7990   -0.2360   -0.1430 c3        1 1FB      0.092700
      3 CAB         2.3190   -0.3330    1.2990 c3        1 1FB     -0.112433
      4 CAC         2.4830   -1.3290   -0.9730 c3        1 1FB     -0.112433
      5 NAU         2.0890    1.1120   -0.7360 na        1 1FB      0.046200
      6 NAM         2.7280    2.0910   -0.0640 nc        1 1FB     -0.476100
      7 C4          1.7460    1.5170   -2.0310 ca        1 1FB      0.477800
      8 N3          1.1010    0.8860   -3.0630 nb        1 1FB     -0.628000
      9 C2          0.9610    1.6280   -4.1750 ca        1 1FB      0.686900
     10 N1          1.3730    2.9230   -4.4120 nb        1 1FB     -0.700000
     11 C6          2.0050    3.5360   -3.3920 ca        1 1FB      0.576200
     12 NAD         2.4820    4.9270   -3.5620 n4        1 1FB     -0.830300
     13 C5          2.2330    2.9030   -2.1640 ca        1 1FB     -0.463500
     14 CAR         2.8340    3.1750   -0.8800 cd        1 1FB      0.553200
     15 OAN         3.3930    4.4060   -0.6420 os        1 1FB     -0.353700
     16 CAQ         4.0260    4.5780    0.6040 ca        1 1FB      0.066100
     17 CAJ         5.3690    4.2130    0.7320 ca        1 1FB     -0.119000
     18 CAO         6.0200    4.5180    1.9310 ca        1 1FB      0.026400
     19 CL1         7.6500    4.1010    2.1220 cl        1 1FB     -0.050400
     20 CAG         5.3360    5.1610    2.9710 ca        1 1FB     -0.100000
     21 CAF         3.9930    5.5020    2.8150 ca        1 1FB     -0.104000
     22 CAH         3.3170    5.2100    1.6300 ca        1 1FB     -0.116000
     23 H1          0.1030   -1.4740    0.3610 hc        1 1FB      0.063700
     24 H2         -0.2430    0.3020    0.4670 hc        1 1FB      0.063700
     25 H3         -0.1410   -0.5180   -1.1550 hc        1 1FB      0.063700
     26 H4          3.4250   -0.1930    1.3420 hc        1 1FB      0.063700
     27 H5          1.8280    0.4220    1.9590 hc        1 1FB      0.063700
     28 H6          2.0760   -1.3530    1.6850 hc        1 1FB      0.063700
     29 H7          2.2830   -2.3130   -0.4810 hc        1 1FB      0.063700
     30 H8          3.5880   -1.1730   -1.0120 hc        1 1FB      0.063700
     31 H9          2.0810   -1.3720   -2.0130 hc        1 1FB      0.063700
     32 H10         0.4400    1.1440   -5.0350 h5        1 1FB      0.098100
     33 H11         3.1510    4.9750   -4.3390 hn        1 1FB      0.480467
     34 H12         2.9410    5.2260   -2.6870 hn        1 1FB      0.480467
     35 H13         5.8940    3.7030   -0.0880 ha        1 1FB      0.161000
     36 H14         5.8580    5.3950    3.9140 ha        1 1FB      0.168000
     37 H15         3.4580    6.0050    3.6380 ha        1 1FB      0.159000
     38 H16         2.2570    5.4710    1.5030 ha        1 1FB      0.153000
     39 HAD3        1.6880    5.5460   -3.7660 hn        1 1FB      0.480467
@<TRIPOS>BOND
     1    1    2 1   
     2    1   23 1   
     3    1   24 1   
     4    1   25 1   
     5    2    3 1   
     6    2    4 1   
     7    2    5 1   
     8    3   26 1   
     9    3   27 1   
    10    3   28 1   
    11    4   29 1   
    12    4   30 1   
    13    4   31 1   
    14    5    6 1   
    15    5    7 1   
    16    6   14 2   
    17    7    8 ar  
    18    7   13 ar  
    19    8    9 ar  
    20    9   10 ar  
    21    9   32 1   
    22   10   11 ar  
    23   11   12 1   
    24   11   13 ar  
    25   12   33 1   
    26   12   34 1   
    27   12   39 1   
    28   13   14 1   
    29   14   15 1   
    30   15   16 1   
    31   16   17 ar  
    32   16   22 ar  
    33   17   18 ar  
    34   17   35 1   
    35   18   19 1   
    36   18   20 ar  
    37   20   21 ar  
    38   20   36 1   
    39   21   22 ar  
    40   21   37 1   
    41   22   38 1   
@<TRIPOS>SUBSTRUCTURE
     1 1FB         1 TEMP              0 ****  ****    0 ROOT
