@<TRIPOS>MOLECULE
1FB
   38    40     1     0     0
SMALL
bcc


@<TRIPOS>ATOM
      1 CAA         3.6800    2.5700    0.8880 c3        1 1FB     -0.105433
      2 CAV         2.7650    2.2620   -0.3080 c3        1 1FB      0.101700
      3 CAB         1.7880    3.4410   -0.4610 c3        1 1FB     -0.105433
      4 CAC         3.6230    2.2000   -1.5810 c3        1 1FB     -0.105433
      5 NAU         2.0510    0.9800   -0.0970 na        1 1FB      0.001200
      6 NAM         0.7000    0.8760   -0.1110 nc        1 1FB     -0.559100
      7 C4          2.6610   -0.2770    0.0660 ca        1 1FB      0.499800
      8 N3          3.9810   -0.6440    0.1290 nb        1 1FB     -0.752000
      9 C2          4.1530   -1.9730    0.3090 ca        1 1FB      0.702900
     10 N1          3.2410   -2.9750    0.4320 nb        1 1FB     -0.807000
     11 C6          1.9110   -2.6170    0.3710 ca        1 1FB      0.781200
     12 NAD         0.9180   -3.5500    0.4920 nh        1 1FB     -0.962500
     13 C5          1.5780   -1.2430    0.1840 ca        1 1FB     -0.520500
     14 CAR         0.3870   -0.4360    0.0620 cd        1 1FB      0.569200
     15 OAN        -0.8580   -1.0230    0.0860 os        1 1FB     -0.319700
     16 CAQ        -1.9600   -0.1630    0.1500 ca        1 1FB      0.104100
     17 CAJ        -2.9570   -0.3650   -0.8140 ca        1 1FB     -0.126000
     18 CAO        -4.1350    0.3790   -0.7090 ca        1 1FB      0.027400
     19 CL1        -5.3690    0.1500   -1.8550 cl        1 1FB     -0.087400
     20 CAG        -4.3080    1.3110    0.3200 ca        1 1FB     -0.130000
     21 CAF        -3.2940    1.4990    1.2590 ca        1 1FB     -0.108000
     22 CAH        -2.1120    0.7650    1.1860 ca        1 1FB     -0.131000
     23 H1          4.4790    1.7990    0.9990 hc        1 1FB      0.051589
     24 H2          4.1670    3.5600    0.7140 hc        1 1FB      0.051589
     25 H3          3.0910    2.6230    1.8350 hc        1 1FB      0.051589
     26 H4          1.1560    3.5600    0.4500 hc        1 1FB      0.051589
     27 H5          2.3850    4.3740   -0.6060 hc        1 1FB      0.051589
     28 H6          1.1250    3.3010   -1.3480 hc        1 1FB      0.051589
     29 H7          2.9910    1.9880   -2.4750 hc        1 1FB      0.051589
     30 H8          4.1190    3.1910   -1.7210 hc        1 1FB      0.051589
     31 H9          4.4150    1.4180   -1.5000 hc        1 1FB      0.051589
     32 H10         5.2130   -2.3080    0.3640 h5        1 1FB      0.051100
     33 H11         1.1300   -4.5090    0.6070 hn        1 1FB      0.451300
     34 H12        -0.0230   -3.2520    0.4220 hn        1 1FB      0.451300
     35 H13        -2.8070   -1.0970   -1.6200 ha        1 1FB      0.163000
     36 H14        -5.2380    1.8950    0.3880 ha        1 1FB      0.150000
     37 H15        -3.4290    2.2350    2.0660 ha        1 1FB      0.143000
     38 H16        -1.3060    0.9130    1.9200 ha        1 1FB      0.156000
@<TRIPOS>BOND
     1    1    2 1   
     2    1   23 1   
     3    1   24 1   
     4    1   25 1   
     5    2    3 1   
     6    2    4 1   
     7    2    5 1   
     8    3   26 1   
     9    3   27 1   
    10    3   28 1   
    11    4   29 1   
    12    4   30 1   
    13    4   31 1   
    14    5    6 1   
    15    5    7 1   
    16    6   14 2   
    17    7    8 ar  
    18    7   13 ar  
    19    8    9 ar  
    20    9   10 ar  
    21    9   32 1   
    22   10   11 ar  
    23   11   12 1   
    24   11   13 ar  
    25   12   33 1   
    26   12   34 1   
    27   13   14 1   
    28   14   15 1   
    29   15   16 1   
    30   16   17 ar  
    31   16   22 ar  
    32   17   18 ar  
    33   17   35 1   
    34   18   19 1   
    35   18   20 ar  
    36   20   21 ar  
    37   20   36 1   
    38   21   22 ar  
    39   21   37 1   
    40   22   38 1   
@<TRIPOS>SUBSTRUCTURE
     1 1FB         1 TEMP              0 ****  ****    0 ROOT
