@<TRIPOS>MOLECULE
1FB
   38    40     1     0     0
SMALL
bcc


@<TRIPOS>ATOM
      1 CAA         0.1620   -0.3190   -0.0280 c3        1 1FB     -0.105433
      2 CAV         1.6900   -0.1680   -0.1010 c3        1 1FB      0.101700
      3 CAB         2.2400   -0.3020    1.3300 c3        1 1FB     -0.105433
      4 CAC         2.2600   -1.3310   -0.9290 c3        1 1FB     -0.105433
      5 NAU         2.0530    1.1340   -0.7100 na        1 1FB      0.001200
      6 NAM         2.8330    2.0490   -0.0860 nc        1 1FB     -0.559100
      7 C4          1.7090    1.5510   -2.0090 ca        1 1FB      0.499800
      8 N3          0.9560    0.9520   -2.9860 nb        1 1FB     -0.752000
      9 C2          0.8520    1.6990   -4.1080 ca        1 1FB      0.702900
     10 N1          1.3680    2.9220   -4.4080 nb        1 1FB     -0.807000
     11 C6          2.1260    3.5330   -3.4330 ca        1 1FB      0.781200
     12 NAD         2.6820    4.7670   -3.6360 nh        1 1FB     -0.962500
     13 C5          2.3220    2.8600   -2.1910 ca        1 1FB     -0.520500
     14 CAR         3.0050    3.0930   -0.9410 cd        1 1FB      0.569200
     15 OAN         3.7450    4.2390   -0.7550 os        1 1FB     -0.319700
     16 CAQ         4.2250    4.4770    0.5380 ca        1 1FB      0.104100
     17 CAJ         5.5970    4.7370    0.6480 ca        1 1FB     -0.126000
     18 CAO         6.0980    5.1110    1.8980 ca        1 1FB      0.027400
     19 CL1         7.7560    5.4440    2.0650 cl        1 1FB     -0.087400
     20 CAG         5.2550    5.2100    3.0110 ca        1 1FB     -0.130000
     21 CAF         3.8950    4.9350    2.8730 ca        1 1FB     -0.108000
     22 CAH         3.3650    4.5680    1.6370 ca        1 1FB     -0.131000
     23 H1         -0.2960   -0.3290   -1.0450 hc        1 1FB      0.051589
     24 H2         -0.2900    0.5090    0.5680 hc        1 1FB      0.051589
     25 H3         -0.0720   -1.2890    0.4730 hc        1 1FB      0.051589
     26 H4          1.9250   -1.2940    1.7340 hc        1 1FB      0.051589
     27 H5          3.3540   -0.2500    1.3390 hc        1 1FB      0.051589
     28 H6          1.8330    0.4980    1.9920 hc        1 1FB      0.051589
     29 H7          1.8330   -1.3440   -1.9590 hc        1 1FB      0.051589
     30 H8          1.9930   -2.2890   -0.4230 hc        1 1FB      0.051589
     31 H9          3.3720   -1.2610   -0.9960 hc        1 1FB      0.051589
     32 H10         0.2470    1.2430   -4.9230 h5        1 1FB      0.051100
     33 H11         3.2360    5.1610   -2.9160 hn        1 1FB      0.451300
     34 H12         2.5690    5.2430   -4.4950 hn        1 1FB      0.451300
     35 H13         6.2500    4.6510   -0.2320 ha        1 1FB      0.163000
     36 H14         5.6630    5.5000    3.9900 ha        1 1FB      0.150000
     37 H15         3.2330    5.0090    3.7490 ha        1 1FB      0.143000
     38 H16         2.2940    4.3440    1.5240 ha        1 1FB      0.156000
@<TRIPOS>BOND
     1    1    2 1   
     2    1   23 1   
     3    1   24 1   
     4    1   25 1   
     5    2    3 1   
     6    2    4 1   
     7    2    5 1   
     8    3   26 1   
     9    3   27 1   
    10    3   28 1   
    11    4   29 1   
    12    4   30 1   
    13    4   31 1   
    14    5    6 1   
    15    5    7 1   
    16    6   14 2   
    17    7    8 ar  
    18    7   13 ar  
    19    8    9 ar  
    20    9   10 ar  
    21    9   32 1   
    22   10   11 ar  
    23   11   12 1   
    24   11   13 ar  
    25   12   33 1   
    26   12   34 1   
    27   13   14 1   
    28   14   15 1   
    29   15   16 1   
    30   16   17 ar  
    31   16   22 ar  
    32   17   18 ar  
    33   17   35 1   
    34   18   19 1   
    35   18   20 ar  
    36   20   21 ar  
    37   20   36 1   
    38   21   22 ar  
    39   21   37 1   
    40   22   38 1   
@<TRIPOS>SUBSTRUCTURE
     1 1FB         1 TEMP              0 ****  ****    0 ROOT
