@<TRIPOS>MOLECULE
1FB
   38    40     1     0     0
SMALL
bcc


@<TRIPOS>ATOM
      1 CAA         0.1570   -0.3130   -0.0250 c3        1 1FB     -0.105433
      2 CAV         1.6850   -0.1660   -0.0940 c3        1 1FB      0.101700
      3 CAB         2.2310   -0.2950    1.3380 c3        1 1FB     -0.105433
      4 CAC         2.2560   -1.3330   -0.9160 c3        1 1FB     -0.105433
      5 NAU         2.0530    1.1330   -0.7080 na        1 1FB      0.001200
      6 NAM         2.8340    2.0490   -0.0860 nc        1 1FB     -0.559100
      7 C4          1.7130    1.5460   -2.0090 ca        1 1FB      0.499800
      8 N3          0.9610    0.9450   -2.9860 nb        1 1FB     -0.752000
      9 C2          0.8620    1.6870   -4.1110 ca        1 1FB      0.702900
     10 N1          1.3810    2.9070   -4.4150 nb        1 1FB     -0.807000
     11 C6          2.1380    3.5210   -3.4400 ca        1 1FB      0.781200
     12 NAD         2.6970    4.7530   -3.6460 nv        1 1FB     -0.962500
     13 C5          2.3290    2.8520   -2.1950 ca        1 1FB     -0.520500
     14 CAR         3.0100    3.0890   -0.9440 cd        1 1FB      0.569200
     15 OAN         3.7520    4.2340   -0.7610 os        1 1FB     -0.319700
     16 CAQ         4.2260    4.4780    0.5330 ca        1 1FB      0.104100
     17 CAJ         5.5980    4.7370    0.6480 ca        1 1FB     -0.126000
     18 CAO         6.0940    5.1170    1.8980 ca        1 1FB      0.027400
     19 Cl1         7.7520    5.4490    2.0700 cl        1 1FB     -0.087400
     20 CAG         5.2470    5.2220    3.0070 ca        1 1FB     -0.130000
     21 CAF         3.8870    4.9470    2.8650 ca        1 1FB     -0.108000
     22 CAH         3.3610    4.5750    1.6280 ca        1 1FB     -0.131000
     23 H1         -0.2980   -0.3260   -1.0430 hc        1 1FB      0.051589
     24 H2         -0.0810   -1.2810    0.4800 hc        1 1FB      0.051589
     25 H3         -0.2950    0.5180    0.5660 hc        1 1FB      0.051589
     26 H4          3.3450   -0.2460    1.3500 hc        1 1FB      0.051589
     27 H5          1.9140   -1.2850    1.7460 hc        1 1FB      0.051589
     28 H6          1.8240    0.5090    1.9960 hc        1 1FB      0.051589
     29 H7          1.9850   -2.2890   -0.4070 hc        1 1FB      0.051589
     30 H8          3.3680   -1.2660   -0.9810 hc        1 1FB      0.051589
     31 H9          1.8310   -1.3500   -1.9470 hc        1 1FB      0.051589
     32 H10         0.2590    1.2290   -4.9260 h5        1 1FB      0.051100
     33 H11         2.5880    5.2250   -4.5080 hn        1 1FB      0.451300
     34 H12         3.2510    5.1480   -2.9270 hn        1 1FB      0.451300
     35 H13         6.2550    4.6460   -0.2290 ha        1 1FB      0.163000
     36 H14         5.6510    5.5170    3.9870 ha        1 1FB      0.150000
     37 H15         3.2210    5.0270    3.7370 ha        1 1FB      0.143000
     38 H16         2.2910    4.3520    1.5120 ha        1 1FB      0.156000
@<TRIPOS>BOND
     1    1    2 1   
     2    1   23 1   
     3    1   24 1   
     4    1   25 1   
     5    2    3 1   
     6    2    4 1   
     7    2    5 1   
     8    3   26 1   
     9    3   27 1   
    10    3   28 1   
    11    4   29 1   
    12    4   30 1   
    13    4   31 1   
    14    5    6 1   
    15    5    7 1   
    16    6   14 2   
    17    7    8 ar  
    18    7   13 ar  
    19    8    9 ar  
    20    9   10 ar  
    21    9   32 1   
    22   10   11 ar  
    23   11   12 1   
    24   11   13 ar  
    25   12   33 1   
    26   12   34 1   
    27   13   14 1   
    28   14   15 1   
    29   15   16 1   
    30   16   17 ar  
    31   16   22 ar  
    32   17   18 ar  
    33   17   35 1   
    34   18   19 1   
    35   18   20 ar  
    36   20   21 ar  
    37   20   36 1   
    38   21   22 ar  
    39   21   37 1   
    40   22   38 1   
@<TRIPOS>SUBSTRUCTURE
     1 1FB         1 TEMP              0 ****  ****    0 ROOT
