@<TRIPOS>MOLECULE
1FC
   34    33     1     0     0
SMALL
bcc


@<TRIPOS>ATOM
      1 F24        -0.7310    2.4930   -0.4950 f         1 1FC     -0.252300
      2 C2'         0.5480    2.4930   -0.4950 c3        1 1FC      0.113600
      3 C3'         1.0660    2.4930    0.9110 c3        1 1FC      0.139100
      4 O3'         2.1620    3.5010    1.0580 oh        1 1FC     -0.688800
      5 C4'         1.5410    1.2700    1.1020 c3        1 1FC      0.059100
      6 C5'         0.4800    0.3940    1.6890 c3        1 1FC      0.221400
      7 O5'         0.2970    0.7240    3.0640 os        1 1FC     -0.572200
      8 P           0.0970   -0.4620    4.1100 p5        1 1FC      1.325900
      9 OP2        -1.1020   -1.2880    3.7110 o         1 1FC     -0.924500
     10 OP1        -0.1260    0.1160    5.4910 o         1 1FC     -0.924500
     11 C1'         1.1020    1.1450   -1.1610 c3        1 1FC      0.209800
     12 O4'         1.9730    0.7200   -0.3380 os        1 1FC     -0.434600
     13 N1          0.0450    0.1880   -1.3120 nh        1 1FC     -0.207600
     14 C6          0.3370   -1.2020   -1.2560 c2        1 1FC      0.013800
     15 C5         -0.6570   -2.1830   -1.7400 c1        1 1FC     -0.257900
     16 C21        -0.2790   -3.6510   -1.8650 c         1 1FC      0.912600
     17 O23         0.3510   -4.0550   -2.8800 o         1 1FC     -0.849800
     18 O22        -0.5720   -4.4580   -0.9430 o         1 1FC     -0.849800
     19 C4         -1.9690   -1.7190   -2.2190 c1        1 1FC      0.603600
     20 N4         -2.9030   -2.6530   -2.7630 n3        1 1FC     -0.812400
     21 N3         -2.2760   -0.3300   -2.2060 n1        1 1FC     -0.690800
     22 C2         -1.2930    0.6370   -1.6970 c1        1 1FC      0.579500
     23 O2         -1.5600    1.8220   -1.6880 o         1 1FC     -0.658500
     24 H1          0.8850    3.2710   -0.9780 h1        1 1FC      0.065700
     25 H2          0.3440    2.6800    1.5400 h1        1 1FC      0.074700
     26 H3          1.8810    4.1710    1.5680 ho        1 1FC      0.518000
     27 H4          2.3150    1.3000    1.6950 h1        1 1FC      0.058700
     28 H5          0.7500   -0.5410    1.6120 h1        1 1FC      0.016700
     29 H6         -0.3580    0.5310    1.2070 h1        1 1FC      0.016700
     30 H9          1.5150    1.3370   -2.0250 h2        1 1FC      0.076700
     31 H10         1.2200   -1.5040   -0.9690 h4        1 1FC      0.206000
     32 H12        -3.7010   -2.3600   -3.0920 hn        1 1FC      0.418300
     33 H13        -2.7110   -3.5450   -2.7590 hn        1 1FC      0.418300
     34 OP3         1.3280   -1.3350    4.1230 o         1 1FC     -0.924500
@<TRIPOS>BOND
     1    1    2 1   
     2    2    3 1   
     3    2   11 1   
     4    2   24 1   
     5    3    4 1   
     6    3    5 1   
     7    3   25 1   
     8    4   26 1   
     9    5    6 1   
    10    5   12 1   
    11    5   27 1   
    12    6    7 1   
    13    6   28 1   
    14    6   29 1   
    15    7    8 1   
    16    8    9 1   
    17    8   10 1   
    18    8   34 1   
    19   11   12 1   
    20   11   13 1   
    21   11   30 1   
    22   13   14 1   
    23   13   22 2   
    24   14   15 2   
    25   14   31 1   
    26   15   16 2   
    27   16   17 1   
    28   16   18 1   
    29   19   20 1   
    30   19   21 3   
    31   20   32 1   
    32   20   33 1   
    33   22   23 2   
@<TRIPOS>SUBSTRUCTURE
     1 1FC         1 TEMP              0 ****  ****    0 ROOT
