@<TRIPOS>MOLECULE
1FC
   34    35     1     0     0
SMALL
bcc


@<TRIPOS>ATOM
      1 F24         0.6500    2.6040   -1.0870 f         1 1FC     -0.240300
      2 C2'         0.0820    2.1080    0.0670 c3        1 1FC      0.126600
      3 C3'        -1.4530    1.8840   -0.0670 c3        1 1FC      0.135100
      4 O3'        -2.0910    2.8770    0.6980 oh        1 1FC     -0.684800
      5 C4'        -1.6920    0.4690    0.4890 c3        1 1FC      0.070100
      6 C5'        -2.8120   -0.3230   -0.2250 c3        1 1FC      0.238400
      7 O5'        -3.8680   -0.5300    0.6260 os        1 1FC     -0.570200
      8 P          -5.2800    0.4140    0.2740 p5        1 1FC      1.336900
      9 OP2        -4.6910    1.8050    0.3960 o         1 1FC     -0.935833
     10 OP1        -5.6180   -0.0020   -1.1290 o         1 1FC     -0.935833
     11 C1'         0.6270    0.7060    0.5290 c3        1 1FC      0.283500
     12 O4'        -0.4360   -0.2400    0.3570 os        1 1FC     -0.416600
     13 N1          1.8680    0.2390   -0.0720 n         1 1FC     -0.370000
     14 C6          2.9650    0.0650    0.7430 cc        1 1FC      0.068600
     15 C5          4.1850   -0.3810    0.2870 cd        1 1FC     -0.418800
     16 C21         5.3090   -0.5600    1.2750 c         1 1FC      0.932800
     17 O23         6.3060   -1.2950    0.9820 o         1 1FC     -0.857800
     18 O22         5.2140    0.0180    2.3970 o         1 1FC     -0.857800
     19 C4          4.2790   -0.6860   -1.1410 cd        1 1FC      0.741500
     20 N4          5.5180   -1.0200   -1.6800 nh        1 1FC     -0.911800
     21 N3          3.2160   -0.6010   -1.9590 nc        1 1FC     -0.778100
     22 C2          1.9880   -0.1280   -1.4620 c         1 1FC      0.834900
     23 O2          1.0050   -0.0030   -2.2190 o         1 1FC     -0.613500
     24 H1          0.2850    2.8480    0.8930 h1        1 1FC      0.047700
     25 H2         -1.7650    1.9570   -1.1430 h1        1 1FC      0.066700
     26 H3         -3.0570    2.6490    0.7030 ho        1 1FC      0.516000
     27 H4         -1.9280    0.5310    1.5870 h1        1 1FC      0.060700
     28 H5         -3.1400    0.2400   -1.1440 h1        1 1FC      0.012200
     29 H6         -2.3740   -1.3160   -0.5360 h1        1 1FC      0.012200
     30 H9          0.8110    0.7880    1.6480 h2        1 1FC      0.035700
     31 H10         2.8560    0.3060    1.8210 h4        1 1FC      0.172000
     32 H12         6.1950   -1.3150   -0.9990 hn        1 1FC      0.417300
     33 H13         5.5100   -1.5260   -2.5340 hn        1 1FC      0.417300
     34 OP3        -6.2420    0.0090    1.3530 o         1 1FC     -0.935833
@<TRIPOS>BOND
     1    1    2 1   
     2    2    3 1   
     3    2   11 1   
     4    2   24 1   
     5    3    4 1   
     6    3    5 1   
     7    3   25 1   
     8    4   26 1   
     9    5    6 1   
    10    5   12 1   
    11    5   27 1   
    12    6    7 1   
    13    6   28 1   
    14    6   29 1   
    15    7    8 1   
    16    8    9 1   
    17    8   10 1   
    18    8   34 1   
    19   11   12 1   
    20   11   13 1   
    21   11   30 1   
    22   13   14 1   
    23   13   22 1   
    24   14   15 2   
    25   14   31 1   
    26   15   16 1   
    27   15   19 1   
    28   16   17 1   
    29   16   18 1   
    30   19   20 1   
    31   19   21 2   
    32   20   32 1   
    33   20   33 1   
    34   21   22 1   
    35   22   23 2   
@<TRIPOS>SUBSTRUCTURE
     1 1FC         1 TEMP              0 ****  ****    0 ROOT
