@<TRIPOS>MOLECULE
1FD
   21    21     1     0     0
SMALL
bcc


@<TRIPOS>ATOM
      1 F3         -2.6550    1.1710   -0.1300 f         1 1FD     -0.217633
      2 C1         -2.5290   -0.1060    0.3130 c3        1 1FD      0.819700
      3 F1         -2.2380   -0.0840    1.6370 f         1 1FD     -0.217633
      4 F2         -3.7010   -0.7590    0.1220 f         1 1FD     -0.217633
      5 O          -1.5870   -0.8280   -0.4350 os        1 1FD     -0.368900
      6 C2         -0.2470   -0.4490   -0.3340 ca        1 1FD      0.080100
      7 C7          0.2090    0.7250   -0.9450 ca        1 1FD     -0.124500
      8 C6          1.5760    0.9970   -0.9380 ca        1 1FD     -0.109500
      9 C5          2.4740    0.1070   -0.3370 ca        1 1FD     -0.083300
     10 C8          3.9460    0.3990   -0.3780 c3        1 1FD      0.202100
     11 N           4.6130    0.2070    0.8890 n3        1 1FD     -0.917800
     12 C4          1.9990   -1.0630    0.2660 ca        1 1FD     -0.109500
     13 C3          0.6350   -1.3480    0.2780 ca        1 1FD     -0.124500
     14 H1         -0.5050    1.4170   -1.4150 ha        1 1FD      0.154000
     15 H2          1.9450    1.9180   -1.4140 ha        1 1FD      0.148500
     16 H3          4.4220   -0.3130   -1.1170 h1        1 1FD      0.037200
     17 H4          4.0940    1.4440   -0.7880 h1        1 1FD      0.037200
     18 H5          5.5580    0.5310    0.8350 hn        1 1FD      0.354800
     19 H6          4.1380    0.6870    1.6270 hn        1 1FD      0.354800
     20 H8          2.7070   -1.7640    0.7360 ha        1 1FD      0.148500
     21 H9          0.2500   -2.2660    0.7460 ha        1 1FD      0.154000
@<TRIPOS>BOND
     1    1    2 1   
     2    2    3 1   
     3    2    4 1   
     4    2    5 1   
     5    5    6 1   
     6    6    7 ar  
     7    6   13 ar  
     8    7    8 ar  
     9    7   14 1   
    10    8    9 ar  
    11    8   15 1   
    12    9   10 1   
    13    9   12 ar  
    14   10   11 1   
    15   10   16 1   
    16   10   17 1   
    17   11   18 1   
    18   11   19 1   
    19   12   13 ar  
    20   12   20 1   
    21   13   21 1   
@<TRIPOS>SUBSTRUCTURE
     1 1FD         1 TEMP              0 ****  ****    0 ROOT
