@<TRIPOS>MOLECULE
1FD
   22    22     1     0     0
SMALL
bcc


@<TRIPOS>ATOM
      1 F3          0.0850   -0.2250   -0.1560 f         1 1FD     -0.195967
      2 C1          1.4320   -0.1020   -0.1170 c3        1 1FD      0.831700
      3 F1          1.8690   -0.2840    1.1530 f         1 1FD     -0.195967
      4 F2          2.0110   -0.9980   -0.9440 f         1 1FD     -0.195967
      5 O           1.8510    1.1490   -0.6250 os        1 1FD     -0.361900
      6 C2          1.4380    2.3270   -0.0410 ca        1 1FD      0.194100
      7 C7          0.6280    2.4230    1.0980 ca        1 1FD     -0.156000
      8 C6          0.2930    3.6820    1.5870 ca        1 1FD     -0.061000
      9 C5          0.7620    4.8370    0.9510 ca        1 1FD     -0.233300
     10 C8          0.3650    6.1770    1.4530 c3        1 1FD      0.181100
     11 N           1.3770    6.7070    2.4310 n4        1 1FD     -0.846600
     12 C4          1.5660    4.7290   -0.1950 ca        1 1FD     -0.061000
     13 C3          1.9110    3.4840   -0.6980 ca        1 1FD     -0.156000
     14 H1          0.2510    1.5160    1.5990 ha        1 1FD      0.181000
     15 H2         -0.3590    3.7570    2.4720 ha        1 1FD      0.146500
     16 H3          0.2940    6.9220    0.6070 hx        1 1FD      0.113700
     17 H4         -0.6290    6.1340    1.9880 hx        1 1FD      0.113700
     18 H5          1.0970    7.6330    2.7670 hn        1 1FD      0.457800
     19 H6          1.4580    6.0690    3.2290 hn        1 1FD      0.457800
     20 H8          1.9160    5.6350   -0.7160 ha        1 1FD      0.146500
     21 H9          2.5370    3.3790   -1.5990 ha        1 1FD      0.181000
     22 HN3         2.2950    6.7740    1.9790 hn        1 1FD      0.457800
@<TRIPOS>BOND
     1    1    2 1   
     2    2    3 1   
     3    2    4 1   
     4    2    5 1   
     5    5    6 1   
     6    6    7 ar  
     7    6   13 ar  
     8    7    8 ar  
     9    7   14 1   
    10    8    9 ar  
    11    8   15 1   
    12    9   10 1   
    13    9   12 ar  
    14   10   11 1   
    15   10   16 1   
    16   10   17 1   
    17   11   18 1   
    18   11   19 1   
    19   11   22 1   
    20   12   13 ar  
    21   12   20 1   
    22   13   21 1   
@<TRIPOS>SUBSTRUCTURE
     1 1FD         1 TEMP              0 ****  ****    0 ROOT
