@<TRIPOS>MOLECULE
1FD
   22    22     1     0     0
SMALL
bcc


@<TRIPOS>ATOM
      1 F3          0.0800   -0.2260   -0.1490 f         1 1FD     -0.195967
      2 C1          1.4280   -0.1030   -0.1130 c3        1 1FD      0.831700
      3 F1          1.8680   -0.2840    1.1560 f         1 1FD     -0.195967
      4 F2          2.0050   -1.0010   -0.9400 f         1 1FD     -0.195967
      5 O           1.8460    1.1470   -0.6230 os        1 1FD     -0.361900
      6 C2          1.4350    2.3260   -0.0410 ca        1 1FD      0.194100
      7 C7          0.6270    2.4230    1.1010 ca        1 1FD     -0.156000
      8 C6          0.2950    3.6830    1.5890 ca        1 1FD     -0.061000
      9 C5          0.7630    4.8380    0.9500 ca        1 1FD     -0.233300
     10 C8          0.3680    6.1780    1.4510 c3        1 1FD      0.181100
     11 N           1.3820    6.7090    2.4270 n4        1 1FD     -0.846600
     12 C4          1.5650    4.7280   -0.1970 ca        1 1FD     -0.061000
     13 C3          1.9070    3.4820   -0.7000 ca        1 1FD     -0.156000
     14 H1          0.2510    1.5170    1.6030 ha        1 1FD      0.181000
     15 H2         -0.3560    3.7600    2.4750 ha        1 1FD      0.146500
     16 H3          0.2960    6.9230    0.6050 hx        1 1FD      0.113700
     17 H4         -0.6250    6.1370    1.9880 hx        1 1FD      0.113700
     18 H5          1.4630    6.0710    3.2260 hn        1 1FD      0.457800
     19 H6          2.2990    6.7740    1.9740 hn        1 1FD      0.457800
     20 H8          1.9140    5.6330   -0.7200 ha        1 1FD      0.146500
     21 H9          2.5310    3.3750   -1.6020 ha        1 1FD      0.181000
     22 HN3         1.1040    7.6350    2.7620 hn        1 1FD      0.457800
@<TRIPOS>BOND
     1    1    2 1   
     2    2    3 1   
     3    2    4 1   
     4    2    5 1   
     5    5    6 1   
     6    6    7 ar  
     7    6   13 ar  
     8    7    8 ar  
     9    7   14 1   
    10    8    9 ar  
    11    8   15 1   
    12    9   10 1   
    13    9   12 ar  
    14   10   11 1   
    15   10   16 1   
    16   10   17 1   
    17   11   18 1   
    18   11   19 1   
    19   11   22 1   
    20   12   13 ar  
    21   12   20 1   
    22   13   21 1   
@<TRIPOS>SUBSTRUCTURE
     1 1FD         1 TEMP              0 ****  ****    0 ROOT
