@<TRIPOS>MOLECULE
1FD
   21    19     1     0     0
SMALL
bcc


@<TRIPOS>ATOM
      1 F3         -4.5320   -0.7330    0.9300 f         1 1FD     -0.145667
      2 C1         -3.6260   -0.4680   -0.0580 c3        1 1FD      0.534000
      3 F1         -4.2710   -0.2000   -1.1930 f         1 1FD     -0.145667
      4 F2         -2.8210   -1.5530   -0.2390 f         1 1FD     -0.145667
      5 O          -2.8510    0.6310    0.3060 os        1 1FD     -0.252000
      6 C2         -1.4780    0.4240    0.1810 c2        1 1FD      0.036000
      7 C7         -0.8050    0.8980   -0.9580 c2        1 1FD     -0.129000
      8 C6          0.6010    0.8870   -1.0060 c1        1 1FD     -0.111000
      9 C5          1.3330    0.4070    0.0770 c1        1 1FD     -0.114000
     10 C8          2.9000    0.3730    0.0070 c3        1 1FD     -0.050000
     11 N           3.3480   -0.9770   -0.4300 n3        1 1FD     -0.333000
     12 C4          0.6610   -0.0740    1.2320 c1        1 1FD     -0.122000
     13 C3         -0.7390   -0.0640    1.2800 c1        1 1FD     -0.110000
     14 H1         -1.3150    1.2350   -1.7180 ha        1 1FD      0.156000
     15 H2          1.0860    1.2310   -1.8340 ha        1 1FD      0.142000
     16 H3          3.2760    0.5730    0.8990 h1        1 1FD      0.102000
     17 H4          3.2160    1.0540   -0.6470 h1        1 1FD      0.102000
     18 H5          2.8540   -1.2430   -1.1720 hn        1 1FD      0.145000
     19 H6          3.2190   -1.5960    0.2750 hn        1 1FD      0.145000
     20 H8          1.1620   -0.4030    1.9760 ha        1 1FD      0.139000
     21 H9         -1.2160   -0.4020    2.0920 ha        1 1FD      0.155000
@<TRIPOS>BOND
     1    1    2 1   
     2    2    3 1   
     3    2    4 1   
     4    2    5 1   
     5    5    6 1   
     6    6    7 1   
     7    6   13 1   
     8    7    8 1   
     9    7   14 1   
    10    8   15 1   
    11    9   10 1   
    12    9   12 1   
    13   10   11 1   
    14   10   16 1   
    15   10   17 1   
    16   11   18 1   
    17   11   19 1   
    18   12   20 1   
    19   13   21 1   
@<TRIPOS>SUBSTRUCTURE
     1 1FD         1 TEMP              0 ****  ****    0 ROOT
