@<TRIPOS>MOLECULE
1FE
   25    20     1     0     0
SMALL
bcc


@<TRIPOS>ATOM
      1 O2         -5.5550    0.4130    0.7570 o         1 1FE     -0.579500
      2 C6         -4.3680    0.4410    0.7810 c1        1 1FE      0.597500
      3 N2         -3.5820    0.8210    1.8670 n3        1 1FE     -0.323700
      4 N3         -3.5110    0.0240   -0.2520 n2        1 1FE     -0.764800
      5 C7         -2.1920    0.1340    0.2110 c1        1 1FE      0.253400
      6 C5         -2.2340    0.6370    1.5130 c1        1 1FE     -0.044000
      7 C4         -1.0610    0.9060    2.1870 c1        1 1FE     -0.082500
      8 C3          0.1690    0.6750    1.5690 c1        1 1FE     -0.082500
      9 C8         -0.9660   -0.0980   -0.4110 c1        1 1FE     -0.099500
     10 C2          0.2100    0.1690    0.2600 c1        1 1FE      0.085000
     11 N1          1.6730    0.0610   -0.0230 n2        1 1FE     -0.774800
     12 C1          2.1140   -0.3420   -1.3020 c1        1 1FE      0.758900
     13 O1          1.3290   -0.5900   -2.1430 o         1 1FE     -0.590500
     14 C9          3.5900   -0.3920   -1.6120 c2        1 1FE      0.209100
     15 N4          3.9980   -1.7970   -1.9150 nh        1 1FE     -0.515100
     16 H1         -3.8860    1.0700    2.6770 hn        1 1FE      0.297700
     17 H2         -3.7640   -0.3420   -1.0250 hn        1 1FE      0.508400
     18 H3         -1.0930    1.2540    3.0840 ha        1 1FE      0.082500
     19 H4          1.0190    0.8700    2.0590 ha        1 1FE      0.082500
     20 H5         -0.9380   -0.4570   -1.3380 ha        1 1FE      0.125500
     21 H6          2.2700    0.3070    0.6020 hn        1 1FE      0.492400
     22 H7          3.7880    0.2010   -2.4190 h4        1 1FE     -0.026200
     23 H8          4.0690   -0.0830   -0.8770 h4        1 1FE     -0.026200
     24 H9          4.1820   -1.8760   -2.8150 hn        1 1FE      0.209200
     25 H10         4.7390   -2.0080   -1.4360 hn        1 1FE      0.209200
@<TRIPOS>BOND
     1    1    2 2   
     2    2    3 2   
     3    3    6 2   
     4    3   16 1   
     5    4    5 2   
     6    4   17 1   
     7    5    6 2   
     8    7    8 3   
     9    7   18 1   
    10    8   19 1   
    11    9   10 3   
    12    9   20 1   
    13   11   12 2   
    14   11   21 1   
    15   12   13 2   
    16   14   15 2   
    17   14   22 1   
    18   14   23 1   
    19   15   24 1   
    20   15   25 1   
@<TRIPOS>SUBSTRUCTURE
     1 1FE         1 TEMP              0 ****  ****    0 ROOT
