@<TRIPOS>MOLECULE
1FE
   27    28     1     0     0
SMALL
bcc


@<TRIPOS>ATOM
      1 O2          0.4130   -0.9390    0.7800 o         1 1FE     -0.493500
      2 C6          1.5600   -0.6360    0.4650 c         1 1FE      0.794500
      3 N2          2.6990   -0.5880    1.3540 n         1 1FE     -0.429100
      4 N3          2.0370   -0.3180   -0.8530 n         1 1FE     -0.441100
      5 C7          3.3940    0.0010   -0.7640 ca        1 1FE      0.029600
      6 C5          3.8080   -0.1930    0.6370 ca        1 1FE      0.112600
      7 C4          5.1370    0.0220    1.0080 ca        1 1FE     -0.141000
      8 C3          6.0500    0.4160    0.0340 ca        1 1FE     -0.080000
      9 C8          4.3050    0.3930   -1.7240 ca        1 1FE     -0.128000
     10 C2          5.6480    0.5880   -1.3030 ca        1 1FE     -0.158400
     11 N1          6.6130    1.0860   -2.2860 n4        1 1FE     -0.495200
     12 C1          7.0760    0.0150   -3.2200 c         1 1FE      0.507100
     13 O1          6.9210    0.1820   -4.4220 o         1 1FE     -0.378100
     14 C9          7.7010   -1.2260   -2.5960 c3        1 1FE      0.027800
     15 N4          7.9780   -2.2840   -3.6040 n4        1 1FE     -0.832600
     16 H1          2.6330   -0.7190    2.3360 hn        1 1FE      0.394500
     17 H2          1.4270   -0.0520   -1.5880 hn        1 1FE      0.382500
     18 H3          5.4620   -0.0970    2.0560 ha        1 1FE      0.195000
     19 H4          7.0880    0.6150    0.3510 ha        1 1FE      0.156000
     20 H5          3.9880    0.5680   -2.7640 ha        1 1FE      0.170000
     21 H6          6.1610    1.8340   -2.8480 hn        1 1FE      0.492800
     22 H7          8.6790   -0.9410   -2.0960 hx        1 1FE      0.169200
     23 H8          7.0000   -1.6430   -1.8040 hx        1 1FE      0.169200
     24 H9          7.1010   -2.6320   -4.0210 hn        1 1FE      0.493800
     25 H10         8.4640   -3.0720   -3.1470 hn        1 1FE      0.493800
     26 H12         7.4240    1.4930   -1.7960 hn        1 1FE      0.492800
     27 H43         8.5720   -1.9210   -4.3660 hn        1 1FE      0.493800
@<TRIPOS>BOND
     1    1    2 2   
     2    2    3 1   
     3    2    4 1   
     4    3    6 1   
     5    3   16 1   
     6    4    5 1   
     7    4   17 1   
     8    5    6 ar  
     9    5    9 ar  
    10    6    7 ar  
    11    7    8 ar  
    12    7   18 1   
    13    8   10 ar  
    14    8   19 1   
    15    9   10 ar  
    16    9   20 1   
    17   10   11 1   
    18   11   12 1   
    19   11   21 1   
    20   11   26 1   
    21   12   13 2   
    22   12   14 1   
    23   14   15 1   
    24   14   22 1   
    25   14   23 1   
    26   15   24 1   
    27   15   25 1   
    28   15   27 1   
@<TRIPOS>SUBSTRUCTURE
     1 1FE         1 TEMP              0 ****  ****    0 ROOT
