@<TRIPOS>MOLECULE
1FE
   25    26     1     0     0
SMALL
bcc


@<TRIPOS>ATOM
      1 O2         -4.7320   -1.3570   -0.0890 o         1 1FE     -0.619500
      2 C6         -3.6470   -0.7550   -0.1100 c         1 1FE      0.775500
      3 N2         -3.4720    0.6670   -0.0470 n         1 1FE     -0.421100
      4 N3         -2.3660   -1.3570   -0.2980 n         1 1FE     -0.448100
      5 C7         -1.3910   -0.3510   -0.1670 ca        1 1FE      0.027600
      6 C5         -2.0800    0.9110    0.0050 ca        1 1FE     -0.049400
      7 C4         -1.3520    2.0860    0.1300 ca        1 1FE     -0.092000
      8 C3          0.0400    2.0130    0.0910 ca        1 1FE     -0.190000
      9 C8         -0.0060   -0.4220   -0.2080 ca        1 1FE     -0.157000
     10 C2          0.7240    0.7830   -0.0750 ca        1 1FE      0.078600
     11 N1          2.1290    0.8110   -0.1160 n         1 1FE     -0.468100
     12 C1          3.0000   -0.2650   -0.0670 c         1 1FE      0.615100
     13 O1          2.6250   -1.4500    0.0040 o         1 1FE     -0.601100
     14 C9          4.5030    0.0870   -0.1100 c3        1 1FE      0.091800
     15 N4          5.3980   -1.0300   -0.0700 n3        1 1FE     -0.885800
     16 H1         -4.1240    1.2290    0.4430 hn        1 1FE      0.335500
     17 H2         -2.1990   -2.3210   -0.1690 hn        1 1FE      0.351500
     18 H3         -1.8510    3.0570    0.2550 ha        1 1FE      0.145000
     19 H4          0.6080    2.9510    0.1920 ha        1 1FE      0.133000
     20 H5          0.5020   -1.3900   -0.3410 ha        1 1FE      0.184000
     21 H6          2.5350    1.7210   -0.1370 hn        1 1FE      0.317500
     22 H7          4.6990    0.6670   -1.0570 h1        1 1FE      0.074700
     23 H8          4.7290    0.7540    0.7710 h1        1 1FE      0.074700
     24 H9          5.2720   -1.5630    0.7690 hn        1 1FE      0.363800
     25 H10         5.2530   -1.6350   -0.8560 hn        1 1FE      0.363800
@<TRIPOS>BOND
     1    1    2 2   
     2    2    3 1   
     3    2    4 1   
     4    3    6 1   
     5    3   16 1   
     6    4    5 1   
     7    4   17 1   
     8    5    6 ar  
     9    5    9 ar  
    10    6    7 ar  
    11    7    8 ar  
    12    7   18 1   
    13    8   10 ar  
    14    8   19 1   
    15    9   10 ar  
    16    9   20 1   
    17   10   11 1   
    18   11   12 1   
    19   11   21 1   
    20   12   13 2   
    21   12   14 1   
    22   14   15 1   
    23   14   22 1   
    24   14   23 1   
    25   15   24 1   
    26   15   25 1   
@<TRIPOS>SUBSTRUCTURE
     1 1FE         1 TEMP              0 ****  ****    0 ROOT
