@<TRIPOS>MOLECULE
1FE
   26    27     1     0     0
SMALL
bcc


@<TRIPOS>ATOM
      1 O2         -0.1600    0.1780    0.1920 o         1 1FE     -0.590500
      2 C6          1.0760    0.1300    0.1420 c         1 1FE      0.800500
      3 N2          1.9690    0.1890    1.2520 n         1 1FE     -0.456100
      4 N3          1.8670    0.0330   -1.0430 n         1 1FE     -0.456100
      5 C7          3.2170   -0.0300   -0.6720 ca        1 1FE      0.026600
      6 C5          3.2800    0.0810    0.7780 ca        1 1FE      0.026600
      7 C4          4.5090    0.0700    1.4250 ca        1 1FE     -0.112000
      8 C3          5.6660   -0.0510    0.6540 ca        1 1FE     -0.145000
      9 C8          4.3690   -0.1460   -1.4340 ca        1 1FE     -0.135000
     10 C2          5.6070   -0.1560   -0.7520 ca        1 1FE      0.007600
     11 N1          6.8400   -0.2470   -1.4560 n         1 1FE     -0.409100
     12 C1          7.0020   -0.7290   -2.7160 c         1 1FE      0.648100
     13 O1          6.1060   -1.1270   -3.4910 o         1 1FE     -0.601100
     14 C9          8.4620   -0.7450   -3.2500 c3        1 1FE     -0.000200
     15 N4          8.5390   -1.5020   -4.5280 n4        1 1FE     -0.828600
     16 H1          1.6820    0.2340    2.1950 hn        1 1FE      0.370500
     17 H2          1.4980   -0.1620   -1.9360 hn        1 1FE      0.364500
     18 H3          4.5820    0.1550    2.5190 ha        1 1FE      0.162000
     19 H4          6.6350   -0.0580    1.1780 ha        1 1FE      0.140000
     20 H5          4.3100   -0.2320   -2.5300 ha        1 1FE      0.172000
     21 H6          7.6480    0.0200   -0.9350 hn        1 1FE      0.334500
     22 H7          8.7840    0.3200   -3.4420 hx        1 1FE      0.128200
     23 H8          9.1620   -1.2200   -2.5060 hx        1 1FE      0.128200
     24 H9          7.6460   -1.3790   -5.0430 hn        1 1FE      0.475133
     25 H10         9.3190   -1.1670   -5.0990 hn        1 1FE      0.475133
     26 H43         8.6560   -2.5040   -4.3410 hn        1 1FE      0.475133
@<TRIPOS>BOND
     1    1    2 2   
     2    2    3 1   
     3    2    4 1   
     4    3    6 1   
     5    3   16 1   
     6    4    5 1   
     7    4   17 1   
     8    5    6 ar  
     9    5    9 ar  
    10    6    7 ar  
    11    7    8 ar  
    12    7   18 1   
    13    8   10 ar  
    14    8   19 1   
    15    9   10 ar  
    16    9   20 1   
    17   10   11 1   
    18   11   12 1   
    19   11   21 1   
    20   12   13 2   
    21   12   14 1   
    22   14   15 1   
    23   14   22 1   
    24   14   23 1   
    25   15   24 1   
    26   15   25 1   
    27   15   26 1   
@<TRIPOS>SUBSTRUCTURE
     1 1FE         1 TEMP              0 ****  ****    0 ROOT
