@<TRIPOS>MOLECULE
1FE
   26    27     1     0     0
SMALL
bcc


@<TRIPOS>ATOM
      1 O2         -0.1590    0.1880    0.1920 o         1 1FE     -0.590500
      2 C6          1.0770    0.1350    0.1420 c         1 1FE      0.800500
      3 N2          1.9690    0.1820    1.2540 ns        1 1FE     -0.456100
      4 N3          1.8680    0.0440   -1.0420 ns        1 1FE     -0.456100
      5 C7          3.2180   -0.0270   -0.6710 ca        1 1FE      0.026600
      6 C5          3.2800    0.0730    0.7800 ca        1 1FE      0.026600
      7 C4          4.5080    0.0530    1.4270 ca        1 1FE     -0.112000
      8 C3          5.6650   -0.0660    0.6560 ca        1 1FE     -0.145000
      9 C8          4.3700   -0.1410   -1.4340 ca        1 1FE     -0.135000
     10 C2          5.6080   -0.1610   -0.7510 ca        1 1FE      0.007600
     11 N1          6.8400   -0.2500   -1.4540 ns        1 1FE     -0.409100
     12 C1          7.0020   -0.7250   -2.7170 c         1 1FE      0.648100
     13 O1          6.1050   -1.1150   -3.4940 o         1 1FE     -0.601100
     14 C9          8.4620   -0.7430   -3.2510 c3        1 1FE     -0.000200
     15 N4          8.5370   -1.4940   -4.5320 nz        1 1FE     -0.828600
     16 H1          1.6820    0.2220    2.1970 hn        1 1FE      0.370500
     17 H2          1.4990   -0.1420   -1.9380 hn        1 1FE      0.364500
     18 H3          4.5810    0.1290    2.5220 ha        1 1FE      0.162000
     19 H4          6.6340   -0.0800    1.1810 ha        1 1FE      0.140000
     20 H5          4.3120   -0.2180   -2.5300 ha        1 1FE      0.172000
     21 H6          7.6490    0.0110   -0.9310 hn        1 1FE      0.334500
     22 H7          9.1600   -1.2240   -2.5090 hx        1 1FE      0.128200
     23 H8          8.7880    0.3220   -3.4360 hx        1 1FE      0.128200
     24 H9          8.6500   -2.4960   -4.3500 hn        1 1FE      0.475133
     25 H10         7.6450   -1.3650   -5.0480 hn        1 1FE      0.475133
     26 H43         9.3190   -1.1590   -5.1010 hn        1 1FE      0.475133
@<TRIPOS>BOND
     1    1    2 2   
     2    2    3 1   
     3    2    4 1   
     4    3    6 1   
     5    3   16 1   
     6    4    5 1   
     7    4   17 1   
     8    5    6 ar  
     9    5    9 ar  
    10    6    7 ar  
    11    7    8 ar  
    12    7   18 1   
    13    8   10 ar  
    14    8   19 1   
    15    9   10 ar  
    16    9   20 1   
    17   10   11 1   
    18   11   12 1   
    19   11   21 1   
    20   12   13 2   
    21   12   14 1   
    22   14   15 1   
    23   14   22 1   
    24   14   23 1   
    25   15   24 1   
    26   15   25 1   
    27   15   26 1   
@<TRIPOS>SUBSTRUCTURE
     1 1FE         1 TEMP              0 ****  ****    0 ROOT
