@<TRIPOS>MOLECULE
1FF
   24    18     1     0     0
SMALL
bcc


@<TRIPOS>ATOM
      1 O1         -1.1930   -2.3760    2.3770 o         1 1FF     -0.562500
      2 C11        -1.7950   -1.8860    1.3690 c1        1 1FF      0.383000
      3 O2         -2.9910   -1.4770    1.4810 o         1 1FF     -0.562500
      4 C1         -1.0950   -1.8570   -0.0070 c1        1 1FF     -0.132000
      5 C3         -1.0600   -2.8900   -0.9160 c1        1 1FF     -0.108000
      6 N2         -0.2400   -2.5250   -1.9390 n2        1 1FF     -0.139000
      7 N1          0.2410   -1.2580   -1.6710 n2        1 1FF     -0.139000
      8 C4          1.1150   -0.4840   -2.5240 c2        1 1FF     -0.048000
      9 C2         -0.2860   -0.8490   -0.4820 c1        1 1FF     -0.108000
     10 C5          0.0610    0.4520    0.2580 c1        1 1FF      0.008000
     11 C10        -0.7970    1.5490    0.1820 c1        1 1FF     -0.134750
     12 C9         -0.4830    2.7250    0.8570 c1        1 1FF     -0.134750
     13 C8          0.6850    2.8040    1.6070 c1        1 1FF     -0.134750
     14 C7          1.5400    1.7110    1.6820 c1        1 1FF     -0.134750
     15 C6          1.2260    0.5340    1.0060 c1        1 1FF     -0.142000
     16 H2         -1.5730   -3.7250   -0.8590 DU        1 1FF      0.177000
     17 H3          1.3240   -1.0010   -3.3370 ha        1 1FF      0.078000
     18 H4          0.6690    0.3540   -2.7750 ha        1 1FF      0.078000
     19 H5          1.9460   -0.2810   -2.0430 ha        1 1FF      0.078000
     20 H6         -1.5840    1.5150   -0.4000 ha        1 1FF      0.139500
     21 H7         -1.0870    3.4930    0.8100 ha        1 1FF      0.139500
     22 H8          0.9070    3.6330    2.0840 ha        1 1FF      0.139500
     23 H9          2.3900    1.7870    2.1640 ha        1 1FF      0.139500
     24 H10         2.0800    0.0510    1.0760 ha        1 1FF      0.122000
@<TRIPOS>BOND
     1    1    2 1   
     2    2    3 1   
     3    4    5 1   
     4    4    9 1   
     5    5    6 1   
     6    6    7 1   
     7    7    9 1   
     8    8   17 1   
     9    8   18 1   
    10    8   19 1   
    11   10   15 1   
    12   11   12 1   
    13   11   20 1   
    14   12   21 1   
    15   13   14 1   
    16   13   22 1   
    17   14   23 1   
    18   15   24 1   
@<TRIPOS>SUBSTRUCTURE
     1 1FF         1 TEMP              0 ****  ****    0 ROOT
