@<TRIPOS>MOLECULE
1FF
   24    25     1     0     0
SMALL
bcc


@<TRIPOS>ATOM
      1 O1          0.1830   -0.6300    0.0890 o         1 1FF     -0.827800
      2 C11         1.1500    0.1750   -0.0030 c         1 1FF      0.934200
      3 O2          1.3720    1.1040    0.8290 o         1 1FF     -0.827800
      4 C1          2.0530    0.0450   -1.1980 cc        1 1FF     -0.217900
      5 C3          1.5580   -0.0410   -2.5600 cc        1 1FF      0.303200
      6 N2          2.5790   -0.1290   -3.4440 nd        1 1FF     -0.551800
      7 N1          3.7150   -0.1460   -2.7270 na        1 1FF      0.054400
      8 C4          5.0160   -0.0450   -3.3310 c3        1 1FF      0.050600
      9 C2          3.4500   -0.0220   -1.3300 cd        1 1FF     -0.078300
     10 C5          4.4850   -0.0290   -0.3120 ca        1 1FF      0.008000
     11 C10         4.3430    0.7900    0.8210 ca        1 1FF     -0.118500
     12 C9          5.3300    0.7980    1.8030 ca        1 1FF     -0.148000
     13 C8          6.4630   -0.0050    1.6770 ca        1 1FF     -0.148000
     14 C7          6.6000   -0.8350    0.5660 ca        1 1FF     -0.148000
     15 C6          5.6160   -0.8520   -0.4210 ca        1 1FF     -0.118500
     16 H2          0.5100   -0.0550   -2.8600 h4        1 1FF      0.040100
     17 H3          4.9740    0.5460   -4.2840 h1        1 1FF      0.038700
     18 H4          5.4030   -1.0740   -3.5670 h1        1 1FF      0.038700
     19 H5          5.7200    0.4570   -2.6160 h1        1 1FF      0.038700
     20 H6          3.4150    1.3910    0.9340 ha        1 1FF      0.168500
     21 H7          5.2060    1.4390    2.6880 ha        1 1FF      0.116500
     22 H8          7.2400    0.0080    2.4540 ha        1 1FF      0.110000
     23 H9          7.4800   -1.4860    0.4700 ha        1 1FF      0.116500
     24 H10         5.7220   -1.5340   -1.2780 ha        1 1FF      0.168500
@<TRIPOS>BOND
     1    1    2 1   
     2    2    3 1   
     3    2    4 1   
     4    4    5 1   
     5    4    9 2   
     6    5    6 2   
     7    5   16 1   
     8    6    7 1   
     9    7    8 1   
    10    7    9 1   
    11    8   17 1   
    12    8   18 1   
    13    8   19 1   
    14    9   10 1   
    15   10   11 ar  
    16   10   15 ar  
    17   11   12 ar  
    18   11   20 1   
    19   12   13 ar  
    20   12   21 1   
    21   13   14 ar  
    22   13   22 1   
    23   14   15 ar  
    24   14   23 1   
    25   15   24 1   
@<TRIPOS>SUBSTRUCTURE
     1 1FF         1 TEMP              0 ****  ****    0 ROOT
