@<TRIPOS>MOLECULE
1FF
   24    25     1     0     0
SMALL
bcc


@<TRIPOS>ATOM
      1 O1         -2.5690   -2.1990   -0.8830 o         1 1FF     -0.827800
      2 C11        -1.7780   -1.7330   -0.0180 c         1 1FF      0.934200
      3 O2         -1.1870   -2.4420    0.8490 o         1 1FF     -0.827800
      4 C1         -1.5720   -0.2440    0.0070 cc        1 1FF     -0.217900
      5 C3         -2.6680    0.7080    0.0070 cc        1 1FF      0.303200
      6 N2         -2.2090    1.9800    0.0550 nd        1 1FF     -0.551800
      7 N1         -0.8670    1.9100    0.0440 na        1 1FF      0.054400
      8 C4         -0.0280    3.0550    0.2720 c3        1 1FF      0.050600
      9 C2         -0.4170    0.5550    0.0330 cd        1 1FF     -0.078300
     10 C5          0.9830    0.1750    0.0010 ca        1 1FF      0.008000
     11 C10         1.4040   -0.9630    0.7110 ca        1 1FF     -0.118500
     12 C9          2.7460   -1.3380    0.6940 ca        1 1FF     -0.148000
     13 C8          3.6810   -0.5960   -0.0280 ca        1 1FF     -0.148000
     14 C7          3.2650    0.5200   -0.7510 ca        1 1FF     -0.148000
     15 C6          1.9250    0.9020   -0.7420 ca        1 1FF     -0.118500
     16 H2         -3.7290    0.4620   -0.0420 h4        1 1FF      0.040100
     17 H3          0.2050    3.5530   -0.7090 h1        1 1FF      0.038700
     18 H4         -0.5360    3.8020    0.9380 h1        1 1FF      0.038700
     19 H5          0.9300    2.7240    0.7520 h1        1 1FF      0.038700
     20 H6          0.6450   -1.5730    1.2450 ha        1 1FF      0.168500
     21 H7          3.0630   -2.2320    1.2490 ha        1 1FF      0.116500
     22 H8          4.7380   -0.8960   -0.0350 ha        1 1FF      0.110000
     23 H9          3.9930    1.0970   -1.3380 ha        1 1FF      0.116500
     24 H10         1.6050    1.7670   -1.3410 ha        1 1FF      0.168500
@<TRIPOS>BOND
     1    1    2 1   
     2    2    3 1   
     3    2    4 1   
     4    4    5 1   
     5    4    9 2   
     6    5    6 2   
     7    5   16 1   
     8    6    7 1   
     9    7    8 1   
    10    7    9 1   
    11    8   17 1   
    12    8   18 1   
    13    8   19 1   
    14    9   10 1   
    15   10   11 ar  
    16   10   15 ar  
    17   11   12 ar  
    18   11   20 1   
    19   12   13 ar  
    20   12   21 1   
    21   13   14 ar  
    22   13   22 1   
    23   14   15 ar  
    24   14   23 1   
    25   15   24 1   
@<TRIPOS>SUBSTRUCTURE
     1 1FF         1 TEMP              0 ****  ****    0 ROOT
