@<TRIPOS>MOLECULE
1FF
   24    25     1     0     0
SMALL
bcc


@<TRIPOS>ATOM
      1 O1          0.1680   -0.5500    0.0750 o         1 1FF     -0.827800
      2 C11         1.1530    0.2340   -0.0090 c         1 1FF      0.934200
      3 O2          1.3930    1.1510    0.8310 o         1 1FF     -0.827800
      4 C1          2.0560    0.0930   -1.2020 cc        1 1FF     -0.217900
      5 C3          1.5630    0.0270   -2.5660 cc        1 1FF      0.303200
      6 N2          2.5830   -0.0760   -3.4480 nd        1 1FF     -0.551800
      7 N1          3.7170   -0.1220   -2.7290 na        1 1FF      0.054400
      8 C4          5.0210   -0.0450   -3.3290 c3        1 1FF      0.050600
      9 C2          3.4520   -0.0030   -1.3310 cd        1 1FF     -0.078300
     10 C5          4.4840   -0.0400   -0.3120 ca        1 1FF      0.008000
     11 C10         4.3560    0.7750    0.8270 ca        1 1FF     -0.118500
     12 C9          5.3410    0.7550    1.8120 ca        1 1FF     -0.148000
     13 C8          6.4570   -0.0720    1.6820 ca        1 1FF     -0.148000
     14 C7          6.5790   -0.8970    0.5660 ca        1 1FF     -0.148000
     15 C6          5.5970   -0.8860   -0.4240 ca        1 1FF     -0.118500
     16 H2          0.5150    0.0380   -2.8680 h4        1 1FF      0.040100
     17 H3          4.9940    0.5540   -4.2780 h1        1 1FF      0.038700
     18 H4          5.3870   -1.0800   -3.5720 h1        1 1FF      0.038700
     19 H5          5.7340    0.4360   -2.6090 h1        1 1FF      0.038700
     20 H6          3.4410    1.3950    0.9430 ha        1 1FF      0.168500
     21 H7          5.2280    1.3910    2.7010 ha        1 1FF      0.116500
     22 H8          7.2310   -0.0810    2.4610 ha        1 1FF      0.110000
     23 H9          7.4450   -1.5650    0.4670 ha        1 1FF      0.116500
     24 H10         5.6900   -1.5630   -1.2850 ha        1 1FF      0.168500
@<TRIPOS>BOND
     1    1    2 1   
     2    2    3 1   
     3    2    4 1   
     4    4    5 1   
     5    4    9 2   
     6    5    6 2   
     7    5   16 1   
     8    6    7 1   
     9    7    8 1   
    10    7    9 1   
    11    8   17 1   
    12    8   18 1   
    13    8   19 1   
    14    9   10 1   
    15   10   11 ar  
    16   10   15 ar  
    17   11   12 ar  
    18   11   20 1   
    19   12   13 ar  
    20   12   21 1   
    21   13   14 ar  
    22   13   22 1   
    23   14   15 ar  
    24   14   23 1   
    25   15   24 1   
@<TRIPOS>SUBSTRUCTURE
     1 1FF         1 TEMP              0 ****  ****    0 ROOT
