@<TRIPOS>MOLECULE
1FG
   50    53     1     0     0
SMALL
bcc


@<TRIPOS>ATOM
      1 O2         -0.0780    0.3620   -0.3630 o         1 1FG     -0.488100
      2 C15         1.1480    0.2220   -0.2940 c         1 1FG      0.714100
      3 N3          1.7680    0.1690    0.9920 nc        1 1FG     -0.726100
      4 C16         2.0320    0.1020   -1.4750 ca        1 1FG     -0.204600
      5 C21         3.4280   -0.0740   -1.2910 ca        1 1FG      0.157600
      6 C20         4.2730   -0.1850   -2.4150 ca        1 1FG     -0.173000
      7 C19         3.7220   -0.1220   -3.6900 ca        1 1FG     -0.058000
      8 C18         2.3470    0.0500   -3.8720 ca        1 1FG     -0.143000
      9 C17         1.5060    0.1620   -2.7710 ca        1 1FG     -0.035000
     10 N4          3.9430   -0.1410    0.0160 na        1 1FG     -0.714600
     11 C14         3.0650    0.0050    1.0820 cd        1 1FG      0.636200
     12 C13         3.7150   -0.0030    2.4770 c3        1 1FG      0.068500
     13 N1          2.7520   -0.2600    3.5910 n4        1 1FG     -0.661400
     14 C1          2.3370   -1.6890    3.6380 c3        1 1FG      0.082100
     15 C2          3.3520    0.1660    4.8970 c3        1 1FG      0.016800
     16 C3          2.2640    0.3780    5.9810 c         1 1FG      0.644100
     17 O1          1.0750    0.1930    5.6480 o         1 1FG     -0.591100
     18 N2          2.6640    0.8350    7.2150 n         1 1FG     -0.325000
     19 C12         1.7260    0.9150    8.2960 ca        1 1FG      0.009600
     20 C11         0.4200    1.3990    8.0820 ca        1 1FG     -0.109000
     21 C10        -0.4730    1.4900    9.1460 ca        1 1FG     -0.114000
     22 C9         -0.0840    1.1100   10.4290 ca        1 1FG     -0.109000
     23 C8          1.2090    0.6430   10.6490 ca        1 1FG     -0.116000
     24 C7          2.1290    0.5400    9.6000 ca        1 1FG     -0.086300
     25 C6          3.5070    0.0790    9.9240 c3        1 1FG     -0.042100
     26 C5          4.3850   -0.1380    8.7110 c3        1 1FG     -0.099400
     27 C4          4.0570    0.8850    7.6260 c3        1 1FG      0.078000
     28 H1          5.3580   -0.3200   -2.2930 ha        1 1FG      0.147000
     29 H2          4.3830   -0.2090   -4.5690 ha        1 1FG      0.156000
     30 H3          1.9290    0.0970   -4.8910 ha        1 1FG      0.161000
     31 H4          0.4170    0.2980   -2.8950 ha        1 1FG      0.175000
     32 H5          4.9240   -0.2190    0.1500 hn        1 1FG      0.460800
     33 H6          4.5190   -0.7920    2.5280 hx        1 1FG      0.112200
     34 H7          4.1800    1.0170    2.6280 hx        1 1FG      0.112200
     35 H9          3.2280   -2.3400    3.8340 hx        1 1FG      0.113033
     36 H10         1.5780   -1.8080    4.4630 hx        1 1FG      0.113033
     37 H11         1.8630   -1.9700    2.6590 hx        1 1FG      0.113033
     38 H12         3.8990    1.1400    4.7420 hx        1 1FG      0.115700
     39 H13         4.0740   -0.6310    5.2300 hx        1 1FG      0.115700
     40 H14         0.0890    1.6950    7.0740 ha        1 1FG      0.157000
     41 H15        -1.4920    1.8660    8.9650 ha        1 1FG      0.151000
     42 H16        -0.7940    1.1810   11.2670 ha        1 1FG      0.151000
     43 H17         1.5210    0.3490   11.6640 ha        1 1FG      0.147000
     44 H18         3.9830    0.8490   10.5930 hc        1 1FG      0.071200
     45 H19         3.4510   -0.8760   10.5150 hc        1 1FG      0.071200
     46 H20         5.4640   -0.0230    8.9940 hc        1 1FG      0.059700
     47 H21         4.2490   -1.1780    8.3160 hc        1 1FG      0.059700
     48 H22         4.7450    0.7380    6.7500 h1        1 1FG      0.060700
     49 H23         4.2400    1.9240    8.0330 h1        1 1FG      0.060700
     50 H111        1.8850    0.3030    3.4460 hn        1 1FG      0.505800
@<TRIPOS>BOND
     1    1    2 2   
     2    2    3 1   
     3    2    4 1   
     4    3   11 2   
     5    4    5 ar  
     6    4    9 ar  
     7    5    6 ar  
     8    5   10 1   
     9    6    7 ar  
    10    6   28 1   
    11    7    8 ar  
    12    7   29 1   
    13    8    9 ar  
    14    8   30 1   
    15    9   31 1   
    16   10   11 1   
    17   10   32 1   
    18   11   12 1   
    19   12   13 1   
    20   12   33 1   
    21   12   34 1   
    22   13   14 1   
    23   13   15 1   
    24   13   50 1   
    25   14   35 1   
    26   14   36 1   
    27   14   37 1   
    28   15   16 1   
    29   15   38 1   
    30   15   39 1   
    31   16   17 2   
    32   16   18 1   
    33   18   19 1   
    34   18   27 1   
    35   19   20 ar  
    36   19   24 ar  
    37   20   21 ar  
    38   20   40 1   
    39   21   22 ar  
    40   21   41 1   
    41   22   23 ar  
    42   22   42 1   
    43   23   24 ar  
    44   23   43 1   
    45   24   25 1   
    46   25   26 1   
    47   25   44 1   
    48   25   45 1   
    49   26   27 1   
    50   26   46 1   
    51   26   47 1   
    52   27   48 1   
    53   27   49 1   
@<TRIPOS>SUBSTRUCTURE
     1 1FG         1 TEMP              0 ****  ****    0 ROOT
