@<TRIPOS>MOLECULE
1FG
   49    52     1     0     0
SMALL
bcc


@<TRIPOS>ATOM
      1 O2          3.4970    1.2860   -3.2590 o         1 1FG     -0.541100
      2 C15         3.2200    1.0700   -2.0680 c         1 1FG      0.705100
      3 N3          2.6270    2.0900   -1.2790 nc        1 1FG     -0.700100
      4 C16         3.4810   -0.2420   -1.4240 ca        1 1FG     -0.218600
      5 C21         3.1310   -0.4260   -0.0610 ca        1 1FG      0.174600
      6 C20         3.3590   -1.6800    0.5520 ca        1 1FG     -0.188000
      7 C19         3.9290   -2.7080   -0.1860 ca        1 1FG     -0.070000
      8 C18         4.2800   -2.5230   -1.5280 ca        1 1FG     -0.172000
      9 C17         4.0550   -1.2980   -2.1410 ca        1 1FG     -0.040000
     10 N4          2.5820    0.6460    0.6470 na        1 1FG     -0.709600
     11 C14         2.3420    1.8490   -0.0180 cd        1 1FG      0.663200
     12 C13         1.7450    2.9850    0.8340 c3        1 1FG      0.122500
     13 N1          0.5320    2.5710    1.5210 n3        1 1FG     -0.745600
     14 C1          0.2560    3.3680    2.6960 c3        1 1FG      0.146100
     15 C2         -0.6020    2.4400    0.6190 c3        1 1FG      0.101800
     16 C3         -1.6480    1.4280    1.1250 c         1 1FG      0.666100
     17 O1         -1.8710    1.2850    2.3390 o         1 1FG     -0.577100
     18 N2         -2.3280    0.6760    0.1580 n         1 1FG     -0.382000
     19 C12        -3.0960   -0.4660    0.5020 ca        1 1FG      0.072600
     20 C11        -2.7830   -1.2340    1.6470 ca        1 1FG     -0.140000
     21 C10        -3.5160   -2.3730    1.9610 ca        1 1FG     -0.113000
     22 C9         -4.5700   -2.7850    1.1470 ca        1 1FG     -0.148000
     23 C8         -4.8810   -2.0490    0.0100 ca        1 1FG     -0.112000
     24 C7         -4.1620   -0.8990   -0.3280 ca        1 1FG     -0.114300
     25 C6         -4.5290   -0.1920   -1.5850 c3        1 1FG     -0.032100
     26 C5         -3.9460    1.1990   -1.6600 c3        1 1FG     -0.097400
     27 C4         -2.4940    1.1940   -1.1860 c3        1 1FG      0.092000
     28 H1          3.0870   -1.8420    1.6050 ha        1 1FG      0.140000
     29 H2          4.1060   -3.6830    0.2930 ha        1 1FG      0.137000
     30 H3          4.7320   -3.3500   -2.0950 ha        1 1FG      0.141000
     31 H4          4.3210   -1.1310   -3.1990 ha        1 1FG      0.162000
     32 H5          2.2410    0.5030    1.5700 hn        1 1FG      0.468800
     33 H6          2.5230    3.2630    1.6020 h1        1 1FG      0.075200
     34 H7          1.5780    3.8840    0.1710 h1        1 1FG      0.075200
     35 H9          0.0880    4.4540    2.4590 h1        1 1FG      0.049367
     36 H10        -0.6590    2.9580    3.2020 h1        1 1FG      0.049367
     37 H11         1.1250    3.2850    3.4020 h1        1 1FG      0.049367
     38 H12        -1.1470    3.4200    0.4800 h1        1 1FG      0.066700
     39 H13        -0.2050    2.1070   -0.3850 h1        1 1FG      0.066700
     40 H14        -1.9600   -0.9320    2.3140 ha        1 1FG      0.156000
     41 H15        -3.2570   -2.9490    2.8610 ha        1 1FG      0.133000
     42 H16        -5.1490   -3.6840    1.4020 ha        1 1FG      0.132000
     43 H17        -5.7090   -2.3700   -0.6410 ha        1 1FG      0.130000
     44 H18        -4.1600   -0.8010   -2.4560 hc        1 1FG      0.054200
     45 H19        -5.6470   -0.1340   -1.6750 hc        1 1FG      0.054200
     46 H20        -3.9720    1.5730   -2.7160 hc        1 1FG      0.055200
     47 H21        -4.5520    1.9050   -1.0340 hc        1 1FG      0.055200
     48 H22        -2.1110    2.2500   -1.2510 h1        1 1FG      0.052700
     49 H23        -1.8810    0.5540   -1.8850 h1        1 1FG      0.052700
@<TRIPOS>BOND
     1    1    2 2   
     2    2    3 1   
     3    2    4 1   
     4    3   11 2   
     5    4    5 ar  
     6    4    9 ar  
     7    5    6 ar  
     8    5   10 1   
     9    6    7 ar  
    10    6   28 1   
    11    7    8 ar  
    12    7   29 1   
    13    8    9 ar  
    14    8   30 1   
    15    9   31 1   
    16   10   11 1   
    17   10   32 1   
    18   11   12 1   
    19   12   13 1   
    20   12   33 1   
    21   12   34 1   
    22   13   14 1   
    23   13   15 1   
    24   14   35 1   
    25   14   36 1   
    26   14   37 1   
    27   15   16 1   
    28   15   38 1   
    29   15   39 1   
    30   16   17 2   
    31   16   18 1   
    32   18   19 1   
    33   18   27 1   
    34   19   20 ar  
    35   19   24 ar  
    36   20   21 ar  
    37   20   40 1   
    38   21   22 ar  
    39   21   41 1   
    40   22   23 ar  
    41   22   42 1   
    42   23   24 ar  
    43   23   43 1   
    44   24   25 1   
    45   25   26 1   
    46   25   44 1   
    47   25   45 1   
    48   26   27 1   
    49   26   46 1   
    50   26   47 1   
    51   27   48 1   
    52   27   49 1   
@<TRIPOS>SUBSTRUCTURE
     1 1FG         1 TEMP              0 ****  ****    0 ROOT
