@<TRIPOS>MOLECULE
1FG
   50    53     1     0     0
SMALL
bcc


@<TRIPOS>ATOM
      1 O2         -0.0820    0.3440   -0.3610 o         1 1FG     -0.488100
      2 C15         1.1450    0.2110   -0.2930 c         1 1FG      0.714100
      3 N3          1.7660    0.1610    0.9930 nc        1 1FG     -0.726100
      4 C16         2.0290    0.0980   -1.4740 ca        1 1FG     -0.204600
      5 C21         3.4260   -0.0700   -1.2920 ca        1 1FG      0.157600
      6 C20         4.2710   -0.1740   -2.4160 ca        1 1FG     -0.174000
      7 C19         3.7190   -0.1140   -3.6910 ca        1 1FG     -0.058000
      8 C18         2.3420    0.0500   -3.8720 ca        1 1FG     -0.143000
      9 C17         1.5020    0.1560   -2.7700 ca        1 1FG     -0.035000
     10 N4          3.9420   -0.1350    0.0150 na        1 1FG     -0.714600
     11 C14         3.0630    0.0040    1.0820 cd        1 1FG      0.637200
     12 C13         3.7150   -0.0020    2.4760 c3        1 1FG      0.068500
     13 N1          2.7540   -0.2620    3.5910 n4        1 1FG     -0.661400
     14 C1          2.3450   -1.6930    3.6390 c3        1 1FG      0.082100
     15 C2          3.3520    0.1670    4.8970 c3        1 1FG      0.016800
     16 C3          2.2640    0.3740    5.9820 c         1 1FG      0.644100
     17 O1          1.0760    0.1840    5.6490 o         1 1FG     -0.591100
     18 N2          2.6630    0.8350    7.2140 n         1 1FG     -0.325000
     19 C12         1.7250    0.9120    8.2950 ca        1 1FG      0.009600
     20 C11         0.4170    1.3900    8.0820 ca        1 1FG     -0.109000
     21 C10        -0.4760    1.4790    9.1450 ca        1 1FG     -0.114000
     22 C9         -0.0850    1.1030   10.4290 ca        1 1FG     -0.109000
     23 C8          1.2100    0.6410   10.6500 ca        1 1FG     -0.116000
     24 C7          2.1300    0.5410    9.6000 ca        1 1FG     -0.086300
     25 C6          3.5100    0.0870    9.9240 c3        1 1FG     -0.042100
     26 C5          4.3880   -0.1280    8.7110 c3        1 1FG     -0.099400
     27 C4          4.0560    0.8920    7.6240 c3        1 1FG      0.078000
     28 H1          5.3570   -0.3030   -2.2950 ha        1 1FG      0.147000
     29 H2          4.3800   -0.1960   -4.5700 ha        1 1FG      0.156000
     30 H3          1.9240    0.0970   -4.8900 ha        1 1FG      0.161000
     31 H4          0.4120    0.2860   -2.8940 ha        1 1FG      0.175000
     32 H5          4.9230   -0.2080    0.1490 hn        1 1FG      0.460800
     33 H6          4.5210   -0.7880    2.5270 hx        1 1FG      0.112200
     34 H7          4.1760    1.0200    2.6270 hx        1 1FG      0.112200
     35 H9          3.2390   -2.3410    3.8340 hx        1 1FG      0.113033
     36 H10         1.5870   -1.8150    4.4650 hx        1 1FG      0.113033
     37 H11         1.8710   -1.9770    2.6600 hx        1 1FG      0.113033
     38 H12         3.8950    1.1430    4.7410 hx        1 1FG      0.115700
     39 H13         4.0780   -0.6270    5.2300 hx        1 1FG      0.115700
     40 H14         0.0840    1.6840    7.0730 ha        1 1FG      0.157000
     41 H15        -1.4970    1.8510    8.9650 ha        1 1FG      0.151000
     42 H16        -0.7950    1.1710   11.2670 ha        1 1FG      0.151000
     43 H17         1.5240    0.3500   11.6650 ha        1 1FG      0.147000
     44 H18         3.9830    0.8600   10.5920 hc        1 1FG      0.071200
     45 H19         3.4580   -0.8680   10.5160 hc        1 1FG      0.071200
     46 H20         4.2560   -1.1700    8.3180 hc        1 1FG      0.059700
     47 H21         5.4670   -0.0090    8.9930 hc        1 1FG      0.059700
     48 H22         4.2340    1.9310    8.0300 h1        1 1FG      0.060700
     49 H23         4.7430    0.7450    6.7490 h1        1 1FG      0.060700
     50 H111        1.8840    0.2960    3.4460 hn        1 1FG      0.505800
@<TRIPOS>BOND
     1    1    2 2   
     2    2    3 1   
     3    2    4 1   
     4    3   11 2   
     5    4    5 ar  
     6    4    9 ar  
     7    5    6 ar  
     8    5   10 1   
     9    6    7 ar  
    10    6   28 1   
    11    7    8 ar  
    12    7   29 1   
    13    8    9 ar  
    14    8   30 1   
    15    9   31 1   
    16   10   11 1   
    17   10   32 1   
    18   11   12 1   
    19   12   13 1   
    20   12   33 1   
    21   12   34 1   
    22   13   14 1   
    23   13   15 1   
    24   13   50 1   
    25   14   35 1   
    26   14   36 1   
    27   14   37 1   
    28   15   16 1   
    29   15   38 1   
    30   15   39 1   
    31   16   17 2   
    32   16   18 1   
    33   18   19 1   
    34   18   27 1   
    35   19   20 ar  
    36   19   24 ar  
    37   20   21 ar  
    38   20   40 1   
    39   21   22 ar  
    40   21   41 1   
    41   22   23 ar  
    42   22   42 1   
    43   23   24 ar  
    44   23   43 1   
    45   24   25 1   
    46   25   26 1   
    47   25   44 1   
    48   25   45 1   
    49   26   27 1   
    50   26   46 1   
    51   26   47 1   
    52   27   48 1   
    53   27   49 1   
@<TRIPOS>SUBSTRUCTURE
     1 1FG         1 TEMP              0 ****  ****    0 ROOT
