@<TRIPOS>MOLECULE
1FG
   50    53     1     0     0
SMALL
bcc


@<TRIPOS>ATOM
      1 O2         -0.0810    0.3430   -0.3620 o         1 1FG     -0.488100
      2 C15         1.1460    0.2100   -0.2930 c         1 1FG      0.714100
      3 N3          1.7660    0.1610    0.9930 nc        1 1FG     -0.726100
      4 C16         2.0300    0.0940   -1.4740 ca        1 1FG     -0.204600
      5 C21         3.4270   -0.0730   -1.2910 ca        1 1FG      0.157600
      6 C20         4.2720   -0.1790   -2.4160 ca        1 1FG     -0.174000
      7 C19         3.7210   -0.1200   -3.6910 ca        1 1FG     -0.058000
      8 C18         2.3440    0.0440   -3.8720 ca        1 1FG     -0.143000
      9 C17         1.5030    0.1510   -2.7700 ca        1 1FG     -0.035000
     10 N4          3.9430   -0.1370    0.0160 na        1 1FG     -0.714600
     11 C14         3.0640    0.0040    1.0820 cd        1 1FG      0.637200
     12 C13         3.7160    0.0000    2.4760 c3        1 1FG      0.068500
     13 N1          2.7550   -0.2610    3.5910 nx        1 1FG     -0.661400
     14 C1          2.3470   -1.6920    3.6400 c3        1 1FG      0.082100
     15 C2          3.3520    0.1690    4.8970 c3        1 1FG      0.016800
     16 C3          2.2640    0.3760    5.9810 c         1 1FG      0.644100
     17 O1          1.0760    0.1850    5.6490 o         1 1FG     -0.591100
     18 N2          2.6610    0.8370    7.2140 n         1 1FG     -0.325000
     19 C12         1.7240    0.9130    8.2950 ca        1 1FG      0.009600
     20 C11         0.4150    1.3900    8.0810 ca        1 1FG     -0.109000
     21 C10        -0.4780    1.4790    9.1440 ca        1 1FG     -0.114000
     22 C9         -0.0870    1.1030   10.4280 ca        1 1FG     -0.109000
     23 C8          1.2080    0.6430   10.6490 ca        1 1FG     -0.116000
     24 C7          2.1280    0.5430    9.6000 ca        1 1FG     -0.086300
     25 C6          3.5090    0.0900    9.9240 c3        1 1FG     -0.042100
     26 C5          4.3880   -0.1250    8.7110 c3        1 1FG     -0.099400
     27 C4          4.0550    0.8950    7.6250 c3        1 1FG      0.078000
     28 H1          5.3580   -0.3080   -2.2940 ha        1 1FG      0.147000
     29 H2          4.3820   -0.2030   -4.5690 ha        1 1FG      0.156000
     30 H3          1.9260    0.0890   -4.8900 ha        1 1FG      0.161000
     31 H4          0.4140    0.2810   -2.8940 ha        1 1FG      0.175000
     32 H5          4.9240   -0.2090    0.1500 hn        1 1FG      0.460800
     33 H6          4.1750    1.0220    2.6270 hx        1 1FG      0.112200
     34 H7          4.5230   -0.7850    2.5280 hx        1 1FG      0.112200
     35 H9          1.5890   -1.8150    4.4650 hx        1 1FG      0.113033
     36 H10         1.8730   -1.9760    2.6610 hx        1 1FG      0.113033
     37 H11         3.2410   -2.3390    3.8360 hx        1 1FG      0.113033
     38 H12         3.8940    1.1450    4.7410 hx        1 1FG      0.115700
     39 H13         4.0790   -0.6240    5.2300 hx        1 1FG      0.115700
     40 H14         0.0820    1.6840    7.0720 ha        1 1FG      0.157000
     41 H15        -1.4990    1.8500    8.9640 ha        1 1FG      0.151000
     42 H16        -0.7980    1.1710   11.2660 ha        1 1FG      0.151000
     43 H17         1.5220    0.3520   11.6640 ha        1 1FG      0.147000
     44 H18         3.9810    0.8630   10.5920 hc        1 1FG      0.071200
     45 H19         3.4580   -0.8650   10.5170 hc        1 1FG      0.071200
     46 H20         4.2570   -1.1660    8.3180 hc        1 1FG      0.059700
     47 H21         5.4660   -0.0040    8.9940 hc        1 1FG      0.059700
     48 H22         4.2320    1.9350    8.0300 h1        1 1FG      0.060700
     49 H23         4.7420    0.7490    6.7490 h1        1 1FG      0.060700
     50 H111        1.8850    0.2970    3.4460 hn        1 1FG      0.505800
@<TRIPOS>BOND
     1    1    2 2   
     2    2    3 1   
     3    2    4 1   
     4    3   11 2   
     5    4    5 ar  
     6    4    9 ar  
     7    5    6 ar  
     8    5   10 1   
     9    6    7 ar  
    10    6   28 1   
    11    7    8 ar  
    12    7   29 1   
    13    8    9 ar  
    14    8   30 1   
    15    9   31 1   
    16   10   11 1   
    17   10   32 1   
    18   11   12 1   
    19   12   13 1   
    20   12   33 1   
    21   12   34 1   
    22   13   14 1   
    23   13   15 1   
    24   13   50 1   
    25   14   35 1   
    26   14   36 1   
    27   14   37 1   
    28   15   16 1   
    29   15   38 1   
    30   15   39 1   
    31   16   17 2   
    32   16   18 1   
    33   18   19 1   
    34   18   27 1   
    35   19   20 ar  
    36   19   24 ar  
    37   20   21 ar  
    38   20   40 1   
    39   21   22 ar  
    40   21   41 1   
    41   22   23 ar  
    42   22   42 1   
    43   23   24 ar  
    44   23   43 1   
    45   24   25 1   
    46   25   26 1   
    47   25   44 1   
    48   25   45 1   
    49   26   27 1   
    50   26   46 1   
    51   26   47 1   
    52   27   48 1   
    53   27   49 1   
@<TRIPOS>SUBSTRUCTURE
     1 1FG         1 TEMP              0 ****  ****    0 ROOT
