@<TRIPOS>MOLECULE
1FG
   49    44     1     0     0
SMALL
bcc


@<TRIPOS>ATOM
      1 O2         -1.0130   -4.5350   -2.0140 o         1 1FG     -0.302000
      2 C15        -1.5470   -3.4840   -2.2190 c1        1 1FG      0.308000
      3 N3         -0.8930   -2.2860   -1.8800 n1        1 1FG     -0.276000
      4 C16        -2.8730   -3.4410   -2.8750 c2        1 1FG     -0.196000
      5 C21        -3.4550   -2.2440   -3.1440 c2        1 1FG      0.096000
      6 C20        -4.7200   -2.1940   -3.7910 c1        1 1FG     -0.192000
      7 C19        -5.3520   -3.3500   -4.1450 c1        1 1FG     -0.125750
      8 C18        -4.7580   -4.5850   -3.8710 c1        1 1FG     -0.125750
      9 C17        -3.5230   -4.6350   -3.2390 c1        1 1FG     -0.038000
     10 N4         -2.7810   -1.0180   -2.7960 n3        1 1FG     -0.289000
     11 C14        -1.4980   -1.0560   -2.1640 c1        1 1FG      0.114000
     12 C13        -0.8040    0.2540   -1.7600 c2        1 1FG     -0.008000
     13 N1          0.4930   -0.0270   -1.2920 n3        1 1FG     -0.252000
     14 C1          1.4540    0.2590   -2.3340 c3        1 1FG     -0.127000
     15 C2          0.7820    0.8090   -0.1010 c3        1 1FG     -0.070000
     16 C3          1.9600    0.2470    0.6320 c1        1 1FG      0.306000
     17 O1          2.4750   -0.7120    0.2450 o         1 1FG     -0.352000
     18 N2          2.5300    0.9790    1.7710 n2        1 1FG     -0.279000
     19 C12         1.6630    1.9520    2.5600 c2        1 1FG      0.061000
     20 C11         0.3760    2.2950    2.1590 c2        1 1FG     -0.153000
     21 C10        -0.4240    3.1230    2.9820 c1        1 1FG     -0.111000
     22 C9          0.0960    3.6160    4.2470 c1        1 1FG     -0.125750
     23 C8          1.4130    3.2680    4.6620 c1        1 1FG     -0.125750
     24 C7          2.1980    2.4600    3.8630 c1        1 1FG     -0.099000
     25 C6          3.6590    2.1270    4.2090 c2        1 1FG     -0.120000
     26 C5          4.3940    1.4890    3.2220 c3        1 1FG     -0.180000
     27 C4          3.6680    0.5300    2.3720 c3        1 1FG     -0.033000
     28 H1         -5.1500   -1.3030   -3.9890 ha        1 1FG      0.137000
     29 H2         -6.2130   -3.3170   -4.5880 ha        1 1FG      0.136250
     30 H3         -5.2140   -5.4170   -4.1290 ha        1 1FG      0.136250
     31 H4         -3.1140   -5.4820   -3.0510 ha        1 1FG      0.163000
     32 H5         -3.1730   -0.2170   -2.9800 hn        1 1FG      0.248000
     33 H6         -0.7470    0.8870   -2.5860 h4        1 1FG      0.111500
     34 H7         -1.3160    0.6850   -1.0560 h4        1 1FG      0.111500
     35 H9          1.0090    0.8080   -3.0620 h1        1 1FG      0.088333
     36 H10         1.7690   -0.5500   -2.6990 h1        1 1FG      0.088333
     37 H11         2.2060    0.7630   -1.9580 h1        1 1FG      0.088333
     38 H12         0.0120    0.8110    0.4850 h1        1 1FG      0.120000
     39 H13         0.9730    1.6900   -0.3730 h1        1 1FG      0.120000
     40 H14         0.0310    1.9710    1.3250 ha        1 1FG      0.147000
     41 H15        -1.3340    3.3640    2.6970 ha        1 1FG      0.140000
     42 H16        -0.4500    4.1810    4.8060 ha        1 1FG      0.136250
     43 H17         1.7630    3.6030    5.5180 ha        1 1FG      0.136250
     44 H18         4.1270    2.9820    4.4400 ha        1 1FG      0.091000
     45 H19         3.6590    1.5560    5.0010 ha        1 1FG      0.091000
     46 H20         5.1500    1.0000    3.6640 hc        1 1FG      0.091500
     47 H21         4.7860    2.1960    2.6240 hc        1 1FG      0.091500
     48 H22         4.2860    0.2210    1.6620 h1        1 1FG      0.110500
     49 H23         3.4210   -0.2740    2.9490 h1        1 1FG      0.110500
@<TRIPOS>BOND
     1    1    2 1   
     2    2    4 1   
     3    3   11 1   
     4    4    5 1   
     5    4    9 1   
     6    5    6 1   
     7    5   10 1   
     8    6   28 1   
     9    7    8 1   
    10    7   29 1   
    11    8   30 1   
    12    9   31 1   
    13   10   11 1   
    14   10   32 1   
    15   12   13 1   
    16   12   33 1   
    17   12   34 1   
    18   13   14 1   
    19   13   15 1   
    20   14   35 1   
    21   14   36 1   
    22   14   37 1   
    23   15   16 1   
    24   15   38 1   
    25   15   39 1   
    26   16   17 1   
    27   18   19 1   
    28   18   27 1   
    29   19   20 1   
    30   19   24 1   
    31   20   21 1   
    32   20   40 1   
    33   21   41 1   
    34   22   23 1   
    35   22   42 1   
    36   23   43 1   
    37   25   26 1   
    38   25   44 1   
    39   25   45 1   
    40   26   27 1   
    41   26   46 1   
    42   26   47 1   
    43   27   48 1   
    44   27   49 1   
@<TRIPOS>SUBSTRUCTURE
     1 1FG         1 TEMP              0 ****  ****    0 ROOT
