@<TRIPOS>MOLECULE
1FJ
   38    32     1     0     0
SMALL
bcc


@<TRIPOS>ATOM
      1 C10         0.1910    0.4790   -0.1670 c1        1 1FJ      0.423000
      2 C13         4.5250   -2.9490   -3.7890 c1        1 1FJ     -0.153000
      3 C17         4.2050   -3.7840   -4.9390 c1        1 1FJ     -0.462000
      4 C20        -2.8880    2.5290    2.8720 c1        1 1FJ     -0.051000
      5 C21        -2.2070    1.5790    0.3560 c1        1 1FJ     -0.151000
      6 C22        -3.2420    2.4920    0.4960 c1        1 1FJ     -0.114000
      7 C24        -3.5820    2.9660    1.7540 c2        1 1FJ     -0.153000
      8 N01         2.9300   -1.3250   -2.2470 n         1 1FJ     -0.154000
      9 C02         1.4820   -0.6170   -2.1210 c2        1 1FJ      0.280000
     10 C03         1.1950   -0.5280   -0.6750 c1        1 1FJ     -0.853000
     11 C04         3.4320   -1.6210   -0.7270 c2        1 1FJ     -0.344000
     12 C05         3.1860   -2.2110   -3.3150 c2        1 1FJ      0.024000
     13 C06         2.0980   -2.6250   -4.1930 c1        1 1FJ     -0.528000
     14 N07         0.4450   -0.9590   -3.0340 n1        1 1FJ     -0.270000
     15 S08         2.2430   -1.0740    0.2500 s4        1 1FJ      1.294000
     16 C09         0.6910   -1.9410   -4.0750 c1        1 1FJ      0.356000
     17 N11        -0.5330    0.2180    1.0230 n3        1 1FJ     -0.295000
     18 S12         2.6820   -3.6200   -5.2410 ss        1 1FJ      0.780000
     19 C14        -1.5130    1.1410    1.4740 c1        1 1FJ      0.076000
     20 S15         4.6720   -2.6530   -0.2830 s         1 1FJ      0.059000
     21 C16        -1.8530    1.6160    2.7310 c1        1 1FJ     -0.105000
     22 O18        -0.1830   -2.2070   -4.8770 o         1 1FJ     -0.288000
     23 O19        -0.0270    1.4930   -0.8010 o         1 1FJ     -0.443000
     24 C23        -1.6920    0.7050    3.9290 c2        1 1FJ     -0.181500
     25 C25        -3.3130    2.9870    4.2560 c2        1 1FJ     -0.181500
     26 H1          5.4060   -2.8540   -3.3780 DU        1 1FJ      0.186500
     27 H2          4.8400   -4.3160   -5.4580 DU        1 1FJ      0.186500
     28 H3         -1.9670    1.2440   -0.5310 ha        1 1FJ      0.166000
     29 H4         -3.7320    2.8000   -0.2920 ha        1 1FJ      0.130000
     30 H5         -4.3110    3.6090    1.8530 ha        1 1FJ      0.129000
     31 H6         -0.3390   -0.5200    1.5220 hn        1 1FJ      0.266000
     32 H7         -1.0770   -0.0240    3.7040 ha        1 1FJ      0.085167
     33 H8         -2.5650    0.3320    4.1750 ha        1 1FJ      0.085167
     34 H9         -1.3310    1.2170    4.6830 ha        1 1FJ      0.085167
     35 H10        -2.5490    2.9310    4.8680 ha        1 1FJ      0.085167
     36 H11        -4.0370    2.4100    4.5830 ha        1 1FJ      0.085167
     37 H12        -3.6280    3.9140    4.2110 ha        1 1FJ      0.085167
     38 H13         2.3460   -0.8340    1.3990 hs        1 1FJ     -0.139000
@<TRIPOS>BOND
     1    1   17 1   
     2    1   23 1   
     3    2    3 1   
     4    2   12 1   
     5    3   18 1   
     6    4    7 1   
     7    4   21 1   
     8    5   19 1   
     9    5   28 1   
    10    6    7 1   
    11    6   29 1   
    12    7   30 1   
    13    8    9 1   
    14    8   11 1   
    15    8   12 1   
    16    9   10 1   
    17    9   14 1   
    18   10   15 1   
    19   11   15 1   
    20   11   20 1   
    21   12   13 1   
    22   13   18 1   
    23   15   38 1   
    24   16   22 1   
    25   17   19 1   
    26   17   31 1   
    27   24   32 1   
    28   24   33 1   
    29   24   34 1   
    30   25   35 1   
    31   25   36 1   
    32   25   37 1   
@<TRIPOS>SUBSTRUCTURE
     1 1FJ         1 TEMP              0 ****  ****    0 ROOT
