@<TRIPOS>MOLECULE
1FJ
   39    41     1     0     0
SMALL
bcc


@<TRIPOS>ATOM
      1 C10         0.2610    1.0850   -1.8020 c2        1 1FJ      0.346000
      2 C13         6.0310    0.3480    0.9130 c3        1 1FJ     -0.033000
      3 C17         6.1340    0.3790    2.3470 c1        1 1FJ     -0.835000
      4 C20        -3.7910   -0.7010   -0.5220 ca        1 1FJ     -0.071500
      5 C21        -1.7860   -2.2130    0.7220 ca        1 1FJ     -0.155000
      6 C22        -2.1190   -0.9530    1.2200 ca        1 1FJ     -0.155000
      7 C24        -3.1160   -0.2020    0.5990 ca        1 1FJ     -0.139000
      8 N01         3.7870    0.5320   -0.4380 n         1 1FJ     -0.174000
      9 C02         2.3490    0.7070   -0.3140 c2        1 1FJ      0.083000
     10 C03         1.7380    0.7650   -1.6750 c2        1 1FJ     -0.325000
     11 C04         4.2620    0.4440   -1.7340 c2        1 1FJ     -0.347000
     12 C05         4.4970    0.4950    0.7570 c2        1 1FJ      0.055000
     13 C06         3.8430    0.5940    1.9710 c2        1 1FJ     -0.590000
     14 N07         1.6870    0.7990    0.7930 n2        1 1FJ     -0.109000
     15 S08         2.7730    0.5980   -2.8120 ss        1 1FJ      0.929000
     16 C09         2.3970    0.7380    2.0650 c2        1 1FJ      0.333000
     17 N11        -0.6240    0.2840   -1.1670 n         1 1FJ     -0.358000
     18 S12         5.0650    0.5130    3.2800 ss        1 1FJ      1.229000
     19 C14        -2.4540   -2.7190   -0.3920 ca        1 1FJ     -0.139000
     20 S15         5.5700    0.2740   -2.4370 s         1 1FJ      0.410000
     21 C16        -3.4580   -1.9740   -1.0210 ca        1 1FJ     -0.071500
     22 O18         1.7370    0.8060    3.1000 o         1 1FJ     -0.190000
     23 O19        -0.0380    2.0430   -2.5380 o         1 1FJ     -0.302000
     24 C23        -4.1780   -2.5300   -2.1890 c3        1 1FJ     -0.187000
     25 H1          6.3910   -0.6150    0.4640 hc        1 1FJ      0.164500
     26 H2          6.5690    1.1970    0.4130 hc        1 1FJ      0.164500
     27 H3         -1.0210   -2.8210    1.2270 ha        1 1FJ      0.139000
     28 H4         -1.6170   -0.5620    2.1190 ha        1 1FJ      0.139000
     29 H5         -3.3960    0.7810    1.0100 ha        1 1FJ      0.141500
     30 H6         -1.5980    0.5160   -1.2150 hn        1 1FJ      0.269000
     31 H7         -3.7900   -3.5410   -2.4660 hc        1 1FJ      0.092500
     32 H8         -5.2700   -2.6230   -1.9580 hc        1 1FJ      0.092500
     33 H9         -4.0710   -1.8530   -3.0740 hc        1 1FJ      0.092500
     34 H10        -5.8400   -0.4580   -1.0920 hc        1 1FJ      0.092500
     35 H11        -4.6410    0.2630   -2.2410 hc        1 1FJ      0.092500
     36 H12        -4.9920    1.0870   -0.6610 hc        1 1FJ      0.092500
     37 H13        -0.3580   -0.3770   -0.4720 hn        1 1FJ      0.269000
     38 H112       -2.2060   -3.7240   -0.7680 ha        1 1FJ      0.141500
     39 C25        -4.8670    0.0940   -1.1580 c3        1 1FJ     -0.187000
@<TRIPOS>BOND
     1    1   10 1   
     2    1   17 1   
     3    1   23 1   
     4    2    3 1   
     5    2   12 1   
     6    2   25 1   
     7    2   26 1   
     8    3   18 1   
     9    4    7 1   
    10    4   21 1   
    11    4   39 1   
    12    5    6 1   
    13    5   19 1   
    14    5   27 1   
    15    6    7 1   
    16    6   28 1   
    17    7   29 1   
    18    8    9 1   
    19    8   11 1   
    20    8   12 1   
    21    9   10 1   
    22    9   14 1   
    23   10   15 1   
    24   11   15 1   
    25   11   20 1   
    26   12   13 1   
    27   13   16 1   
    28   13   18 1   
    29   14   16 1   
    30   16   22 1   
    31   17   30 1   
    32   17   37 1   
    33   19   21 1   
    34   19   38 1   
    35   21   24 1   
    36   24   31 1   
    37   24   32 1   
    38   24   33 1   
    39   34   39 1   
    40   35   39 1   
    41   36   39 1   
@<TRIPOS>SUBSTRUCTURE
     1 1FJ         1 TEMP              0 ****  ****    0 ROOT
