@<TRIPOS>MOLECULE
1FJ
   38    41     1     0     0
SMALL
bcc


@<TRIPOS>ATOM
      1 C10        -1.5320    0.4120    1.6610 c         1 1FJ      0.748300
      2 C13         4.4880    0.5350   -0.2200 cc        1 1FJ     -0.153000
      3 C17         5.0630    0.2180   -1.4390 cd        1 1FJ     -0.192100
      4 C20        -5.7840   -0.4490   -0.6230 ca        1 1FJ     -0.058300
      5 C21        -4.3250   -0.6660    1.7600 ca        1 1FJ     -0.151000
      6 C22        -5.6800   -0.9800    1.7340 ca        1 1FJ     -0.114000
      7 C24        -6.4070   -0.8780    0.5550 ca        1 1FJ     -0.153000
      8 N01         2.1140    0.6940    0.6790 n         1 1FJ     -0.220500
      9 C02         0.7000    0.5020    0.3170 cc        1 1FJ      0.661200
     10 C03        -0.1140    0.7280    1.4880 ce        1 1FJ     -0.958800
     11 C04         2.3400    1.0930    1.9710 c         1 1FJ      0.438300
     12 C05         3.0620    0.4540   -0.3150 cc        1 1FJ      0.016600
     13 C06         2.6500    0.0810   -1.6160 cd        1 1FJ     -0.278700
     14 N07         0.2960    0.1740   -0.8810 nd        1 1FJ     -0.697100
     15 S08         0.7180    1.3160    2.7450 sx        1 1FJ      0.458100
     16 C09         1.2180   -0.0530   -1.9340 c         1 1FJ      0.755100
     17 N11        -2.2980    0.0630    0.5710 n         1 1FJ     -0.441100
     18 S12         3.9530   -0.1450   -2.6070 ss        1 1FJ      0.240200
     19 C14        -3.6760   -0.2290    0.5880 ca        1 1FJ      0.068600
     20 S15         3.6020    1.4700    2.7650 s         1 1FJ     -0.224400
     21 C16        -4.4220   -0.1130   -0.6220 ca        1 1FJ     -0.112300
     22 O18         0.8080   -0.3520   -3.0650 o         1 1FJ     -0.527100
     23 O19        -1.9900    0.4860    2.8330 o         1 1FJ     -0.682100
     24 C23        -3.7550    0.3530   -1.8630 c3        1 1FJ     -0.060800
     25 H1          5.0220    0.8130    0.6940 ha        1 1FJ      0.187000
     26 H2          6.1400    0.2090   -1.6170 h4        1 1FJ      0.186000
     27 H3         -3.7700   -0.7550    2.7080 ha        1 1FJ      0.166000
     28 H4         -6.1730   -1.3150    2.6590 ha        1 1FJ      0.130000
     29 H5         -7.4760   -1.1340    0.5450 ha        1 1FJ      0.129000
     30 H6         -1.8700    0.0820   -0.3310 hn        1 1FJ      0.352500
     31 H7         -3.2480    1.3370   -1.6940 hc        1 1FJ      0.048367
     32 H8         -2.9860   -0.3890   -2.1990 hc        1 1FJ      0.048367
     33 H9         -4.4790    0.4920   -2.7020 hc        1 1FJ      0.048367
     34 H10        -6.6400    0.6980   -2.2260 hc        1 1FJ      0.043367
     35 H11        -6.1550   -0.9950   -2.6690 hc        1 1FJ      0.043367
     36 H12        -7.6440   -0.7060   -1.6810 hc        1 1FJ      0.043367
     37 H13         0.7020    0.3440    3.6130 hs        1 1FJ      0.265000
     38 C25        -6.5970   -0.3590   -1.8620 c3        1 1FJ     -0.051800
@<TRIPOS>BOND
     1    1   10 1   
     2    1   17 1   
     3    1   23 2   
     4    2    3 2   
     5    2   12 1   
     6    2   25 1   
     7    3   18 1   
     8    3   26 1   
     9    4    7 ar  
    10    4   21 ar  
    11    4   38 1   
    12    5    6 ar  
    13    5   19 ar  
    14    5   27 1   
    15    6    7 ar  
    16    6   28 1   
    17    7   29 1   
    18    8    9 1   
    19    8   11 1   
    20    8   12 1   
    21    9   10 1   
    22    9   14 2   
    23   10   15 2   
    24   11   15 1   
    25   11   20 2   
    26   12   13 2   
    27   13   16 1   
    28   13   18 1   
    29   14   16 1   
    30   15   37 1   
    31   16   22 2   
    32   17   19 1   
    33   17   30 1   
    34   19   21 ar  
    35   21   24 1   
    36   24   31 1   
    37   24   32 1   
    38   24   33 1   
    39   34   38 1   
    40   35   38 1   
    41   36   38 1   
@<TRIPOS>SUBSTRUCTURE
     1 1FJ         1 TEMP              0 ****  ****    0 ROOT
