@<TRIPOS>MOLECULE
1FJ
   38    41     1     0     0
SMALL
bcc


@<TRIPOS>ATOM
      1 C10         0.2220   -1.9900   -0.3170 c2        1 1FJ      0.422000
      2 C13         6.0310    0.5910    0.2730 c3        1 1FJ     -0.054000
      3 C17         6.2380    2.0090    0.4370 c1        1 1FJ     -0.810000
      4 C20        -4.3300   -0.1920   -0.5660 ca        1 1FJ     -0.051000
      5 C21        -2.6880   -2.2780    0.3320 ca        1 1FJ     -0.149000
      6 C22        -4.0720   -2.3840    0.4240 ca        1 1FJ     -0.114000
      7 C24        -4.8900   -1.3510   -0.0170 ca        1 1FJ     -0.151000
      8 N01         3.7390   -0.5940   -0.1620 n         1 1FJ     -0.173000
      9 C02         2.2810   -0.3930   -0.3030 c2        1 1FJ      0.267000
     10 C03         1.6480   -1.6850   -0.4410 c2        1 1FJ     -0.853000
     11 C04         4.1620   -1.9010   -0.2750 c2        1 1FJ     -0.362000
     12 C05         4.5050    0.5380    0.0550 c2        1 1FJ      0.053000
     13 C06         3.9240    1.7930    0.0930 c2        1 1FJ     -0.604000
     14 N07         1.7130    0.7810   -0.2870 n2        1 1FJ     -0.263000
     15 S08         2.6950   -2.8930   -0.6540 s4        1 1FJ      1.310000
     16 C09         2.4800    1.9660   -0.0960 c2        1 1FJ      0.352000
     17 N11        -0.7010   -0.9690   -0.2950 n         1 1FJ     -0.294000
     18 S12         5.1680    2.9930    0.3820 ss        1 1FJ      1.108000
     19 C14        -2.1000   -1.1230   -0.2200 ca        1 1FJ      0.073000
     20 S15         5.5460   -2.5600   -0.2630 s         1 1FJ      0.102000
     21 C16        -2.9370   -0.0660   -0.6830 ca        1 1FJ     -0.104000
     22 O18         1.9200    3.0710   -0.0960 o         1 1FJ     -0.285000
     23 O19        -0.0900   -3.2090   -0.2400 o         1 1FJ     -0.442000
     24 C23        -2.3340    1.1540   -1.2750 c3        1 1FJ     -0.187000
     25 H1          6.3270   -0.0040    1.1770 hc        1 1FJ      0.161500
     26 H2          6.5760    0.1640   -0.6110 hc        1 1FJ      0.161500
     27 H3         -2.0590   -3.1110    0.6870 ha        1 1FJ      0.165000
     28 H4         -4.5160   -3.2950    0.8530 ha        1 1FJ      0.131000
     29 H5         -5.9830   -1.4430    0.0660 ha        1 1FJ      0.129000
     30 H6         -0.3750   -0.0340   -0.4210 hn        1 1FJ      0.266000
     31 H7         -1.7500    1.7180   -0.5030 hc        1 1FJ      0.087667
     32 H8         -3.1070    1.8480   -1.6870 hc        1 1FJ      0.087667
     33 H9         -1.6450    0.8870   -2.1160 hc        1 1FJ      0.087667
     34 H10        -5.1360    1.0520   -2.1220 hc        1 1FJ      0.082667
     35 H11        -5.0040    1.8470   -0.4940 hc        1 1FJ      0.082667
     36 H12        -6.3080    0.6300   -0.8070 hc        1 1FJ      0.082667
     37 H13         2.5650   -3.6200    0.4190 hs        1 1FJ     -0.141000
     38 C25        -5.2410    0.8880   -1.0200 c3        1 1FJ     -0.178000
@<TRIPOS>BOND
     1    1   10 1   
     2    1   17 1   
     3    1   23 1   
     4    2    3 1   
     5    2   12 1   
     6    2   25 1   
     7    2   26 1   
     8    3   18 1   
     9    4    7 1   
    10    4   21 1   
    11    4   38 1   
    12    5    6 1   
    13    5   19 1   
    14    5   27 1   
    15    6    7 1   
    16    6   28 1   
    17    7   29 1   
    18    8    9 1   
    19    8   11 1   
    20    8   12 1   
    21    9   10 1   
    22    9   14 1   
    23   10   15 1   
    24   11   15 1   
    25   11   20 1   
    26   12   13 1   
    27   13   16 1   
    28   13   18 1   
    29   14   16 1   
    30   15   37 1   
    31   16   22 1   
    32   17   19 1   
    33   17   30 1   
    34   19   21 1   
    35   21   24 1   
    36   24   31 1   
    37   24   32 1   
    38   24   33 1   
    39   34   38 1   
    40   35   38 1   
    41   36   38 1   
@<TRIPOS>SUBSTRUCTURE
     1 1FJ         1 TEMP              0 ****  ****    0 ROOT
