@<TRIPOS>MOLECULE
1FJ
   38    41     1     0     0
SMALL
bcc


@<TRIPOS>ATOM
      1 C10         0.2240   -2.0090   -0.2440 c2        1 1FJ      0.422000
      2 C13         6.0230    0.6200    0.2180 c3        1 1FJ     -0.054000
      3 C17         6.2260    2.0460    0.2980 c1        1 1FJ     -0.810000
      4 C20        -4.3310   -0.2420   -0.6180 ca        1 1FJ     -0.051000
      5 C21        -2.6870   -2.2660    0.4100 ca        1 1FJ     -0.149000
      6 C22        -4.0710   -2.3700    0.5030 ca        1 1FJ     -0.114000
      7 C24        -4.8900   -1.3680   -0.0020 ca        1 1FJ     -0.151000
      8 N01         3.7370   -0.5960   -0.1560 n         1 1FJ     -0.173000
      9 C02         2.2790   -0.4080   -0.3160 c2        1 1FJ      0.267000
     10 C03         1.6500   -1.7070   -0.3800 c2        1 1FJ     -0.853000
     11 C04         4.1640   -1.9060   -0.1890 c2        1 1FJ     -0.362000
     12 C05         4.4990    0.5490   -0.0030 c2        1 1FJ      0.053000
     13 C06         3.9140    1.8020   -0.0430 c2        1 1FJ     -0.604000
     14 N07         1.7080    0.7630   -0.3740 n2        1 1FJ     -0.263000
     15 S08         2.7020   -2.9230   -0.5150 s4        1 1FJ      1.310000
     16 C09         2.4710    1.9600   -0.2500 c2        1 1FJ      0.352000
     17 N11        -0.7010   -0.9910   -0.2870 ns        1 1FJ     -0.294000
     18 S12         5.1540    3.0220    0.1790 ss        1 1FJ      1.108000
     19 C14        -2.1000   -1.1440   -0.2090 ca        1 1FJ      0.073000
     20 S15         5.5500   -2.5590   -0.1320 s         1 1FJ      0.102000
     21 C16        -2.9390   -0.1190   -0.7370 ca        1 1FJ     -0.104000
     22 O18         1.9080    3.0610   -0.3190 o         1 1FJ     -0.285000
     23 O19        -0.0850   -3.2220   -0.0950 o         1 1FJ     -0.442000
     24 C23        -2.3360    1.0650   -1.3980 c3        1 1FJ     -0.187000
     25 H1          6.3160    0.0800    1.1570 hc        1 1FJ      0.161500
     26 H2          6.5740    0.1420   -0.6360 hc        1 1FJ      0.161500
     27 H3         -2.0580   -3.0750    0.8160 ha        1 1FJ      0.165000
     28 H4         -4.5150   -3.2550    0.9840 ha        1 1FJ      0.131000
     29 H5         -5.9830   -1.4570    0.0830 ha        1 1FJ      0.129000
     30 H6         -0.3770   -0.0640   -0.4680 hn        1 1FJ      0.266000
     31 H7         -1.6430    0.7500   -2.2200 hc        1 1FJ      0.087667
     32 H8         -3.1090    1.7310   -1.8530 hc        1 1FJ      0.087667
     33 H9         -1.7560    1.6750   -0.6590 hc        1 1FJ      0.087667
     34 H10        -5.0110    1.7960   -0.6700 hc        1 1FJ      0.082667
     35 H11        -6.3100    0.5590   -0.9140 hc        1 1FJ      0.082667
     36 H12        -5.1350    0.9050   -2.2470 hc        1 1FJ      0.082667
     37 H13         2.5680   -3.5860    0.5980 hs        1 1FJ     -0.141000
     38 C25        -5.2430    0.8070   -1.1380 c3        1 1FJ     -0.178000
@<TRIPOS>BOND
     1    1   10 1   
     2    1   17 1   
     3    1   23 1   
     4    2    3 1   
     5    2   12 1   
     6    2   25 1   
     7    2   26 1   
     8    3   18 1   
     9    4    7 1   
    10    4   21 1   
    11    4   38 1   
    12    5    6 1   
    13    5   19 1   
    14    5   27 1   
    15    6    7 1   
    16    6   28 1   
    17    7   29 1   
    18    8    9 1   
    19    8   11 1   
    20    8   12 1   
    21    9   10 1   
    22    9   14 1   
    23   10   15 1   
    24   11   15 1   
    25   11   20 1   
    26   12   13 1   
    27   13   16 1   
    28   13   18 1   
    29   14   16 1   
    30   15   37 1   
    31   16   22 1   
    32   17   19 1   
    33   17   30 1   
    34   19   21 1   
    35   21   24 1   
    36   24   31 1   
    37   24   32 1   
    38   24   33 1   
    39   34   38 1   
    40   35   38 1   
    41   36   38 1   
@<TRIPOS>SUBSTRUCTURE
     1 1FJ         1 TEMP              0 ****  ****    0 ROOT
