@<TRIPOS>MOLECULE
1FK
   31    23     1     0     0
SMALL
bcc


@<TRIPOS>ATOM
      1 O          -1.8160    0.4040    3.1500 o         1 1FK     -0.341000
      2 C1         -0.6150    0.5530    3.0420 c1        1 1FK      0.304000
      3 C           0.2360    0.7520    4.2760 c2        1 1FK     -0.258000
      4 C2          0.0280    0.5440    1.6730 c2        1 1FK     -0.244000
      5 N3          0.0200    1.4400    0.6200 n2        1 1FK     -0.018000
      6 C13         0.0250    2.8180    0.5820 c1        1 1FK     -0.129250
      7 C12         0.0240    3.4810   -0.6400 c1        1 1FK     -0.129250
      8 C11         0.0170    2.7620   -1.8130 c1        1 1FK      0.096000
      9 N2         -0.0550    3.5050   -3.0190 n3        1 1FK     -0.336000
     10 C10         0.0120    1.3920   -1.7760 c1        1 1FK     -0.211000
     11 C9          0.0140    0.7250   -0.5440 c1        1 1FK      0.097000
     12 C4          0.0180   -0.6320   -0.2160 c1        1 1FK     -0.176000
     13 C3          0.0260   -0.7360    1.1460 c1        1 1FK     -0.017000
     14 C5          0.0500   -2.0300   -0.7920 c1        1 1FK      0.129000
     15 N1          1.2450   -2.6360   -1.0400 n1        1 1FK     -0.189000
     16 C8          1.2750   -3.8900   -1.5160 c1        1 1FK     -0.025000
     17 C7          0.1090   -4.5580   -1.7510 c1        1 1FK     -0.129250
     18 C6         -1.0870   -3.9490   -1.5030 c1        1 1FK     -0.129250
     19 N          -1.1150   -2.6960   -1.0270 n1        1 1FK     -0.196000
     20 H1          0.1790   -0.0450    4.8440 ha        1 1FK      0.105333
     21 H2         -0.0870    1.5320    4.7740 ha        1 1FK      0.105333
     22 H3          1.1680    0.8980    4.0100 ha        1 1FK      0.105333
     23 H4          0.0290    3.3280    1.4140 ha        1 1FK      0.167250
     24 H5          0.0540    4.4560   -0.6660 ha        1 1FK      0.167250
     25 H6          0.0180    4.4160   -2.9990 hn        1 1FK      0.201000
     26 H7         -0.1670    3.0720   -3.8160 hn        1 1FK      0.201000
     27 H8          0.0080    0.8810   -2.6070 ha        1 1FK      0.180000
     28 H9          0.0500   -1.5670    1.6570 DU        1 1FK      0.172000
     29 H10         2.1310   -4.3240   -1.6930 ha        1 1FK      0.161000
     30 H11         0.1300   -5.4700   -2.0980 ha        1 1FK      0.167250
     31 H12        -1.9220   -4.4270   -1.6720 ha        1 1FK      0.167250
@<TRIPOS>BOND
     1    1    2 1   
     2    2    4 1   
     3    3   20 1   
     4    3   21 1   
     5    3   22 1   
     6    4    5 1   
     7    4   13 1   
     8    5   11 1   
     9    6    7 1   
    10    6   23 1   
    11    7   24 1   
    12    8    9 1   
    13    8   10 1   
    14    9   25 1   
    15    9   26 1   
    16   10   27 1   
    17   12   13 1   
    18   14   19 1   
    19   15   16 1   
    20   16   29 1   
    21   17   18 1   
    22   17   30 1   
    23   18   31 1   
@<TRIPOS>SUBSTRUCTURE
     1 1FK         1 TEMP              0 ****  ****    0 ROOT
