@<TRIPOS>MOLECULE
1FK
   31    33     1     0     0
SMALL
bcc


@<TRIPOS>ATOM
      1 O          -3.8820    1.7050   -0.0190 o         1 1FK     -0.580100
      2 C1         -2.7150    2.1280   -0.0140 c         1 1FK      0.612300
      3 C          -2.4100    3.5940   -0.0200 c3        1 1FK     -0.190100
      4 C2         -1.5530    1.2540   -0.0020 cc        1 1FK     -0.290300
      5 N3         -1.6100   -0.1580    0.0140 na        1 1FK      0.057700
      6 C13        -2.6960   -0.9950    0.0210 cc        1 1FK     -0.029300
      7 C12        -2.5280   -2.3610    0.0340 cd        1 1FK     -0.224000
      8 C11        -1.2080   -2.9340    0.0510 cd        1 1FK      0.177600
      9 N2         -1.0550   -4.3110    0.1550 nh        1 1FK     -0.827200
     10 C10        -0.1020   -2.0770    0.0350 cc        1 1FK     -0.211000
     11 C9         -0.2910   -0.6780    0.0200 cc        1 1FK      0.072700
     12 C4          0.6060    0.4410    0.0050 cd        1 1FK     -0.285800
     13 C3         -0.1900    1.6210   -0.0060 cd        1 1FK     -0.017000
     14 C5          2.0600    0.4240    0.0020 ca        1 1FK      0.764800
     15 N1          2.7130   -0.7870   -0.0430 nb        1 1FK     -0.718500
     16 C8          4.0570   -0.7540   -0.0440 ca        1 1FK      0.439700
     17 C7          4.7930    0.4430   -0.0040 ca        1 1FK     -0.392600
     18 C6          4.0410    1.6330    0.0390 ca        1 1FK      0.439700
     19 N           2.6990    1.6500    0.0430 nb        1 1FK     -0.718500
     20 H1         -3.3570    4.1850   -0.0260 hc        1 1FK      0.066033
     21 H2         -1.8180    3.8620    0.8890 hc        1 1FK      0.066033
     22 H3         -1.8110    3.8530   -0.9270 hc        1 1FK      0.066033
     23 H4         -3.6920   -0.5060    0.0140 h4        1 1FK      0.204000
     24 H5         -3.4160   -3.0090    0.0440 ha        1 1FK      0.155000
     25 H6         -1.8220   -4.8560   -0.1650 hn        1 1FK      0.405800
     26 H7         -0.1590   -4.6650   -0.0900 hn        1 1FK      0.405800
     27 H8          0.9250   -2.4680    0.0440 ha        1 1FK      0.180000
     28 H9          0.1820    2.6450   -0.0160 ha        1 1FK      0.172000
     29 H10         4.5620   -1.7360   -0.0800 h4        1 1FK      0.022600
     30 H11         5.8870    0.4510   -0.0050 ha        1 1FK      0.152000
     31 H12         4.5350    2.6210    0.0720 h4        1 1FK      0.022600
@<TRIPOS>BOND
     1    1    2 2   
     2    2    3 1   
     3    2    4 1   
     4    3   20 1   
     5    3   21 1   
     6    3   22 1   
     7    4    5 1   
     8    4   13 2   
     9    5    6 1   
    10    5   11 1   
    11    6    7 2   
    12    6   23 1   
    13    7    8 1   
    14    7   24 1   
    15    8    9 1   
    16    8   10 2   
    17    9   25 1   
    18    9   26 1   
    19   10   11 1   
    20   10   27 1   
    21   11   12 2   
    22   12   13 1   
    23   12   14 1   
    24   13   28 1   
    25   14   15 ar  
    26   14   19 ar  
    27   15   16 ar  
    28   16   17 ar  
    29   16   29 1   
    30   17   18 ar  
    31   17   30 1   
    32   18   19 ar  
    33   18   31 1   
@<TRIPOS>SUBSTRUCTURE
     1 1FK         1 TEMP              0 ****  ****    0 ROOT
