@<TRIPOS>MOLECULE
1FK
   32    34     1     0     0
SMALL
bcc


@<TRIPOS>ATOM
      1 O          -0.0740   -0.0380    0.0750 o         1 1FK     -0.537100
      2 C1          1.1630   -0.0270    0.0590 c         1 1FK      0.607300
      3 C           1.9980   -0.0190    1.2940 c3        1 1FK     -0.193100
      4 C2          1.9150   -0.0200   -1.2090 cc        1 1FK     -0.198300
      5 N3          1.3280   -0.0250   -2.4770 na        1 1FK      0.063700
      6 C13         0.0020   -0.0370   -2.8480 cc        1 1FK     -0.004300
      7 C12        -0.3550   -0.0400   -4.1760 cd        1 1FK     -0.198000
      8 C11         0.6720   -0.0310   -5.1780 cd        1 1FK     -0.096400
      9 N2          0.2630   -0.0340   -6.5800 n4        1 1FK     -0.692000
     10 C10         2.0130   -0.0180   -4.8360 cc        1 1FK     -0.015000
     11 C9          2.3630   -0.0150   -3.4630 cc        1 1FK     -0.045300
     12 C4          3.6090   -0.0040   -2.7730 cd        1 1FK     -0.159800
     13 C3          3.3200   -0.0070   -1.3790 cd        1 1FK     -0.052000
     14 C5          4.9540    0.0090   -3.3520 ca        1 1FK      0.717800
     15 N1          5.0800    0.0100   -4.7190 nb        1 1FK     -0.710000
     16 C8          6.3350    0.0220   -5.2080 ca        1 1FK      0.441700
     17 C7          7.4730    0.0320   -4.3840 ca        1 1FK     -0.343600
     18 C6          7.2410    0.0300   -2.9930 ca        1 1FK      0.441700
     19 N           6.0060    0.0180   -2.4640 nb        1 1FK     -0.710000
     20 H1          2.6570   -0.9220    1.3160 hc        1 1FK      0.082700
     21 H2          1.3430   -0.0250    2.2010 hc        1 1FK      0.082700
     22 H3          2.6400    0.8960    1.3160 hc        1 1FK      0.082700
     23 H4         -0.7410   -0.0440   -2.0200 h4        1 1FK      0.230000
     24 H5         -1.4210   -0.0500   -4.4460 ha        1 1FK      0.170000
     25 H6         -0.2940   -0.8760   -6.7690 hn        1 1FK      0.462467
     26 H7          1.0860   -0.0260   -7.1910 hn        1 1FK      0.462467
     27 H8          2.8270   -0.0110   -5.5810 ha        1 1FK      0.197000
     28 H9          4.0530    0.0000   -0.5690 ha        1 1FK      0.199000
     29 H10         6.4260    0.0220   -6.3100 h4        1 1FK      0.040100
     30 H11         8.4880    0.0420   -4.7980 ha        1 1FK      0.173000
     31 H12         8.0780    0.0380   -2.2690 h4        1 1FK      0.040100
     32 H23        -0.3100    0.7970   -6.7690 hn        1 1FK      0.462467
@<TRIPOS>BOND
     1    1    2 2   
     2    2    3 1   
     3    2    4 1   
     4    3   20 1   
     5    3   21 1   
     6    3   22 1   
     7    4    5 1   
     8    4   13 2   
     9    5    6 1   
    10    5   11 1   
    11    6    7 2   
    12    6   23 1   
    13    7    8 1   
    14    7   24 1   
    15    8    9 1   
    16    8   10 2   
    17    9   25 1   
    18    9   26 1   
    19    9   32 1   
    20   10   11 1   
    21   10   27 1   
    22   11   12 2   
    23   12   13 1   
    24   12   14 1   
    25   13   28 1   
    26   14   15 ar  
    27   14   19 ar  
    28   15   16 ar  
    29   16   17 ar  
    30   16   29 1   
    31   17   18 ar  
    32   17   30 1   
    33   18   19 ar  
    34   18   31 1   
@<TRIPOS>SUBSTRUCTURE
     1 1FK         1 TEMP              0 ****  ****    0 ROOT
