@<TRIPOS>MOLECULE
1FK
   31    33     1     0     0
SMALL
bcc


@<TRIPOS>ATOM
      1 O          -0.0710   -0.0840    0.0810 o         1 1FK     -0.580100
      2 C1          1.1700   -0.0550    0.0310 c         1 1FK      0.612300
      3 C           2.0060   -0.0440    1.2720 c3        1 1FK     -0.190100
      4 C2          1.9150   -0.0300   -1.2180 cc        1 1FK     -0.290300
      5 N3          1.3280   -0.0260   -2.5030 na        1 1FK      0.057700
      6 C13         0.0070   -0.0450   -2.8680 cc        1 1FK     -0.029300
      7 C12        -0.3540   -0.0390   -4.1960 cd        1 1FK     -0.224000
      8 C11         0.6510   -0.0040   -5.2250 cd        1 1FK      0.177600
      9 N2          0.2700    0.0910   -6.5580 nh        1 1FK     -0.827200
     10 C10         1.9990    0.0060   -4.8490 cc        1 1FK     -0.211000
     11 C9          2.3520   -0.0010   -3.4830 cc        1 1FK      0.072700
     12 C4          3.6060    0.0090   -2.7860 cd        1 1FK     -0.285800
     13 C3          3.3150   -0.0070   -1.3930 cd        1 1FK     -0.017000
     14 C5          4.9460    0.0310   -3.3510 ca        1 1FK      0.764800
     15 N1          5.0930   -0.0100   -4.7190 nb        1 1FK     -0.718500
     16 C8          6.3500    0.0130   -5.1960 ca        1 1FK      0.439700
     17 C7          7.4830    0.0730   -4.3660 ca        1 1FK     -0.392600
     18 C6          7.2360    0.1100   -2.9800 ca        1 1FK      0.439700
     19 N           6.0000    0.0900   -2.4580 nb        1 1FK     -0.718500
     20 H1          1.3520   -0.0620    2.1780 hc        1 1FK      0.066033
     21 H2          2.6370    0.8780    1.2960 hc        1 1FK      0.066033
     22 H3          2.6750   -0.9380    1.2870 hc        1 1FK      0.066033
     23 H4         -0.7300   -0.0650   -2.0390 h4        1 1FK      0.204000
     24 H5         -1.4210   -0.0500   -4.4600 ha        1 1FK      0.155000
     25 H6          0.9710   -0.1410   -7.2240 hn        1 1FK      0.405800
     26 H7         -0.6390   -0.2460   -6.7720 hn        1 1FK      0.405800
     27 H8          2.8010    0.0300   -5.6000 ha        1 1FK      0.180000
     28 H9          4.0460   -0.0030   -0.5850 ha        1 1FK      0.172000
     29 H10         6.4470   -0.0200   -6.2960 h4        1 1FK      0.022600
     30 H11         8.4990    0.0910   -4.7720 ha        1 1FK      0.152000
     31 H12         8.0660    0.1570   -2.2520 h4        1 1FK      0.022600
@<TRIPOS>BOND
     1    1    2 2   
     2    2    3 1   
     3    2    4 1   
     4    3   20 1   
     5    3   21 1   
     6    3   22 1   
     7    4    5 1   
     8    4   13 2   
     9    5    6 1   
    10    5   11 1   
    11    6    7 2   
    12    6   23 1   
    13    7    8 1   
    14    7   24 1   
    15    8    9 1   
    16    8   10 2   
    17    9   25 1   
    18    9   26 1   
    19   10   11 1   
    20   10   27 1   
    21   11   12 2   
    22   12   13 1   
    23   12   14 1   
    24   13   28 1   
    25   14   15 ar  
    26   14   19 ar  
    27   15   16 ar  
    28   16   17 ar  
    29   16   29 1   
    30   17   18 ar  
    31   17   30 1   
    32   18   19 ar  
    33   18   31 1   
@<TRIPOS>SUBSTRUCTURE
     1 1FK         1 TEMP              0 ****  ****    0 ROOT
