@<TRIPOS>MOLECULE
1FK
   31    33     1     0     0
SMALL
bcc


@<TRIPOS>ATOM
      1 O          -0.0730    0.0890    0.0770 o         1 1FK     -0.580100
      2 C1          1.1670    0.0550    0.0290 c         1 1FK      0.612300
      3 C           2.0020    0.0460    1.2720 c3        1 1FK     -0.190100
      4 C2          1.9140    0.0220   -1.2190 cc        1 1FK     -0.290300
      5 N3          1.3280    0.0150   -2.5050 na        1 1FK      0.057700
      6 C13         0.0070    0.0380   -2.8700 cc        1 1FK     -0.029300
      7 C12        -0.3520    0.0280   -4.1990 cd        1 1FK     -0.224000
      8 C11         0.6530   -0.0150   -5.2270 cd        1 1FK      0.177600
      9 N2          0.2730   -0.1150   -6.5600 nv        1 1FK     -0.827200
     10 C10         2.0000   -0.0290   -4.8500 cc        1 1FK     -0.211000
     11 C9          2.3530   -0.0180   -3.4830 cc        1 1FK      0.072700
     12 C4          3.6060   -0.0300   -2.7850 cd        1 1FK     -0.285800
     13 C3          3.3130   -0.0070   -1.3920 cd        1 1FK     -0.017000
     14 C5          4.9460   -0.0590   -3.3490 ca        1 1FK      0.764800
     15 N1          5.0950   -0.0240   -4.7170 nb        1 1FK     -0.718500
     16 C8          6.3520   -0.0530   -5.1930 ca        1 1FK      0.439700
     17 C7          7.4840   -0.1150   -4.3620 ca        1 1FK     -0.392600
     18 C6          7.2350   -0.1460   -2.9760 ca        1 1FK      0.439700
     19 N           5.9990   -0.1200   -2.4540 nb        1 1FK     -0.718500
     20 H1          1.3480    0.0710    2.1760 hc        1 1FK      0.066033
     21 H2          2.6750    0.9380    1.2830 hc        1 1FK      0.066033
     22 H3          2.6300   -0.8780    1.3000 hc        1 1FK      0.066033
     23 H4         -0.7310    0.0640   -2.0420 h4        1 1FK      0.204000
     24 H5         -1.4190    0.0420   -4.4640 ha        1 1FK      0.155000
     25 H6         -0.6350    0.2250   -6.7770 hn        1 1FK      0.405800
     26 H7          0.9750    0.1120   -7.2260 hn        1 1FK      0.405800
     27 H8          2.8040   -0.0590   -5.6000 ha        1 1FK      0.180000
     28 H9          4.0440   -0.0110   -0.5840 ha        1 1FK      0.172000
     29 H10         6.4500   -0.0240   -6.2930 h4        1 1FK      0.022600
     30 H11         8.5000   -0.1380   -4.7660 ha        1 1FK      0.152000
     31 H12         8.0640   -0.1950   -2.2470 h4        1 1FK      0.022600
@<TRIPOS>BOND
     1    1    2 2   
     2    2    3 1   
     3    2    4 1   
     4    3   20 1   
     5    3   21 1   
     6    3   22 1   
     7    4    5 1   
     8    4   13 2   
     9    5    6 1   
    10    5   11 1   
    11    6    7 2   
    12    6   23 1   
    13    7    8 1   
    14    7   24 1   
    15    8    9 1   
    16    8   10 2   
    17    9   25 1   
    18    9   26 1   
    19   10   11 1   
    20   10   27 1   
    21   11   12 2   
    22   12   13 1   
    23   12   14 1   
    24   13   28 1   
    25   14   15 ar  
    26   14   19 ar  
    27   15   16 ar  
    28   16   17 ar  
    29   16   29 1   
    30   17   18 ar  
    31   17   30 1   
    32   18   19 ar  
    33   18   31 1   
@<TRIPOS>SUBSTRUCTURE
     1 1FK         1 TEMP              0 ****  ****    0 ROOT
