@<TRIPOS>MOLECULE
1FL
   25    26     1     0     0
SMALL
bcc


@<TRIPOS>ATOM
      1 FAT        -0.0100   -0.1870   -0.0310 f         1 1FL     -0.122900
      2 CAN         1.3410   -0.1200   -0.0050 ca        1 1FL      0.151900
      3 CAM         1.9790   -0.1640    1.2480 ca        1 1FL     -0.212000
      4 CAF         3.3770   -0.0820    1.3130 ca        1 1FL      0.118900
      5 FAE         3.9970   -0.1210    2.5190 f         1 1FL     -0.154900
      6 CAG         4.1370    0.0430    0.1370 ca        1 1FL     -0.184000
      7 CAH         3.4890    0.0800   -1.0910 ca        1 1FL     -0.097000
      8 CAO         2.0930    0.0010   -1.2010 cp        1 1FL     -0.020000
      9 CAP         1.4730    0.0470   -2.5190 cp        1 1FL     -0.149000
     10 CAI         0.4470   -0.8400   -2.8760 ca        1 1FL     -0.032000
     11 CAJ        -0.1170   -0.8300   -4.1510 ca        1 1FL     -0.221600
     12 CAC        -1.2040   -1.8380   -4.4750 c         1 1FL      0.918200
     13 OAD        -1.5240   -2.6800   -3.5940 o         1 1FL     -0.828800
     14 OAB        -1.7430   -1.7930   -5.6250 o         1 1FL     -0.828800
     15 CAQ         1.9300    0.9750   -3.4680 ca        1 1FL     -0.091000
     16 CAR         1.3770    1.0180   -4.7380 ca        1 1FL     -0.216000
     17 CAK         0.3510    0.1130   -5.0880 ca        1 1FL      0.197100
     18 OAL        -0.1200    0.2320   -6.3620 oh        1 1FL     -0.548100
     19 HAM         1.3830   -0.2630    2.1650 ha        1 1FL      0.153000
     20 HAG         5.2310    0.1030    0.1990 ha        1 1FL      0.138000
     21 HAH         4.0850    0.1670   -2.0140 ha        1 1FL      0.144000
     22 HAI         0.0620   -1.5770   -2.1480 ha        1 1FL      0.163000
     23 HAQ         2.7280    1.6830   -3.1990 ha        1 1FL      0.108000
     24 HAR         1.7230    1.7470   -5.4820 ha        1 1FL      0.127000
     25 HAL        -0.8320   -0.4320   -6.5060 ho        1 1FL      0.487000
@<TRIPOS>BOND
     1    1    2 1   
     2    2    3 ar  
     3    2    8 ar  
     4    3    4 ar  
     5    3   19 1   
     6    4    5 1   
     7    4    6 ar  
     8    6    7 ar  
     9    6   20 1   
    10    7    8 ar  
    11    7   21 1   
    12    8    9 1   
    13    9   10 ar  
    14    9   15 ar  
    15   10   11 ar  
    16   10   22 1   
    17   11   12 1   
    18   11   17 ar  
    19   12   13 1   
    20   12   14 1   
    21   15   16 ar  
    22   15   23 1   
    23   16   17 ar  
    24   16   24 1   
    25   17   18 1   
    26   18   25 1   
@<TRIPOS>SUBSTRUCTURE
     1 1FL         1 TEMP              0 ****  ****    0 ROOT
