@<TRIPOS>MOLECULE
1FL
   25    26     1     0     0
SMALL
bcc


@<TRIPOS>ATOM
      1 FAT        -0.0070   -0.2080   -0.0290 f         1 1FL     -0.122900
      2 CAN         1.3430   -0.1310   -0.0050 ca        1 1FL      0.151900
      3 CAM         1.9830   -0.1750    1.2470 ca        1 1FL     -0.212000
      4 CAF         3.3800   -0.0810    1.3120 ca        1 1FL      0.118900
      5 FAE         4.0020   -0.1210    2.5170 f         1 1FL     -0.154900
      6 CAG         4.1370    0.0550    0.1350 ca        1 1FL     -0.184000
      7 CAH         3.4880    0.0920   -1.0920 ca        1 1FL     -0.097000
      8 CAO         2.0920    0.0020   -1.2000 cp        1 1FL     -0.020000
      9 CAP         1.4710    0.0480   -2.5180 cp        1 1FL     -0.149000
     10 CAI         0.4520   -0.8460   -2.8780 ca        1 1FL     -0.032000
     11 CAJ        -0.1130   -0.8350   -4.1520 ca        1 1FL     -0.221600
     12 CAC        -1.1920   -1.8510   -4.4790 c         1 1FL      0.918200
     13 OAD        -1.5040   -2.6980   -3.6020 o         1 1FL     -0.828800
     14 OAB        -1.7330   -1.8050   -5.6290 o         1 1FL     -0.828800
     15 CAQ         1.9190    0.9850   -3.4630 ca        1 1FL     -0.091000
     16 CAR         1.3640    1.0280   -4.7320 ca        1 1FL     -0.216000
     17 CAK         0.3460    0.1160   -5.0860 ca        1 1FL      0.197100
     18 OAL        -0.1280    0.2360   -6.3590 oh        1 1FL     -0.548100
     19 HAM         1.3880   -0.2820    2.1640 ha        1 1FL      0.153000
     20 HAG         5.2310    0.1240    0.1960 ha        1 1FL      0.138000
     21 HAH         4.0820    0.1880   -2.0150 ha        1 1FL      0.144000
     22 HAI         0.0730   -1.5880   -2.1530 ha        1 1FL      0.163000
     23 HAQ         2.7110    1.6980   -3.1920 ha        1 1FL      0.108000
     24 HAR         1.7040    1.7630   -5.4730 ha        1 1FL      0.127000
     25 HAL        -0.8340   -0.4320   -6.5050 ho        1 1FL      0.487000
@<TRIPOS>BOND
     1    1    2 1   
     2    2    3 ar  
     3    2    8 ar  
     4    3    4 ar  
     5    3   19 1   
     6    4    5 1   
     7    4    6 ar  
     8    6    7 ar  
     9    6   20 1   
    10    7    8 ar  
    11    7   21 1   
    12    8    9 1   
    13    9   10 ar  
    14    9   15 ar  
    15   10   11 ar  
    16   10   22 1   
    17   11   12 1   
    18   11   17 ar  
    19   12   13 1   
    20   12   14 1   
    21   15   16 ar  
    22   15   23 1   
    23   16   17 ar  
    24   16   24 1   
    25   17   18 1   
    26   18   25 1   
@<TRIPOS>SUBSTRUCTURE
     1 1FL         1 TEMP              0 ****  ****    0 ROOT
