@<TRIPOS>MOLECULE
1FL
   25    20     1     0     0
SMALL
bcc


@<TRIPOS>ATOM
      1 FAT        -1.2900    0.8940    2.1320 f         1 1FL     -0.105000
      2 CAN         0.0020    0.5470    2.1910 c2        1 1FL      0.100000
      3 CAM         0.6690    0.5620    3.4060 c2        1 1FL     -0.212000
      4 CAF         2.0130    0.2290    3.4630 c1        1 1FL      0.081000
      5 FAE         2.6620    0.2630    4.6340 f         1 1FL     -0.120000
      6 CAG         2.6910   -0.1190    2.3050 c2        1 1FL     -0.177000
      7 CAH         2.0240   -0.1340    1.0900 c1        1 1FL     -0.090000
      8 CAO         0.6790    0.1980    1.0330 c1        1 1FL     -0.016000
      9 CAP         0.0200    0.2120   -0.1860 c1        1 1FL     -0.148000
     10 CAI        -0.6950   -0.9010   -0.6000 c1        1 1FL     -0.043000
     11 CAJ        -1.3900   -0.8720   -1.7990 c1        1 1FL     -0.204000
     12 CAC        -2.2010   -2.0740   -2.2320 c2        1 1FL      0.367000
     13 OAD        -1.6860   -2.9430   -2.9830 o         1 1FL     -0.565000
     14 OAB        -3.3970   -2.1950   -1.8570 o         1 1FL     -0.565000
     15 CAQ         0.0400    1.3540   -0.9720 c1        1 1FL     -0.147500
     16 CAR        -0.6550    1.3830   -2.1710 c1        1 1FL     -0.147500
     17 CAK        -1.3700    0.2700   -2.5840 c1        1 1FL      0.153000
     18 OAL        -2.0970    0.3090   -3.7880 oh        1 1FL     -0.300000
     19 HAM         0.1940    0.8150    4.2200 ha        1 1FL      0.149000
     20 HAG         3.6370   -0.3530    2.3450 ha        1 1FL      0.143000
     21 HAH         2.5010   -0.3790    0.2740 ha        1 1FL      0.160000
     22 HAI        -0.7070   -1.7060   -0.0490 ha        1 1FL      0.156000
     23 HAQ         0.5430    2.1380   -0.6800 ha        1 1FL      0.122500
     24 HAR        -0.6530    2.1920   -2.7160 ha        1 1FL      0.122500
     25 HAL        -1.5330    0.3080   -4.4750 ho        1 1FL      0.285000
@<TRIPOS>BOND
     1    1    2 1   
     2    2    3 1   
     3    2    8 1   
     4    3    4 1   
     5    3   19 1   
     6    4    6 1   
     7    6    7 1   
     8    6   20 1   
     9    7   21 1   
    10    9   10 1   
    11   10   22 1   
    12   11   12 1   
    13   11   17 1   
    14   12   13 1   
    15   12   14 1   
    16   15   16 1   
    17   15   23 1   
    18   16   24 1   
    19   17   18 1   
    20   18   25 1   
@<TRIPOS>SUBSTRUCTURE
     1 1FL         1 TEMP              0 ****  ****    0 ROOT
