@<TRIPOS>MOLECULE
1FL
   25    26     1     0     0
SMALL
bcc


@<TRIPOS>ATOM
      1 FAT         9.8130    2.1130  -15.9180 f         1 1FL     -0.122900
      2 CAN         9.6380    2.9380  -14.8610 ca        1 1FL      0.154900
      3 CAM        10.7570    3.2220  -14.0550 ca        1 1FL     -0.213000
      4 CAF        10.6100    4.0640  -12.9440 ca        1 1FL      0.121900
      5 FAE        11.6850    4.3390  -12.1630 f         1 1FL     -0.153900
      6 CAG         9.3570    4.6220  -12.6360 ca        1 1FL     -0.185000
      7 CAH         8.2650    4.3320  -13.4440 ca        1 1FL     -0.093000
      8 CAO         8.3690    3.4930  -14.5640 cp        1 1FL     -0.027000
      9 CAP         7.1840    3.2270  -15.3720 cp        1 1FL     -0.117000
     10 CAI         7.2320    3.2760  -16.7760 ca        1 1FL     -0.064000
     11 CAJ         6.0970    3.0690  -17.5540 ca        1 1FL     -0.116600
     12 CAC         6.2110    3.1480  -19.0780 c         1 1FL      0.926200
     13 OAD         6.2230    4.2990  -19.5920 o         1 1FL     -0.816300
     14 OAB         6.3180    2.0650  -19.7110 o         1 1FL     -0.816300
     15 CAQ         5.9650    2.9500  -14.7400 ca        1 1FL     -0.106000
     16 CAR         4.8180    2.7300  -15.4940 ca        1 1FL     -0.244000
     17 CAK         4.8820    2.7960  -16.8950 ca        1 1FL      0.147100
     18 OAL         3.7580    2.6070  -17.6670 oh        1 1FL     -0.466100
     19 HAM        11.7350    2.7860  -14.3000 ha        1 1FL      0.153000
     20 HAG         9.2540    5.2840  -11.7660 ha        1 1FL      0.139000
     21 HAH         7.2850    4.7770  -13.2100 ha        1 1FL      0.145000
     22 HAI         8.1880    3.4860  -17.2820 ha        1 1FL      0.145000
     23 HAQ         5.9140    2.8970  -13.6430 ha        1 1FL      0.108000
     24 HAR         3.8660    2.5060  -14.9950 ha        1 1FL      0.110000
     25 HAL         3.0330    2.3770  -17.0700 ho        1 1FL      0.390000
@<TRIPOS>BOND
     1    1    2 1   
     2    2    3 ar  
     3    2    8 ar  
     4    3    4 ar  
     5    3   19 1   
     6    4    5 1   
     7    4    6 ar  
     8    6    7 ar  
     9    6   20 1   
    10    7    8 ar  
    11    7   21 1   
    12    8    9 1   
    13    9   10 ar  
    14    9   15 ar  
    15   10   11 ar  
    16   10   22 1   
    17   11   12 1   
    18   11   17 ar  
    19   12   13 1   
    20   12   14 1   
    21   15   16 ar  
    22   15   23 1   
    23   16   17 ar  
    24   16   24 1   
    25   17   18 1   
    26   18   25 1   
@<TRIPOS>SUBSTRUCTURE
     1 1FL         1 TEMP              0 ****  ****    0 ROOT
