@<TRIPOS>MOLECULE
1FM
   48    49     1     0     0
SMALL
bcc


@<TRIPOS>ATOM
      1 C2         -0.1830    0.4890    0.1260 ca        1 1FM     -0.177600
      2 C3          1.2210    0.3580    0.0710 ca        1 1FM      0.053200
      3 C11        -0.8280    0.4480    1.3720 ca        1 1FM      0.208100
      4 C14         1.9510    0.1770    1.2440 ca        1 1FM     -0.192000
      5 C15         1.2840    0.1360    2.4840 ca        1 1FM      0.186100
      6 O15        -1.7170   -0.4440   -1.4010 os        1 1FM     -0.424900
      7 C16        -0.1030    0.2750    2.5630 ca        1 1FM     -0.301000
      8 C17         2.9240   -0.3430   -1.5810 c2        1 1FM     -0.142200
      9 C18        -1.4790   -1.0230   -3.7650 c3        1 1FM     -0.100200
     10 C23         1.8930    0.4320   -1.2200 ce        1 1FM     -0.133200
     11 C24         3.5920   -1.5710   -3.6540 c3        1 1FM      0.114100
     12 C26        -0.9500    0.6500   -1.1270 c         1 1FM      0.683700
     13 C31        -2.4190   -0.5840   -2.6460 c3        1 1FM      0.165100
     14 C34         3.5750   -0.2360   -2.9080 c3        1 1FM     -0.094200
     15 O38        -0.9410    1.6130   -1.8950 o         1 1FM     -0.549000
     16 C39         2.8680   -1.5110   -5.0170 c3        1 1FM      0.051100
     17 C40         1.3550   -1.5180   -4.8180 c         1 1FM      0.579300
     18 O40         0.7850   -2.6120   -4.7120 o         1 1FM     -0.543100
     19 C41         0.6820   -0.2200   -4.7560 ce        1 1FM     -0.271200
     20 C42        -0.5480    0.0060   -4.2710 c2        1 1FM     -0.063200
     21 O42         4.9290   -1.9360   -3.9840 oh        1 1FM     -0.611800
     22 O44         3.2380   -0.3590   -5.7530 oh        1 1FM     -0.594800
     23 O46        -2.1920    0.6000    1.3760 oh        1 1FM     -0.483100
     24 O48         2.1070   -0.0470    3.5730 os        1 1FM     -0.320900
     25 C59         1.4740   -0.0870    4.8480 c3        1 1FM      0.111700
     26 C62        -3.3040    0.5920   -2.9860 c3        1 1FM     -0.126100
     27 H14         3.0450    0.0740    1.2160 ha        1 1FM      0.158000
     28 H16        -0.6310    0.2500    3.5250 ha        1 1FM      0.145000
     29 H17         3.3390   -1.1050   -0.9010 ha        1 1FM      0.124000
     30 H18        -0.9060   -1.9230   -3.4030 hc        1 1FM      0.083200
     31 H18A       -2.1160   -1.3670   -4.6280 hc        1 1FM      0.083200
     32 H23         1.4710    1.1810   -1.9170 ha        1 1FM      0.158000
     33 H24         3.1210   -2.3860   -3.0360 h1        1 1FM      0.060700
     34 H31        -3.0810   -1.4740   -2.4000 h1        1 1FM      0.072700
     35 H34         3.0590    0.5340   -3.5460 hc        1 1FM      0.072700
     36 H34A        4.6330    0.1190   -2.7640 hc        1 1FM      0.072700
     37 H39         3.1560   -2.4340   -5.6030 h1        1 1FM      0.078700
     38 H41         1.2850    0.6240   -5.1390 ha        1 1FM      0.158000
     39 H42        -0.9220    1.0480   -4.2310 ha        1 1FM      0.148000
     40 HO42        5.3950   -2.0820   -3.1530 ho        1 1FM      0.409000
     41 HO44        4.2020   -0.3820   -5.8160 ho        1 1FM      0.422000
     42 HO46       -2.5030    0.5230    2.2910 ho        1 1FM      0.425000
     43 H59         0.7570   -0.9430    4.9040 h1        1 1FM      0.048367
     44 H59A        0.9530    0.8780    5.0590 h1        1 1FM      0.048367
     45 H59B        2.3280   -0.2390    5.5550 h1        1 1FM      0.048367
     46 H62        -2.7140    1.4790   -3.3210 hc        1 1FM      0.054367
     47 H62A       -3.8950    0.8900   -2.0860 hc        1 1FM      0.054367
     48 H62B       -4.0070    0.2980   -3.8020 hc        1 1FM      0.054367
@<TRIPOS>BOND
     1    1    2 ar  
     2    1    3 ar  
     3    1   12 1   
     4    2    4 ar  
     5    2   10 1   
     6    3    7 ar  
     7    3   23 1   
     8    4    5 ar  
     9    4   27 1   
    10    5    7 ar  
    11    5   24 1   
    12    6   12 1   
    13    6   13 1   
    14    7   28 1   
    15    8   10 2   
    16    8   14 1   
    17    8   29 1   
    18    9   13 1   
    19    9   20 1   
    20    9   30 1   
    21    9   31 1   
    22   10   32 1   
    23   11   14 1   
    24   11   16 1   
    25   11   21 1   
    26   11   33 1   
    27   12   15 2   
    28   13   26 1   
    29   13   34 1   
    30   14   35 1   
    31   14   36 1   
    32   16   17 1   
    33   16   22 1   
    34   16   37 1   
    35   17   18 2   
    36   17   19 1   
    37   19   20 2   
    38   19   38 1   
    39   20   39 1   
    40   21   40 1   
    41   22   41 1   
    42   23   42 1   
    43   24   25 1   
    44   25   43 1   
    45   25   44 1   
    46   25   45 1   
    47   26   46 1   
    48   26   47 1   
    49   26   48 1   
@<TRIPOS>SUBSTRUCTURE
     1 1FM         1 TEMP              0 ****  ****    0 ROOT
