@<TRIPOS>MOLECULE
1FM
   48    49     1     0     0
SMALL
bcc


@<TRIPOS>ATOM
      1 C2         -1.5780    0.5580    0.3940 ca        1 1FM     -0.251600
      2 C3         -1.5560   -0.8520    0.5280 ca        1 1FM      0.064200
      3 C11        -2.8120    1.1960    0.1690 ca        1 1FM      0.236100
      4 C14        -2.7250   -1.5930    0.4090 ca        1 1FM     -0.199000
      5 C15        -3.9500   -0.9320    0.1750 ca        1 1FM      0.192100
      6 O15        -0.2750    2.4070   -0.3190 os        1 1FM     -0.470900
      7 C16        -4.0080    0.4550    0.0630 ca        1 1FM     -0.264000
      8 C17         0.2430   -2.4620    0.0130 c2        1 1FM     -0.141200
      9 C18         2.0280    2.5250   -1.1420 c3        1 1FM     -0.088200
     10 C23        -0.3000   -1.5420    0.8160 ce        1 1FM     -0.139200
     11 C24         2.6520   -2.6480   -0.5930 c3        1 1FM      0.121100
     12 C26        -0.3050    1.2870    0.4710 c         1 1FM      0.673700
     13 C31         0.8970    3.2400   -0.4060 c3        1 1FM      0.174100
     14 C34         1.5240   -3.1470    0.3120 c3        1 1FM     -0.090200
     15 O38         0.7010    1.0040    1.1290 o         1 1FM     -0.556000
     16 C39         3.4590   -1.4640   -0.0160 c3        1 1FM      0.049100
     17 C40         3.3690   -0.2200   -0.8950 c         1 1FM      0.543300
     18 O40         3.0030   -0.2700   -2.0740 o         1 1FM     -0.529100
     19 C41         3.8020    1.0120   -0.2190 ce        1 1FM     -0.248200
     20 C42         3.2110    2.2070   -0.3110 c2        1 1FM     -0.081200
     21 O42         3.6160   -3.6820   -0.7750 oh        1 1FM     -0.599800
     22 O44         3.1340   -1.1630    1.3230 oh        1 1FM     -0.582800
     23 O46        -2.9920    2.5470    0.0570 oh        1 1FM     -0.496100
     24 O48        -5.0420   -1.7620    0.0760 os        1 1FM     -0.318900
     25 C59        -6.2980   -1.1320   -0.1600 c3        1 1FM      0.109700
     26 C62         1.2640    3.8310    0.9370 c3        1 1FM     -0.131100
     27 H14        -2.7110   -2.6880    0.5010 ha        1 1FM      0.161000
     28 H16        -4.9480    0.9950   -0.1090 ha        1 1FM      0.162000
     29 H17        -0.2410   -2.7530   -0.9340 ha        1 1FM      0.128000
     30 H18         1.6130    1.5920   -1.6160 hc        1 1FM      0.077700
     31 H18A        2.3720    3.1900   -1.9830 hc        1 1FM      0.077700
     32 H23         0.1880   -1.2290    1.7590 ha        1 1FM      0.157000
     33 H24         2.2300   -2.3590   -1.5990 h1        1 1FM      0.063700
     34 H31         0.4990    4.0620   -1.0780 h1        1 1FM      0.071700
     35 H34         1.8180   -3.0200    1.3880 hc        1 1FM      0.068200
     36 H34A        1.3910   -4.2510    0.1410 hc        1 1FM      0.068200
     37 H39         4.5490   -1.7740    0.0270 h1        1 1FM      0.115700
     38 H41         4.6730    0.8690    0.4450 ha        1 1FM      0.151000
     39 H42         3.6210    3.0550    0.2670 ha        1 1FM      0.126000
     40 HO42        3.1880   -4.3790   -1.2850 ho        1 1FM      0.402000
     41 HO44        2.2750   -0.7130    1.3270 ho        1 1FM      0.423000
     42 HO46       -2.1420    3.0060    0.1290 ho        1 1FM      0.447000
     43 H59        -6.2840   -0.5790   -1.1300 h1        1 1FM      0.050700
     44 H59A       -7.0130   -1.9920   -0.2040 h1        1 1FM      0.050700
     45 H59B       -6.5560   -0.4450    0.6820 h1        1 1FM      0.050700
     46 H62         1.6760    3.0510    1.6220 hc        1 1FM      0.056033
     47 H62A        2.0260    4.6350    0.7950 hc        1 1FM      0.056033
     48 H62B        0.3570    4.2760    1.4140 hc        1 1FM      0.056033
@<TRIPOS>BOND
     1    1    2 ar  
     2    1    3 ar  
     3    1   12 1   
     4    2    4 ar  
     5    2   10 1   
     6    3    7 ar  
     7    3   23 1   
     8    4    5 ar  
     9    4   27 1   
    10    5    7 ar  
    11    5   24 1   
    12    6   12 1   
    13    6   13 1   
    14    7   28 1   
    15    8   10 2   
    16    8   14 1   
    17    8   29 1   
    18    9   13 1   
    19    9   20 1   
    20    9   30 1   
    21    9   31 1   
    22   10   32 1   
    23   11   14 1   
    24   11   16 1   
    25   11   21 1   
    26   11   33 1   
    27   12   15 2   
    28   13   26 1   
    29   13   34 1   
    30   14   35 1   
    31   14   36 1   
    32   16   17 1   
    33   16   22 1   
    34   16   37 1   
    35   17   18 2   
    36   17   19 1   
    37   19   20 2   
    38   19   38 1   
    39   20   39 1   
    40   21   40 1   
    41   22   41 1   
    42   23   42 1   
    43   24   25 1   
    44   25   43 1   
    45   25   44 1   
    46   25   45 1   
    47   26   46 1   
    48   26   47 1   
    49   26   48 1   
@<TRIPOS>SUBSTRUCTURE
     1 1FM         1 TEMP              0 ****  ****    0 ROOT
