@<TRIPOS>MOLECULE
1FM
   48    49     1     0     0
SMALL
bcc


@<TRIPOS>ATOM
      1 C2         -0.1690    0.4990    0.1290 ca        1 1FM     -0.177600
      2 C3          1.2340    0.3660    0.0630 ca        1 1FM      0.053200
      3 C11        -0.8040    0.4630    1.3810 ca        1 1FM      0.208100
      4 C14         1.9740    0.1890    1.2300 ca        1 1FM     -0.192000
      5 C15         1.3180    0.1540    2.4760 ca        1 1FM      0.186100
      6 O15        -1.7160   -0.4400   -1.3810 os        1 1FM     -0.424900
      7 C16        -0.0690    0.2950    2.5660 ca        1 1FM     -0.301000
      8 C17         2.9220   -0.3450   -1.6000 c2        1 1FM     -0.142200
      9 C18        -1.5000   -1.0290   -3.7440 c3        1 1FM     -0.100200
     10 C23         1.8960    0.4330   -1.2340 ce        1 1FM     -0.133200
     11 C24         3.5710   -1.5830   -3.6740 c3        1 1FM      0.114100
     12 C26        -0.9460    0.6540   -1.1170 c         1 1FM      0.683700
     13 C31        -2.4290   -0.5840   -2.6190 c3        1 1FM      0.165100
     14 C34         3.5620   -0.2430   -2.9330 c3        1 1FM     -0.094200
     15 O38        -0.9440    1.6140   -1.8900 o         1 1FM     -0.549000
     16 C39         2.8360   -1.5270   -5.0310 c3        1 1FM      0.051100
     17 C40         1.3240   -1.5310   -4.8200 c         1 1FM      0.579300
     18 O40         0.7540   -2.6240   -4.7050 o         1 1FM     -0.543100
     19 C41         0.6540   -0.2320   -4.7570 ce        1 1FM     -0.271200
     20 C42        -0.5720   -0.0030   -4.2630 c2        1 1FM     -0.063200
     21 O42         4.9050   -1.9510   -4.0130 oh        1 1FM     -0.611800
     22 O44         3.2010   -0.3780   -5.7750 oh        1 1FM     -0.594800
     23 O46        -2.1680    0.6170    1.3960 oh        1 1FM     -0.483100
     24 O48         2.1500   -0.0250    3.5590 os        1 1FM     -0.320900
     25 C59         1.5280   -0.0580    4.8390 c3        1 1FM      0.111700
     26 C62        -3.3170    0.5910   -2.9560 c3        1 1FM     -0.126100
     27 H14         3.0680    0.0850    1.1940 ha        1 1FM      0.158000
     28 H16        -0.5880    0.2750    3.5330 ha        1 1FM      0.145000
     29 H17         3.3420   -1.1040   -0.9200 ha        1 1FM      0.124000
     30 H18        -2.1440   -1.3750   -4.6010 hc        1 1FM      0.083200
     31 H18A       -0.9240   -1.9290   -3.3840 hc        1 1FM      0.083200
     32 H23         1.4680    1.1800   -1.9310 ha        1 1FM      0.158000
     33 H24         3.1040   -2.3940   -3.0490 h1        1 1FM      0.060700
     34 H31        -3.0900   -1.4730   -2.3630 h1        1 1FM      0.072700
     35 H34         4.6220    0.1110   -2.8000 hc        1 1FM      0.072700
     36 H34A        3.0410    0.5240   -3.5700 hc        1 1FM      0.072700
     37 H39         3.1180   -2.4520   -5.6150 h1        1 1FM      0.078700
     38 H41         1.2540    0.6100   -5.1480 ha        1 1FM      0.158000
     39 H42        -0.9440    1.0400   -4.2230 ha        1 1FM      0.148000
     40 HO42        5.3770   -2.0930   -3.1850 ho        1 1FM      0.409000
     41 HO44        4.1650   -0.4020   -5.8460 ho        1 1FM      0.422000
     42 HO46       -2.4700    0.5440    2.3140 ho        1 1FM      0.425000
     43 H59         0.8110   -0.9120    4.9060 h1        1 1FM      0.048367
     44 H59A        1.0090    0.9080    5.0500 h1        1 1FM      0.048367
     45 H59B        2.3880   -0.2070    5.5400 h1        1 1FM      0.048367
     46 H62        -2.7290    1.4750   -3.3000 hc        1 1FM      0.054367
     47 H62A       -4.0270    0.2940   -3.7650 hc        1 1FM      0.054367
     48 H62B       -3.8990    0.8930   -2.0520 hc        1 1FM      0.054367
@<TRIPOS>BOND
     1    1    2 ar  
     2    1    3 ar  
     3    1   12 1   
     4    2    4 ar  
     5    2   10 1   
     6    3    7 ar  
     7    3   23 1   
     8    4    5 ar  
     9    4   27 1   
    10    5    7 ar  
    11    5   24 1   
    12    6   12 1   
    13    6   13 1   
    14    7   28 1   
    15    8   10 2   
    16    8   14 1   
    17    8   29 1   
    18    9   13 1   
    19    9   20 1   
    20    9   30 1   
    21    9   31 1   
    22   10   32 1   
    23   11   14 1   
    24   11   16 1   
    25   11   21 1   
    26   11   33 1   
    27   12   15 2   
    28   13   26 1   
    29   13   34 1   
    30   14   35 1   
    31   14   36 1   
    32   16   17 1   
    33   16   22 1   
    34   16   37 1   
    35   17   18 2   
    36   17   19 1   
    37   19   20 2   
    38   19   38 1   
    39   20   39 1   
    40   21   40 1   
    41   22   41 1   
    42   23   42 1   
    43   24   25 1   
    44   25   43 1   
    45   25   44 1   
    46   25   45 1   
    47   26   46 1   
    48   26   47 1   
    49   26   48 1   
@<TRIPOS>SUBSTRUCTURE
     1 1FM         1 TEMP              0 ****  ****    0 ROOT
