@<TRIPOS>MOLECULE
1FM
   48    45     1     0     0
SMALL
bcc


@<TRIPOS>ATOM
      1 C2         -0.2250    1.6560    0.9600 c1        1 1FM     -0.159000
      2 C3          1.2030    1.6330    0.8640 c1        1 1FM      0.074000
      3 C11        -0.8300    1.6730    2.1950 c1        1 1FM      0.161000
      4 C14         1.9680    1.6280    2.0080 c1        1 1FM     -0.200000
      5 C15         1.3520    1.6460    3.2600 c1        1 1FM      0.142000
      6 O15        -1.3800    0.5010   -0.9680 os        1 1FM     -0.275000
      7 C16        -0.0520    1.6680    3.3550 c1        1 1FM     -0.306000
      8 C17         2.1870    0.4700   -1.2700 c1        1 1FM     -0.102000
      9 C18        -2.7610   -1.3990   -0.5620 c3        1 1FM     -0.156000
     10 C23         1.8710    1.7290   -0.4920 c2        1 1FM     -0.167000
     11 C24         2.2240   -1.9660   -1.6780 c3        1 1FM      0.010000
     12 C26        -1.0670    1.6940   -0.2950 c2        1 1FM      0.372000
     13 C31        -2.6910    0.1090   -0.6430 c3        1 1FM      0.050000
     14 C34         1.7880   -0.8800   -0.7180 c2        1 1FM     -0.142000
     15 O38        -1.4620    2.7570   -0.7290 o         1 1FM     -0.344000
     16 C39         1.0450   -2.4010   -2.5150 c3        1 1FM     -0.046000
     17 C40        -0.1740   -2.5430   -1.6330 c2        1 1FM      0.275000
     18 O40        -0.1220   -3.2250   -0.6300 o         1 1FM     -0.302000
     19 C41        -1.4190   -2.5550   -2.4920 c2        1 1FM     -0.221000
     20 C42        -2.7120   -1.9810   -1.9570 c2        1 1FM     -0.079000
     21 O42         3.2390   -1.4690   -2.5180 oh        1 1FM     -0.326000
     22 O44         0.7940   -1.4370   -3.5110 oh        1 1FM     -0.326000
     23 O46        -2.2320    1.7490    2.2900 oh        1 1FM     -0.232000
     24 O48         2.1230    2.3930    4.1690 os        1 1FM     -0.203000
     25 C59         2.3410    1.7430    5.4020 c3        1 1FM     -0.078000
     26 C62        -3.6440    0.6020   -1.7090 c3        1 1FM     -0.244000
     27 H14         2.9420    1.6130    1.9430 ha        1 1FM      0.162000
     28 H16        -0.4820    1.6800    4.2310 ha        1 1FM      0.144000
     29 H17         2.6790    0.5270   -2.1110 ha        1 1FM      0.137000
     30 H18        -3.5960   -1.6630   -0.1280 hc        1 1FM      0.117000
     31 H18A       -2.0040   -1.7330   -0.0420 hc        1 1FM      0.117000
     32 H23         2.1280    2.6000   -0.8480 ha        1 1FM      0.142000
     33 H24         2.5650   -2.7300   -1.1720 h1        1 1FM      0.098000
     34 H31        -2.9410    0.4940    0.2210 h1        1 1FM      0.105000
     35 H34         0.8170   -0.9130   -0.6070 ha        1 1FM      0.119000
     36 H34A        2.2200   -1.0180    0.1480 ha        1 1FM      0.119000
     37 H39         1.2430   -3.2600   -2.9360 h1        1 1FM      0.096000
     38 H41        -1.3870   -2.9310   -3.3920 ha        1 1FM      0.156000
     39 H42        -3.5160   -1.9890   -2.5110 ha        1 1FM      0.124000
     40 HO42        3.8750   -2.0830   -2.6080 ho        1 1FM      0.203000
     41 HO44        0.9290   -1.7960   -4.3120 ho        1 1FM      0.224000
     42 HO46       -2.4610    2.5060    2.6950 ho        1 1FM      0.224000
     43 H59         1.4840    1.4220    5.7590 h1        1 1FM      0.087333
     44 H59A        2.9460    0.9820    5.2690 h1        1 1FM      0.087333
     45 H59B        2.7430    2.3740    6.0370 h1        1 1FM      0.087333
     46 H62        -3.2010    0.5720   -2.5820 hc        1 1FM      0.091667
     47 H62A       -4.4390    0.0290   -1.7260 hc        1 1FM      0.091667
     48 H62B       -3.9090    1.5230   -1.5090 hc        1 1FM      0.091667
@<TRIPOS>BOND
     1    1    3 1   
     2    1   12 1   
     3    2    4 1   
     4    2   10 1   
     5    3   23 1   
     6    4   27 1   
     7    5    7 1   
     8    5   24 1   
     9    6   12 1   
    10    6   13 1   
    11    7   28 1   
    12    8   10 1   
    13    8   29 1   
    14    9   13 1   
    15    9   20 1   
    16    9   30 1   
    17    9   31 1   
    18   10   32 1   
    19   11   14 1   
    20   11   16 1   
    21   11   21 1   
    22   11   33 1   
    23   12   15 1   
    24   13   26 1   
    25   13   34 1   
    26   14   35 1   
    27   14   36 1   
    28   16   17 1   
    29   16   22 1   
    30   16   37 1   
    31   17   18 1   
    32   17   19 1   
    33   19   20 1   
    34   19   38 1   
    35   20   39 1   
    36   21   40 1   
    37   22   41 1   
    38   23   42 1   
    39   24   25 1   
    40   25   43 1   
    41   25   44 1   
    42   25   45 1   
    43   26   46 1   
    44   26   47 1   
    45   26   48 1   
@<TRIPOS>SUBSTRUCTURE
     1 1FM         1 TEMP              0 ****  ****    0 ROOT
