@<TRIPOS>MOLECULE
1FN
   50    54     1     0     0
SMALL
bcc


@<TRIPOS>ATOM
      1 C13         2.3420   -1.2380    0.3790 ca        1 1FN      0.159900
      2 C18        -2.9370    1.9560    0.2650 cc        1 1FN     -0.291400
      3 C17        -1.4620    1.8830    0.4890 c         1 1FN      0.698300
      4 C20        -3.7810    0.7600    0.2330 c         1 1FN      0.710700
      5 C22        -5.6840    2.2440   -0.1080 cc        1 1FN      0.041600
      6 C23        -4.8850    3.3600   -0.0670 cd        1 1FN     -0.262000
      7 C24        -3.4880    3.2060    0.1260 cd        1 1FN      0.042000
      8 C11         0.5620    0.4380    0.3520 ca        1 1FN      0.101600
      9 C12         0.9850   -0.9080    0.2490 ca        1 1FN     -0.220000
     10 C34        -6.0240   -1.1820    0.8880 ca        1 1FN     -0.093500
     11 C27         7.5690   -1.1710    1.3810 cc        1 1FN     -0.148200
     12 C33        -6.9140   -2.2460    0.8060 ca        1 1FN     -0.158000
     13 C1          6.8830   -0.5530    0.2780 ca        1 1FN     -0.220100
     14 C2          7.8970   -0.2020   -0.7080 ca        1 1FN      0.439800
     15 N3          7.6420    0.4090   -1.9080 nb        1 1FN     -0.692000
     16 C4          6.3540    0.6750   -2.1350 ca        1 1FN      0.443200
     17 C5          5.2790    0.3840   -1.2580 ca        1 1FN     -0.348300
     18 C6          5.5500   -0.2370   -0.0410 ca        1 1FN      0.204100
     19 C8          3.2870   -0.2180    0.6290 ca        1 1FN      0.014100
     20 C9          2.8680    1.1100    0.7360 ca        1 1FN     -0.093000
     21 C10         1.5260    1.4420    0.5970 ca        1 1FN     -0.164000
     22 F14         2.7300   -2.5280    0.2760 f         1 1FN     -0.122900
     23 N15        -0.8030    0.7070    0.1690 n         1 1FN     -0.455100
     24 O19        -0.8660    2.8980    0.9060 o         1 1FN     -0.605100
     25 N21        -5.1760    0.9700    0.0300 n         1 1FN     -0.245200
     26 O25        -3.3750   -0.4110    0.3770 o         1 1FN     -0.646500
     27 C26        -6.0760   -0.1370   -0.0560 ca        1 1FN      0.000600
     28 C28         8.9240   -1.1840    1.0620 cd        1 1FN     -0.121100
     29 N29         9.1360   -0.6010   -0.1920 na        1 1FN     -0.286100
     30 C30        -7.0310   -0.1880   -1.0930 ca        1 1FN     -0.093500
     31 C31        -7.9260   -1.2460   -1.1730 ca        1 1FN     -0.158000
     32 C32        -7.8740   -2.2810   -0.2220 ca        1 1FN      0.135900
     33 F35        -8.7460   -3.3130   -0.2990 f         1 1FN     -0.131900
     34 H22        -6.7810    2.3200   -0.2470 h4        1 1FN      0.166000
     35 H23        -5.3210    4.3620   -0.1740 ha        1 1FN      0.164000
     36 H24        -2.8420    4.1030    0.1720 ha        1 1FN      0.174000
     37 H12         0.2650   -1.7210    0.0660 ha        1 1FN      0.157000
     38 H27         7.1010   -1.5530    2.2840 ha        1 1FN      0.167000
     39 H33        -6.8710   -3.0640    1.5400 ha        1 1FN      0.158000
     40 H4          6.1410    1.1670   -3.1030 h4        1 1FN      0.021100
     41 H5          4.2530    0.6460   -1.5450 ha        1 1FN      0.154000
     42 H9          3.6140    1.8960    0.9330 ha        1 1FN      0.156000
     43 H10         1.2260    2.4990    0.6900 ha        1 1FN      0.180000
     44 HN15       -1.3670   -0.0900   -0.0570 hn        1 1FN      0.348500
     45 H28         9.7690   -1.5670    1.6370 h4        1 1FN      0.168000
     46 HN29       10.0030   -0.4960   -0.6490 hn        1 1FN      0.308700
     47 H30        -7.0740    0.6060   -1.8550 ha        1 1FN      0.156000
     48 H31        -8.6720   -1.2860   -1.9810 ha        1 1FN      0.158000
     49 O7          4.6010   -0.5870    0.9060 os        1 1FN     -0.226200
     50 H34        -5.2590   -1.1760    1.6830 ha        1 1FN      0.156000
@<TRIPOS>BOND
     1    1    9 ar  
     2    1   19 ar  
     3    1   22 1   
     4    2    3 1   
     5    2    4 1   
     6    2    7 2   
     7    3   23 1   
     8    3   24 2   
     9    4   25 1   
    10    4   26 2   
    11    5    6 2   
    12    5   25 1   
    13    5   34 1   
    14    6    7 1   
    15    6   35 1   
    16    7   36 1   
    17    8    9 ar  
    18    8   21 ar  
    19    8   23 1   
    20    9   37 1   
    21   10   12 ar  
    22   10   27 ar  
    23   10   50 1   
    24   11   13 1   
    25   11   28 2   
    26   11   38 1   
    27   12   32 ar  
    28   12   39 1   
    29   13   14 ar  
    30   13   18 ar  
    31   14   15 ar  
    32   14   29 1   
    33   15   16 ar  
    34   16   17 ar  
    35   16   40 1   
    36   17   18 ar  
    37   17   41 1   
    38   18   49 1   
    39   19   20 ar  
    40   19   49 1   
    41   20   21 ar  
    42   20   42 1   
    43   21   43 1   
    44   23   44 1   
    45   25   27 1   
    46   27   30 ar  
    47   28   29 1   
    48   28   45 1   
    49   29   46 1   
    50   30   31 ar  
    51   30   47 1   
    52   31   32 ar  
    53   31   48 1   
    54   32   33 1   
@<TRIPOS>SUBSTRUCTURE
     1 1FN         1 TEMP              0 ****  ****    0 ROOT
