@<TRIPOS>MOLECULE
1FN
   50    39     1     0     0
SMALL
bcc


@<TRIPOS>ATOM
      1 C13        -3.0200   -0.9780   -0.9970 c1        1 1FN      0.113000
      2 C18         2.7600   -0.5790    0.2090 c1        1 1FN     -0.253000
      3 C17         1.2540   -0.4230    0.0770 c1        1 1FN      0.371000
      4 C20         3.6690    0.6050   -0.0460 c2        1 1FN      0.350000
      5 C22         5.6920   -0.8180    0.5150 c1        1 1FN     -0.132000
      6 C23         4.7890   -2.0070    0.7720 c1        1 1FN     -0.132000
      7 C24         3.3310   -1.8600    0.6470 c1        1 1FN      0.042000
      8 C11        -1.0180   -1.3750    0.2710 c1        1 1FN      0.109000
      9 C12        -1.6350   -1.0260   -0.9200 c1        1 1FN     -0.176500
     10 C34         6.9260    1.1560   -1.1490 c1        1 1FN     -0.113000
     11 C27        -7.6070   -1.1150   -1.1940 c1        1 1FN     -0.161000
     12 C33         8.2750    1.3230   -0.8750 c1        1 1FN     -0.176500
     13 C1         -6.9110   -0.0890   -0.5930 c1        1 1FN     -0.143000
     14 C2         -7.6170    1.0700   -0.7850 c1        1 1FN      0.048000
     15 N3         -7.1710    2.2530   -0.2260 n1        1 1FN     -0.166000
     16 C4         -6.0280    2.2690    0.5180 c1        1 1FN     -0.132000
     17 C5         -5.3100    1.0960    0.7150 c1        1 1FN     -0.132000
     18 C6         -5.7490   -0.0730    0.1630 c1        1 1FN      0.158000
     19 O7         -5.1940   -1.3580    0.0040 os        1 1FN     -0.136000
     20 C8         -3.7870   -1.2810    0.1170 c1        1 1FN     -0.034000
     21 C9         -3.1700   -1.6310    1.3090 c1        1 1FN     -0.090000
     22 C10        -1.7850   -1.6780    1.3860 c1        1 1FN     -0.189000
     23 F14        -3.4900   -0.7310   -2.2260 f         1 1FN     -0.091500
     24 N15         0.4000   -1.5390    0.3180 n3        1 1FN     -0.311000
     25 O19         0.7760    0.6650   -0.1670 o         1 1FN     -0.365000
     26 N21         5.1200    0.4560    0.0800 n2        1 1FN     -0.184000
     27 O25         3.1940    1.6800   -0.3530 o         1 1FN     -0.373000
     28 C26         5.9750    1.5510   -0.2200 c2        1 1FN      0.009000
     29 C28        -8.7490   -0.5810   -1.7590 c1        1 1FN     -0.094000
     30 N29        -8.7560    0.7620   -1.5090 n1        1 1FN     -0.200000
     31 C30         6.3740    2.1130    0.9830 c2        1 1FN     -0.073000
     32 C31         7.7230    2.2800    1.2570 c1        1 1FN     -0.158000
     33 C32         8.6730    1.8850    0.3280 c1        1 1FN      0.113000
     34 F35         9.9760    2.0040    0.6120 f         1 1FN     -0.091500
     35 H22         6.6600   -0.9150    0.5990 ha        1 1FN      0.160750
     36 H23         5.1710   -2.8570    1.0630 ha        1 1FN      0.160750
     37 H24         2.7480   -2.6250    0.8120 ha        1 1FN      0.175000
     38 H12        -1.0950   -0.8130   -1.7050 ha        1 1FN      0.174000
     39 H34         6.6460    0.7610   -1.9960 ha        1 1FN      0.145000
     40 H27        -7.3400   -2.0540   -1.2160 DU        1 1FN      0.198000
     41 H33         8.9440    1.0450   -1.5290 ha        1 1FN      0.174000
     42 H4         -5.7140    3.1060    0.9130 ha        1 1FN      0.160750
     43 H5         -4.4920    1.1080    1.2480 ha        1 1FN      0.160750
     44 H9         -3.7100   -1.8440    2.0950 ha        1 1FN      0.155000
     45 H10        -1.3520   -1.9240    2.2250 ha        1 1FN      0.145000
     46 HN15        0.7590   -2.3580    0.4960 hn        1 1FN      0.263000
     47 H28        -9.4420   -1.0810   -2.2340 DU        1 1FN      0.198000
     48 HN29       -9.4000    1.3530   -1.7730 DU        1 1FN      0.198000
     49 H30         5.7050    2.3920    1.6360 ha        1 1FN      0.165000
     50 H31         8.0040    2.6760    2.1040 ha        1 1FN      0.159000
@<TRIPOS>BOND
     1    1    9 1   
     2    1   23 1   
     3    2    4 1   
     4    2    7 1   
     5    3   24 1   
     6    3   25 1   
     7    4   26 1   
     8    4   27 1   
     9    5    6 1   
    10    5   35 1   
    11    6   36 1   
    12    7   37 1   
    13    8   22 1   
    14    8   24 1   
    15    9   38 1   
    16   10   28 1   
    17   10   39 1   
    18   11   13 1   
    19   11   29 1   
    20   12   33 1   
    21   12   41 1   
    22   13   18 1   
    23   14   15 1   
    24   16   17 1   
    25   16   42 1   
    26   17   43 1   
    27   18   19 1   
    28   19   20 1   
    29   20   21 1   
    30   21   44 1   
    31   22   45 1   
    32   24   46 1   
    33   26   28 1   
    34   28   31 1   
    35   29   30 1   
    36   31   32 1   
    37   31   49 1   
    38   32   50 1   
    39   33   34 1   
@<TRIPOS>SUBSTRUCTURE
     1 1FN         1 TEMP              0 ****  ****    0 ROOT
