@<TRIPOS>MOLECULE
1FN
   50    54     1     0     0
SMALL
bcc


@<TRIPOS>ATOM
      1 C13         0.7990   -0.9900   -0.4200 c2        1 1FN     -0.053000
      2 C18         5.7420   -0.5070    3.0270 c3        1 1FN     -0.179000
      3 C17         4.6230   -1.3220    2.3640 c2        1 1FN      0.337000
      4 C20         6.1320    0.6260    2.0750 c2        1 1FN      0.280000
      5 C22         8.3970   -0.2520    2.0750 c2        1 1FN      0.104000
      6 C23         8.1050   -1.1880    3.0420 c2        1 1FN     -0.310000
      7 C24         6.8040   -1.3920    3.5230 c1        1 1FN     -0.020000
      8 C11         2.3220   -1.3210    1.5200 c3        1 1FN     -0.099000
      9 C12         2.0420   -0.7020    0.2040 c1        1 1FN     -0.074000
     10 C34         7.4940    2.8510    0.5490 c2        1 1FN     -0.142000
     11 C27        -3.6130    0.4380    0.3970 c3        1 1FN     -0.143000
     12 C33         7.8520    3.7290   -0.5220 c2        1 1FN     -0.070000
     13 C1         -3.5140   -1.0260    0.6780 c2        1 1FN     -0.169000
     14 C2         -4.7420   -1.4250    1.3530 c2        1 1FN      0.024000
     15 N3         -5.0050   -2.6890    1.7420 n2        1 1FN     -0.080000
     16 C4         -4.0460   -3.6010    1.4590 c2        1 1FN     -0.052000
     17 C5         -2.8310   -3.3280    0.8120 c2        1 1FN     -0.196000
     18 C6         -2.5710   -2.0030    0.4170 c2        1 1FN      0.078000
     19 C8         -0.2650   -1.5070    0.3070 c2        1 1FN      0.057000
     20 C9         -0.1430   -1.7950    1.7620 c3        1 1FN     -0.246000
     21 C10         1.1570   -1.6070    2.3870 c1        1 1FN      0.008000
     22 F14         0.6430   -0.6870   -1.7330 f         1 1FN     -0.077000
     23 N15         3.4050   -0.6720    2.2320 n         1 1FN     -0.313000
     24 O19         4.7790   -2.5020    2.0070 o         1 1FN     -0.336000
     25 N21         7.4630    0.6270    1.5630 n         1 1FN     -0.225000
     26 O25         5.3450    1.5320    1.7720 o         1 1FN     -0.308000
     27 C26         7.8430    1.5280    0.5280 c2        1 1FN      0.004000
     28 C28        -4.9840    0.7470    0.9970 c2        1 1FN     -0.077000
     29 N29        -5.6080   -0.2740    1.5240 n2        1 1FN     -0.074000
     30 C30         8.6110    0.9820   -0.6400 c3        1 1FN     -0.199000
     31 C31         8.9890    1.9020   -1.6950 c1        1 1FN     -0.070000
     32 C32         8.5500    3.2630   -1.6150 c2        1 1FN      0.000000
     33 F35         8.8620    4.1020   -2.6320 f         1 1FN     -0.086000
     34 H22         5.3220   -0.0040    3.9570 hc        1 1FN      0.190000
     35 H23         9.4240   -0.1510    1.6640 h4        1 1FN      0.156000
     36 H24         8.9150   -1.8250    3.4290 ha        1 1FN      0.172000
     37 H12         2.6850   -2.3960    1.2530 h1        1 1FN      0.221000
     38 H27        -2.8090    1.0290    0.9010 hc        1 1FN      0.141000
     39 H33         7.5510    4.7870   -0.4430 ha        1 1FN      0.157000
     40 H4         -2.1110   -4.1290    0.5990 ha        1 1FN      0.162000
     41 H5         -4.2860   -4.6330    1.7800 h4        1 1FN      0.176000
     42 H9         -0.4640   -2.8620    1.9720 hc        1 1FN      0.177500
     43 H10        -0.8760   -1.1440    2.3320 hc        1 1FN      0.177500
     44 HN15        3.4010    0.3250    2.2080 hn        1 1FN      0.249000
     45 H28        -3.5910    0.6580   -0.7000 hc        1 1FN      0.141000
     46 HN29       -5.4110    1.7570    0.9820 h4        1 1FN      0.185000
     47 H30         7.9940    0.1750   -1.1500 hc        1 1FN      0.177500
     48 H31         9.5650    0.4750   -0.3060 hc        1 1FN      0.177500
     49 O7         -1.4440   -1.7100   -0.3600 os        1 1FN     -0.122000
     50 H34         6.8970    3.2810    1.3730 ha        1 1FN      0.167000
@<TRIPOS>BOND
     1    1    9 1   
     2    1   19 1   
     3    1   22 1   
     4    2    3 1   
     5    2    4 1   
     6    2    7 1   
     7    2   34 1   
     8    3   23 1   
     9    3   24 1   
    10    4   25 1   
    11    4   26 1   
    12    5    6 1   
    13    5   25 1   
    14    5   35 1   
    15    6    7 1   
    16    6   36 1   
    17    8    9 1   
    18    8   21 1   
    19    8   23 1   
    20    8   37 1   
    21   10   12 1   
    22   10   27 1   
    23   10   50 1   
    24   11   13 1   
    25   11   28 1   
    26   11   38 1   
    27   11   45 1   
    28   12   32 1   
    29   12   39 1   
    30   13   14 1   
    31   13   18 1   
    32   14   15 1   
    33   14   29 1   
    34   15   16 1   
    35   16   17 1   
    36   16   41 1   
    37   17   18 1   
    38   17   40 1   
    39   18   49 1   
    40   19   20 1   
    41   19   49 1   
    42   20   21 1   
    43   20   42 1   
    44   20   43 1   
    45   23   44 1   
    46   25   27 1   
    47   27   30 1   
    48   28   29 1   
    49   28   46 1   
    50   30   31 1   
    51   30   47 1   
    52   30   48 1   
    53   31   32 1   
    54   32   33 1   
@<TRIPOS>SUBSTRUCTURE
     1 1FN         1 TEMP              0 ****  ****    0 ROOT
