@<TRIPOS>MOLECULE
1FN
   50    54     1     0     0
SMALL
bcc


@<TRIPOS>ATOM
      1 C13         0.8060   -1.0010   -0.4170 c2        1 1FN     -0.053000
      2 C18         5.7460   -0.5150    3.0290 c3        1 1FN     -0.179000
      3 C17         4.6270   -1.3300    2.3670 c2        1 1FN      0.337000
      4 C20         6.1320    0.6210    2.0790 c2        1 1FN      0.280000
      5 C22         8.3980   -0.2520    2.0690 c2        1 1FN      0.104000
      6 C23         8.1110   -1.1910    3.0350 c2        1 1FN     -0.310000
      7 C24         6.8120   -1.3990    3.5200 c1        1 1FN     -0.020000
      8 C11         2.3250   -1.3310    1.5260 c3        1 1FN     -0.099000
      9 C12         2.0480   -0.7140    0.2080 c1        1 1FN     -0.074000
     10 C34         7.4840    2.8530    0.5540 c2        1 1FN     -0.142000
     11 C27        -3.6030    0.4410    0.3870 c3        1 1FN     -0.143000
     12 C33         7.8370    3.7340   -0.5160 c2        1 1FN     -0.070000
     13 C1         -3.5090   -1.0220    0.6730 c2        1 1FN     -0.169000
     14 C2         -4.7390   -1.4140    1.3470 c2        1 1FN      0.024000
     15 N3         -5.0060   -2.6770    1.7400 n2        1 1FN     -0.080000
     16 C4         -4.0500   -3.5930    1.4630 c2        1 1FN     -0.052000
     17 C5         -2.8330   -3.3260    0.8180 c2        1 1FN     -0.196000
     18 C6         -2.5680   -2.0020    0.4170 c2        1 1FN      0.078000
     19 C8         -0.2610   -1.5140    0.3100 c2        1 1FN      0.057000
     20 C9         -0.1420   -1.7980    1.7660 c3        1 1FN     -0.246000
     21 C10         1.1580   -1.6110    2.3920 c1        1 1FN      0.008000
     22 F14         0.6520   -0.7010   -1.7310 f         1 1FN     -0.077000
     23 N15         3.4080   -0.6820    2.2390 ns        1 1FN     -0.313000
     24 O19         4.7840   -2.5090    2.0090 o         1 1FN     -0.336000
     25 N21         7.4610    0.6270    1.5620 n         1 1FN     -0.225000
     26 O25         5.3420    1.5270    1.7810 o         1 1FN     -0.308000
     27 C26         7.8360    1.5300    0.5280 c2        1 1FN      0.004000
     28 C28        -4.9740    0.7570    0.9830 c2        1 1FN     -0.077000
     29 N29        -5.6020   -0.2600    1.5130 n2        1 1FN     -0.074000
     30 C30         8.6000    0.9890   -0.6440 c3        1 1FN     -0.199000
     31 C31         8.9740    1.9120   -1.6980 c1        1 1FN     -0.070000
     32 C32         8.5320    3.2710   -1.6130 c2        1 1FN      0.000000
     33 F35         8.8390    4.1140   -2.6290 f         1 1FN     -0.086000
     34 H22         5.3280   -0.0150    3.9620 hc        1 1FN      0.190000
     35 H23         9.4240   -0.1480    1.6560 h4        1 1FN      0.156000
     36 H24         8.9240   -1.8280    3.4180 ha        1 1FN      0.172000
     37 H12         2.6870   -2.4070    1.2630 h1        1 1FN      0.221000
     38 H27        -2.7980    1.0320    0.8890 hc        1 1FN      0.141000
     39 H33         7.5340    4.7910   -0.4330 ha        1 1FN      0.157000
     40 H4         -2.1150   -4.1300    0.6080 ha        1 1FN      0.161000
     41 H5         -4.2930   -4.6230    1.7880 h4        1 1FN      0.176000
     42 H9         -0.4660   -2.8640    1.9780 hc        1 1FN      0.177500
     43 H10        -0.8740   -1.1440    2.3330 hc        1 1FN      0.177500
     44 HN15        3.4020    0.3160    2.2170 hn        1 1FN      0.249000
     45 H28        -3.5790    0.6570   -0.7110 hc        1 1FN      0.141000
     46 HN29       -5.3980    1.7680    0.9630 h4        1 1FN      0.185000
     47 H30         7.9830    0.1820   -1.1530 hc        1 1FN      0.177500
     48 H31         9.5560    0.4820   -0.3150 hc        1 1FN      0.177500
     49 O7         -1.4380   -1.7160   -0.3590 os        1 1FN     -0.122000
     50 H34         6.8900    3.2800    1.3800 ha        1 1FN      0.167000
@<TRIPOS>BOND
     1    1    9 1   
     2    1   19 1   
     3    1   22 1   
     4    2    3 1   
     5    2    4 1   
     6    2    7 1   
     7    2   34 1   
     8    3   23 1   
     9    3   24 1   
    10    4   25 1   
    11    4   26 1   
    12    5    6 1   
    13    5   25 1   
    14    5   35 1   
    15    6    7 1   
    16    6   36 1   
    17    8    9 1   
    18    8   21 1   
    19    8   23 1   
    20    8   37 1   
    21   10   12 1   
    22   10   27 1   
    23   10   50 1   
    24   11   13 1   
    25   11   28 1   
    26   11   38 1   
    27   11   45 1   
    28   12   32 1   
    29   12   39 1   
    30   13   14 1   
    31   13   18 1   
    32   14   15 1   
    33   14   29 1   
    34   15   16 1   
    35   16   17 1   
    36   16   41 1   
    37   17   18 1   
    38   17   40 1   
    39   18   49 1   
    40   19   20 1   
    41   19   49 1   
    42   20   21 1   
    43   20   42 1   
    44   20   43 1   
    45   23   44 1   
    46   25   27 1   
    47   27   30 1   
    48   28   29 1   
    49   28   46 1   
    50   30   31 1   
    51   30   47 1   
    52   30   48 1   
    53   31   32 1   
    54   32   33 1   
@<TRIPOS>SUBSTRUCTURE
     1 1FN         1 TEMP              0 ****  ****    0 ROOT
