@<TRIPOS>MOLECULE
1FN
   51    56     1     0     0
SMALL
bcc


@<TRIPOS>ATOM
      1 C13        -1.0240    1.2510    0.1710 c2        1 1FN      0.044000
      2 C18         5.1240    1.9320    1.2510 c3        1 1FN     -0.158000
      3 C17         3.9980    1.2360    0.4980 c2        1 1FN      0.352000
      4 C20         6.4610    1.7170    0.5440 c2        1 1FN      0.286000
      5 C22         7.3730    0.9700    2.6750 c2        1 1FN      0.141000
      6 C23         6.1740    1.2020    3.3500 c2        1 1FN     -0.310000
      7 C24         5.0320    1.5850    2.6790 c1        1 1FN     -0.161000
      8 C11         1.6170    0.7200    0.5830 cx        1 1FN      0.156000
      9 C12         0.2300    1.2480    0.7300 cu        1 1FN     -0.035000
     10 C34         9.4330    1.6420   -0.1250 c2        1 1FN     -0.102000
     11 C27        -3.2500   -1.6090    2.9920 c2        1 1FN     -0.254000
     12 C33        10.6460    1.2370   -0.7720 c2        1 1FN     -0.089000
     13 C1         -3.9050   -1.9690    1.6880 c3        1 1FN     -0.129000
     14 C2         -3.9810   -3.5320    1.8410 c2        1 1FN     -0.010000
     15 N3         -4.3410   -4.3240    0.7270 n2        1 1FN     -0.036000
     16 C4         -4.0710   -3.8230   -0.4390 c2        1 1FN     -0.028000
     17 C5         -3.4330   -2.5150   -0.6810 c2        1 1FN     -0.119000
     18 C6         -3.3090   -1.6720    0.3680 c2        1 1FN     -0.012000
     19 C8         -1.6020   -0.0550    0.5040 c2        1 1FN      0.239000
     20 C9         -0.5600   -0.9500    1.1320 c3        1 1FN     -0.176000
     21 C10         0.5460    0.0260    1.5080 cx        1 1FN     -0.236000
     22 F14        -1.6290    2.1720   -0.5760 f         1 1FN     -0.014000
     23 N15         2.7510    1.2840    1.1480 n         1 1FN     -0.337000
     24 O19         4.1230    0.6730   -0.5970 o         1 1FN     -0.302000
     25 N21         7.5290    1.1670    1.3330 n         1 1FN     -0.205000
     26 O25         6.6670    2.0530   -0.6220 o         1 1FN     -0.244000
     27 C26         8.7560    0.7910    0.7010 c2        1 1FN     -0.041000
     28 C28        -3.1780   -2.7520    3.7460 c2        1 1FN     -0.069000
     29 N29        -3.6000   -3.9220    3.0500 n2        1 1FN     -0.043000
     30 C30         9.2720   -0.5970    0.9350 c3        1 1FN     -0.198000
     31 C31        10.5130   -0.9750    0.2870 c1        1 1FN     -0.047000
     32 C32        11.1500   -0.0330   -0.5920 c2        1 1FN      0.023000
     33 F35        12.2810   -0.4140   -1.2270 f         1 1FN     -0.071000
     34 H22         4.9330    3.0540    1.1900 hc        1 1FN      0.199000
     35 H23         8.2620    0.5820    3.2180 h4        1 1FN      0.171000
     36 H24         6.1440    1.0360    4.4380 ha        1 1FN      0.179000
     37 H12         1.8170    0.3090   -0.4480 h1        1 1FN      0.195000
     38 H27        -3.0300   -0.5880    3.2910 ha        1 1FN      0.166000
     39 H4         -3.0900   -2.2840   -1.7000 ha        1 1FN      0.182000
     40 H5         -4.3350   -4.4310   -1.3290 h4        1 1FN      0.205000
     41 H9         -0.2050   -1.7160    0.3880 hc        1 1FN      0.183500
     42 H10        -0.9790   -1.4930    2.0230 hc        1 1FN      0.183500
     43 HN15        0.8010    0.0230    2.5860 hc        1 1FN      0.203000
     44 H28        -4.9550   -1.5400    1.7080 hc        1 1FN      0.193000
     45 HN29       -2.8390   -2.8740    4.7820 h4        1 1FN      0.200000
     46 H30         8.5050   -1.3560    0.5810 hc        1 1FN      0.175500
     47 H31         9.4220   -0.7990    2.0390 hc        1 1FN      0.175500
     48 O7         -2.8340   -0.3510    0.1440 os        1 1FN     -0.045000
     49 H34         9.0610    2.6570   -0.3490 ha        1 1FN      0.166000
     50 H152        2.7510    1.5760    2.1100 hn        1 1FN      0.287000
     51 H33        11.1560    1.9720   -1.4170 ha        1 1FN      0.168000
@<TRIPOS>BOND
     1    1    9 1   
     2    1   19 1   
     3    1   22 1   
     4    2    3 1   
     5    2    4 1   
     6    2    7 1   
     7    2   34 1   
     8    3   23 1   
     9    3   24 1   
    10    4   25 1   
    11    4   26 1   
    12    5    6 1   
    13    5   25 1   
    14    5   35 1   
    15    6    7 1   
    16    6   36 1   
    17    8    9 1   
    18    8   21 1   
    19    8   23 1   
    20    8   37 1   
    21    9   21 1   
    22   10   12 1   
    23   10   27 1   
    24   10   49 1   
    25   11   13 1   
    26   11   28 1   
    27   11   38 1   
    28   12   32 1   
    29   12   51 1   
    30   13   14 1   
    31   13   18 1   
    32   13   44 1   
    33   14   15 1   
    34   14   29 1   
    35   15   16 1   
    36   16   17 1   
    37   16   40 1   
    38   17   18 1   
    39   17   39 1   
    40   18   48 1   
    41   19   20 1   
    42   19   48 1   
    43   20   21 1   
    44   20   41 1   
    45   20   42 1   
    46   21   43 1   
    47   23   50 1   
    48   25   27 1   
    49   27   30 1   
    50   28   29 1   
    51   28   45 1   
    52   30   31 1   
    53   30   46 1   
    54   30   47 1   
    55   31   32 1   
    56   32   33 1   
@<TRIPOS>SUBSTRUCTURE
     1 1FN         1 TEMP              0 ****  ****    0 ROOT
