@<TRIPOS>MOLECULE
1FO
   35    33     1     0     0
SMALL
bcc


@<TRIPOS>ATOM
      1 OAA        -1.0930    2.1690    5.2760 o         1 1FO     -0.349000
      2 OAB         3.2770   -1.6380   -4.3470 o         1 1FO     -0.216000
      3 OAC         5.8180   -0.9710    5.9430 os        1 1FO     -0.093000
      4 OAD         4.8040   -2.3860   -2.6820 o         1 1FO     -0.216000
      5 OAE         3.4420   -1.0020   -1.1860 oh        1 1FO     -0.203000
      6 CAG        -0.2420    2.0110    3.0190 c2        1 1FO     -0.194000
      7 CAH         0.9780    1.5840    3.2090 c1        1 1FO     -0.336000
      8 CAI         1.9700    0.3870    0.3210 c1        1 1FO     -0.211000
      9 CAJ         5.8800   -1.3710    7.3200 c1        1 1FO     -0.116000
     10 CAK         1.8710   -0.3990    9.1710 c2        1 1FO     -0.242000
     11 CAL         4.7570   -0.8520    7.9340 c2        1 1FO     -0.435000
     12 CAM         5.0540   -0.6430    3.2880 c2        1 1FO     -0.059000
     13 CAN         2.8060    0.5720    7.0830 c2        1 1FO      0.003000
     14 CAO         3.2110    0.7790    4.0720 c1        1 1FO     -0.526000
     15 NAP         4.5650   -0.9000    2.1430 n2        1 1FO     -0.252000
     16 CAQ        -1.2280    2.2970    4.0520 c2        1 1FO      0.206000
     17 CAR         4.0300   -2.0010   -3.5000 c1        1 1FO      0.433000
     18 CAS         2.6820   -0.2790   -0.3700 c1        1 1FO     -0.122000
     19 CAT         4.7320   -0.2370    5.6980 c2        1 1FO      0.196000
     20 CAU         2.0300    0.6390    8.3240 c2        1 1FO      0.070000
     21 CAV         2.1100    1.1740    3.6980 c1        1 1FO      0.090000
     22 CAW         3.9610   -0.1100    6.9500 c2        1 1FO     -0.119000
     23 CAX         4.5250    0.3360    4.3330 c3        1 1FO      0.084000
     24 HAG         1.3700    0.9640    0.9950 ha        1 1FO      0.281000
     25 HAH        -0.6160    2.1880    1.9930 ha        1 1FO      0.082000
     26 HAI        -2.2080    2.6730    3.6550 h4        1 1FO      0.029000
     27 HAJ         4.4880   -0.9330    8.9800 ha        1 1FO      0.147000
     28 HAK         1.2370   -0.3300   10.0620 ha        1 1FO      0.136000
     29 HAL         2.3660   -1.3610    8.9860 ha        1 1FO      0.136000
     30 HAM         5.9910   -1.1590    3.5870 h4        1 1FO      0.147000
     31 HAN         2.3710    1.1280    6.2220 ha        1 1FO      0.206000
     32 HAO         5.2230    1.2400    4.2990 hc        1 1FO      0.137000
     33 HNAP        3.7110   -0.4280    1.9070 hn        1 1FO      0.168000
     34 H12         4.1330   -1.4030   -0.6200 ho        1 1FO      0.249000
     35 FAF         1.4060    1.8270    8.5520 f         1 1FO     -0.110000
@<TRIPOS>BOND
     1    1   16 1   
     2    2   17 1   
     3    3    9 1   
     4    3   19 1   
     5    4   17 1   
     6    5   18 1   
     7    5   34 1   
     8    6    7 1   
     9    6   16 1   
    10    6   25 1   
    11    7   21 1   
    12    8   18 1   
    13    8   24 1   
    14    9   11 1   
    15   10   20 1   
    16   10   28 1   
    17   10   29 1   
    18   11   22 1   
    19   11   27 1   
    20   12   15 1   
    21   12   23 1   
    22   12   30 1   
    23   13   20 1   
    24   13   22 1   
    25   13   31 1   
    26   14   21 1   
    27   14   23 1   
    28   15   33 1   
    29   16   26 1   
    30   19   22 1   
    31   19   23 1   
    32   20   35 1   
    33   23   32 1   
@<TRIPOS>SUBSTRUCTURE
     1 1FO         1 TEMP              0 ****  ****    0 ROOT
