@<TRIPOS>MOLECULE
1FO
   35    33     1     0     0
SMALL
bcc


@<TRIPOS>ATOM
      1 OAA        -1.1890    1.9000    5.3770 o         1 1FO     -0.349000
      2 OAB         3.1610   -1.6680   -4.3450 o         1 1FO     -0.216000
      3 OAC         5.9400   -0.7460    5.8630 os        1 1FO     -0.093000
      4 OAD         4.7850   -2.2910   -2.7220 o         1 1FO     -0.216000
      5 OAE         3.3750   -0.9910   -1.1960 oh        1 1FO     -0.203000
      6 CAG        -0.3920    1.7870    3.0980 c2        1 1FO     -0.194000
      7 CAH         0.8600    1.4470    3.2550 c1        1 1FO     -0.336000
      8 CAI         1.8520    0.3020    0.3460 c1        1 1FO     -0.211000
      9 CAJ         6.0680   -1.1330    7.2400 c1        1 1FO     -0.116000
     10 CAK         2.0540   -0.4330    9.1970 c2        1 1FO     -0.242000
     11 CAL         4.9290   -0.6900    7.8820 c2        1 1FO     -0.435000
     12 CAM         5.0820   -0.4900    3.2290 c2        1 1FO     -0.059000
     13 CAN         2.8600    0.5890    7.0800 c2        1 1FO      0.003000
     14 CAO         3.1670    0.8050    4.0580 c1        1 1FO     -0.526000
     15 NAP         4.5800   -0.7880    2.0990 n2        1 1FO     -0.252000
     16 CAQ        -1.3660    2.0110    4.1560 c2        1 1FO      0.206000
     17 CAR         3.9620   -1.9690   -3.5190 c1        1 1FO      0.433000
     18 CAS         2.5890   -0.3170   -0.3620 c1        1 1FO     -0.122000
     19 CAT         4.7990   -0.0920    5.6450 c2        1 1FO      0.195000
     20 CAU         2.1160    0.6090    8.3420 c2        1 1FO      0.070000
     21 CAV         2.0300    1.1200    3.7140 c1        1 1FO      0.090000
     22 CAW         4.0560   -0.0120    6.9180 c2        1 1FO     -0.119000
     23 CAX         4.5150    0.4570    4.2840 c3        1 1FO      0.084000
     24 HAG         1.2320    0.8410    1.0340 ha        1 1FO      0.281000
     25 HAH        -0.8060    1.9310    2.0810 ha        1 1FO      0.082000
     26 HAI        -2.3810    2.3150    3.7850 h4        1 1FO      0.029000
     27 HAJ         4.6950   -0.7830    8.9360 ha        1 1FO      0.147000
     28 HAK         1.4410   -0.4030   10.1050 ha        1 1FO      0.136000
     29 HAL         2.6090   -1.3580    9.0020 ha        1 1FO      0.136000
     30 HAM         6.0610   -0.9380    3.5040 h4        1 1FO      0.147000
     31 HAN         2.3630    1.1080    6.2290 ha        1 1FO      0.206000
     32 HAO         5.1470    1.4070    4.2270 hc        1 1FO      0.137000
     33 HNAP        3.6890   -0.3780    1.8860 hn        1 1FO      0.168000
     34 H12         4.1080   -1.3390   -0.6470 ho        1 1FO      0.249000
     35 FAF         1.4170    1.7520    8.5820 f         1 1FO     -0.110000
@<TRIPOS>BOND
     1    1   16 1   
     2    2   17 1   
     3    3    9 1   
     4    3   19 1   
     5    4   17 1   
     6    5   18 1   
     7    5   34 1   
     8    6    7 1   
     9    6   16 1   
    10    6   25 1   
    11    7   21 1   
    12    8   18 1   
    13    8   24 1   
    14    9   11 1   
    15   10   20 1   
    16   10   28 1   
    17   10   29 1   
    18   11   22 1   
    19   11   27 1   
    20   12   15 1   
    21   12   23 1   
    22   12   30 1   
    23   13   20 1   
    24   13   22 1   
    25   13   31 1   
    26   14   21 1   
    27   14   23 1   
    28   15   33 1   
    29   16   26 1   
    30   19   22 1   
    31   19   23 1   
    32   20   35 1   
    33   23   32 1   
@<TRIPOS>SUBSTRUCTURE
     1 1FO         1 TEMP              0 ****  ****    0 ROOT
