@<TRIPOS>MOLECULE
1FO
   35    26     1     0     0
SMALL
bcc


@<TRIPOS>ATOM
      1 OAA        -2.1830   -2.1480   -3.3410 o         1 1FO     -0.345000
      2 OAB         0.1120   -6.3010   -5.5090 o         1 1FO     -0.538000
      3 OAC         2.2780    3.1880    0.8910 o         1 1FO     -0.305000
      4 OAD        -0.9620   -5.2280   -7.0750 o         1 1FO     -0.538000
      5 OAE        -2.5580   -4.5630   -4.4050 oh        1 1FO     -0.250000
      6 FAF         0.9200    2.6620    6.5310 f         1 1FO     -0.109000
      7 CAG        -0.1520   -2.0060   -2.1330 c1        1 1FO     -0.196000
      8 CAH        -0.4070   -0.8140   -1.5580 c1        1 1FO     -0.091000
      9 CAI        -0.4520   -3.4450   -4.3040 c1        1 1FO     -0.370000
     10 CAJ        -0.2970    4.7870    3.9020 c1        1 1FO     -0.117000
     11 CAK        -0.0270    4.2730    5.1600 c1        1 1FO     -0.157000
     12 CAL         0.2400    4.1830    2.7760 c2        1 1FO     -0.105000
     13 CAM         0.2310    0.2460    1.6970 c1        1 1FO     -0.078000
     14 CAN         1.3170    2.5500    4.1680 c1        1 1FO     -0.140000
     15 CAO         1.2070    0.8200   -0.2040 c1        1 1FO     -0.122000
     16 NAP        -0.1350   -0.6660    0.7510 n2        1 1FO     -0.154000
     17 CAQ        -1.0230   -2.5020   -3.2670 c1        1 1FO      0.302000
     18 CAR        -0.6510   -5.3630   -5.8620 c2        1 1FO      0.333000
     19 CAS        -1.2230   -4.4210   -4.8250 c2        1 1FO      0.097000
     20 CAT         1.5220    2.5290    1.5760 c1        1 1FO      0.340000
     21 CAU         0.7800    3.1540    5.2930 c1        1 1FO      0.076000
     22 CAV         0.4630   -0.3190   -0.4240 c1        1 1FO     -0.052000
     23 CAW         1.0470    3.0640    2.9090 c1        1 1FO     -0.104000
     24 CAX         1.0640    1.1670    1.1010 c2        1 1FO     -0.241000
     25 HAG         0.5890   -2.5550   -1.8110 DU        1 1FO      0.168333
     26 HAH        -1.1490   -0.2660   -1.8790 ha        1 1FO      0.161000
     27 HAI         0.4740   -3.3460   -4.5960 ha        1 1FO      0.150000
     28 HAJ        -0.8660    5.5750    3.8080 DU        1 1FO      0.168333
     29 HAK        -0.4230    4.6850    5.9510 ha        1 1FO      0.144000
     30 HAL         0.0500    4.5450    1.8900 ha        1 1FO      0.152000
     31 HAM        -0.0490    0.2460    2.6320 DU        1 1FO      0.168333
     32 HAN         1.8860    1.7620    4.2610 DU        1 1FO      0.168333
     33 HAO         1.7550    1.2840   -0.8650 DU        1 1FO      0.168333
     34 HNAP       -0.6840   -1.3830    0.8820 DU        1 1FO      0.168333
     35 H12        -2.6930   -5.3950   -4.1230 ho        1 1FO      0.247000
@<TRIPOS>BOND
     1    1   17 1   
     2    2   18 1   
     3    3   20 1   
     4    4   18 1   
     5    5   19 1   
     6    5   35 1   
     7    6   21 1   
     8    7    8 1   
     9    7   17 1   
    10    8   26 1   
    11    9   19 1   
    12    9   27 1   
    13   10   11 1   
    14   10   12 1   
    15   11   29 1   
    16   12   23 1   
    17   12   30 1   
    18   13   16 1   
    19   13   24 1   
    20   14   21 1   
    21   14   23 1   
    22   15   22 1   
    23   15   24 1   
    24   16   22 1   
    25   18   19 1   
    26   20   24 1   
@<TRIPOS>SUBSTRUCTURE
     1 1FO         1 TEMP              0 ****  ****    0 ROOT
