@<TRIPOS>MOLECULE
1FO
   35    36     1     0     0
SMALL
bcc


@<TRIPOS>ATOM
      1 OAA        -4.0490   -1.8450    0.6900 o         1 1FO     -0.651100
      2 OAB        -7.3480    2.1400    0.5640 o         1 1FO     -0.789300
      3 OAC         3.9670   -2.6240    0.3770 o         1 1FO     -0.543100
      4 OAD        -7.4330    1.3670   -1.5480 o         1 1FO     -0.789300
      5 OAE        -6.7420   -0.9280    0.4630 oh        1 1FO     -0.478100
      6 CAG        -2.3560   -0.3050    0.0590 ce        1 1FO     -0.210200
      7 CAH        -1.3370   -1.1420    0.3080 cf        1 1FO     -0.071200
      8 CAI        -4.7410    0.3060   -0.0680 ce        1 1FO     -0.473200
      9 CAJ         6.9210    0.1080   -1.0880 ca        1 1FO     -0.117000
     10 CAK         6.9340    1.3380   -0.4360 ca        1 1FO     -0.157000
     11 CAL         5.8720   -0.7880   -0.8910 ca        1 1FO     -0.104000
     12 CAM         1.9320    0.3520   -0.3630 cd        1 1FO     -0.100300
     13 CAN         4.8050    0.7740    0.6230 ca        1 1FO     -0.140000
     14 CAO         1.1620   -1.6750    0.3780 cc        1 1FO     -0.118000
     15 NAP         0.5570    0.4010   -0.3190 na        1 1FO     -0.154100
     16 CAQ        -3.7730   -0.7000    0.2610 c         1 1FO      0.583500
     17 CAR        -7.0610    1.3320   -0.3510 c         1 1FO      0.926800
     18 CAS        -6.1000    0.1750    0.0340 cf        1 1FO      0.183900
     19 CAT         3.7050   -1.4320    0.1580 c         1 1FO      0.620300
     20 CAU         5.8730    1.6690    0.4270 ca        1 1FO      0.111900
     21 CAV         0.0610   -0.8340    0.1360 cd        1 1FO     -0.092100
     22 CAW         4.8100   -0.4520   -0.0430 ca        1 1FO     -0.125600
     23 CAX         2.3510   -0.9280    0.0660 cc        1 1FO     -0.261600
     24 HAG        -2.2070    0.7210   -0.3090 ha        1 1FO      0.118000
     25 HAH        -1.5400   -2.1650    0.6780 ha        1 1FO      0.162000
     26 HAI        -4.3650    1.2710   -0.4360 ha        1 1FO      0.142000
     27 HAJ         7.7500   -0.1590   -1.7600 ha        1 1FO      0.137000
     28 HAK         7.7590    2.0490   -0.5830 ha        1 1FO      0.145000
     29 HAL         5.8730   -1.7700   -1.3900 ha        1 1FO      0.152000
     30 HAM         2.5320    1.2010   -0.6960 h4        1 1FO      0.171000
     31 HAN         3.9820    1.0410    1.3030 ha        1 1FO      0.160000
     32 HAO         1.1330   -2.7010    0.7330 ha        1 1FO      0.170000
     33 HNAP       -0.0070    1.1730   -0.5690 hn        1 1FO      0.306700
     34 H12        -6.1040   -1.6280    0.6930 ho        1 1FO      0.431000
     35 FAF         5.8790    2.8610    1.0740 f         1 1FO     -0.143900
@<TRIPOS>BOND
     1    1   16 2   
     2    2   17 1   
     3    3   19 2   
     4    4   17 1   
     5    5   18 1   
     6    5   34 1   
     7    6    7 2   
     8    6   16 1   
     9    6   24 1   
    10    7   21 1   
    11    7   25 1   
    12    8   16 1   
    13    8   18 2   
    14    8   26 1   
    15    9   10 ar  
    16    9   11 ar  
    17    9   27 1   
    18   10   20 ar  
    19   10   28 1   
    20   11   22 ar  
    21   11   29 1   
    22   12   15 1   
    23   12   23 2   
    24   12   30 1   
    25   13   20 ar  
    26   13   22 ar  
    27   13   31 1   
    28   14   21 2   
    29   14   23 1   
    30   14   32 1   
    31   15   21 1   
    32   15   33 1   
    33   17   18 1   
    34   19   22 1   
    35   19   23 1   
    36   20   35 1   
@<TRIPOS>SUBSTRUCTURE
     1 1FO         1 TEMP              0 ****  ****    0 ROOT
