@<TRIPOS>MOLECULE
1FP
   18    18     1     0     0
SMALL
bcc


@<TRIPOS>ATOM
      1 OAA        -2.6780   -0.3840   -0.4810 o         1 1FP     -0.602100
      2 CAB        -1.8630    0.5210   -0.2370 c         1 1FP      0.655900
      3 CAC         1.6470    1.0050   -0.3790 c3        1 1FP      0.139800
      4 CAD         1.1510   -1.3650   -0.2300 c3        1 1FP      0.139800
      5 CAE         0.3650    1.3270    0.4250 c3        1 1FP      0.086000
      6 CAF        -0.1370   -1.0520    0.5640 c3        1 1FP      0.086000
      7 NAG         2.1540   -0.3250   -0.1130 n3        1 1FP     -0.819200
      8 NAH        -0.6330    0.2880    0.3470 n         1 1FP     -0.478800
      9 HAB        -2.0870    1.5980   -0.4240 h5        1 1FP      0.028200
     10 HACA        2.4420    1.7410   -0.0700 h1        1 1FP      0.036950
     11 HAD         1.5940   -2.3110    0.1910 h1        1 1FP      0.036950
     12 HADA        0.8670   -1.5660   -1.3040 h1        1 1FP      0.036950
     13 HAE         0.6440    1.4600    1.5100 h1        1 1FP      0.061950
     14 HAEA       -0.0510    2.3000    0.0450 h1        1 1FP      0.061950
     15 HAF        -0.9290   -1.7960    0.2690 h1        1 1FP      0.061950
     16 HAFA        0.0760   -1.1690    1.6650 h1        1 1FP      0.061950
     17 HNAG        2.9300   -0.5250   -0.7160 hn        1 1FP      0.367800
     18 HAC         1.4310    1.1720   -1.4750 h1        1 1FP      0.036950
@<TRIPOS>BOND
     1    1    2 2   
     2    2    8 1   
     3    2    9 1   
     4    3    5 1   
     5    3    7 1   
     6    3   10 1   
     7    3   18 1   
     8    4    6 1   
     9    4    7 1   
    10    4   11 1   
    11    4   12 1   
    12    5    8 1   
    13    5   13 1   
    14    5   14 1   
    15    6    8 1   
    16    6   15 1   
    17    6   16 1   
    18    7   17 1   
@<TRIPOS>SUBSTRUCTURE
     1 1FP         1 TEMP              0 ****  ****    0 ROOT
