@<TRIPOS>MOLECULE
1FP
   18    17     1     0     0
SMALL
bcc


@<TRIPOS>ATOM
      1 OAA        -2.3560    0.5290   -1.9970 o         1 1FP     -0.363000
      2 CAB        -1.1390    0.5290   -1.9970 c1        1 1FP      0.257000
      3 CAC        -0.5560   -0.5720    1.3910 c3        1 1FP     -0.097000
      4 CAD         1.5030   -0.5720    0.2030 c3        1 1FP     -0.097000
      5 CAE        -1.0690    0.5290    0.4900 c3        1 1FP     -0.030000
      6 CAF         0.9790    0.5290   -0.6920 c3        1 1FP     -0.030000
      7 NAG         0.8720   -0.5730    1.4870 n3        1 1FP     -0.298000
      8 NAH        -0.4300    0.5290   -0.7680 n2        1 1FP     -0.337000
      9 HAB        -0.6510    0.5520   -2.8420 ha        1 1FP      0.121000
     10 HAC        -0.9320   -0.4520    2.2840 h1        1 1FP      0.076250
     11 HACA       -0.8500   -1.4330    1.0380 h1        1 1FP      0.076250
     12 HAD         2.4640   -0.4520    0.3230 h1        1 1FP      0.076250
     13 HADA        1.3440   -1.4330   -0.2290 h1        1 1FP      0.076250
     14 HAE        -0.9150    1.3900    0.9230 h1        1 1FP      0.101250
     15 HAEA       -2.0290    0.4080    0.3580 h1        1 1FP      0.101250
     16 HAF         1.3440    0.4080   -1.5900 h1        1 1FP      0.101250
     17 HAFA        1.2770    1.3900   -0.3420 h1        1 1FP      0.101250
     18 HNAG        1.1450   -1.3040    1.9590 hn        1 1FP      0.163000
@<TRIPOS>BOND
     1    1    2 1   
     2    2    9 1   
     3    3    5 1   
     4    3    7 1   
     5    3   10 1   
     6    3   11 1   
     7    4    6 1   
     8    4    7 1   
     9    4   12 1   
    10    4   13 1   
    11    5    8 1   
    12    5   14 1   
    13    5   15 1   
    14    6    8 1   
    15    6   16 1   
    16    6   17 1   
    17    7   18 1   
@<TRIPOS>SUBSTRUCTURE
     1 1FP         1 TEMP              0 ****  ****    0 ROOT
