@<TRIPOS>MOLECULE
1FP
   18    18     1     0     0
SMALL
bcc


@<TRIPOS>ATOM
      1 OAA        -0.0440   -0.1790   -0.0760 o         1 1FP     -0.602100
      2 CAB         1.1920   -0.0720   -0.0200 c         1 1FP      0.656900
      3 CAC         3.8260   -1.1190    2.1120 c3        1 1FP      0.139800
      4 CAD         1.7340   -1.0960    3.3420 c3        1 1FP      0.139800
      5 CAE         3.3160    0.0350    1.2180 c3        1 1FP      0.086000
      6 CAF         1.2120    0.0490    2.4460 c3        1 1FP      0.086000
      7 NAG         3.1820   -1.1470    3.4090 n3        1 1FP     -0.819200
      8 NAH         1.8760    0.1220    1.1640 n         1 1FP     -0.478800
      9 HAB         1.8380   -0.0730   -0.9290 h5        1 1FP      0.028200
     10 HACA        3.6990   -2.0890    1.5480 h1        1 1FP      0.036950
     11 HAD         1.3530   -0.9180    4.3860 h1        1 1FP      0.036950
     12 HADA        1.2900   -2.0670    2.9740 h1        1 1FP      0.036950
     13 HAE         3.7070    1.0100    1.6280 h1        1 1FP      0.061950
     14 HAEA        3.7380   -0.1080    0.1850 h1        1 1FP      0.061950
     15 HAF         1.3740    1.0300    2.9770 h1        1 1FP      0.061950
     16 HAFA        0.1070   -0.0970    2.2870 h1        1 1FP      0.061950
     17 HNAG        3.4760   -1.9570    3.9220 hn        1 1FP      0.367800
     18 HAC         4.9280   -0.9620    2.2820 h1        1 1FP      0.036950
@<TRIPOS>BOND
     1    1    2 2   
     2    2    8 1   
     3    2    9 1   
     4    3    5 1   
     5    3    7 1   
     6    3   10 1   
     7    3   18 1   
     8    4    6 1   
     9    4    7 1   
    10    4   11 1   
    11    4   12 1   
    12    5    8 1   
    13    5   13 1   
    14    5   14 1   
    15    6    8 1   
    16    6   15 1   
    17    6   16 1   
    18    7   17 1   
@<TRIPOS>SUBSTRUCTURE
     1 1FP         1 TEMP              0 ****  ****    0 ROOT
