@<TRIPOS>MOLECULE
1FP
   18    18     1     0     0
SMALL
bcc


@<TRIPOS>ATOM
      1 OAA        -0.0490   -0.1660   -0.0680 o         1 1FP     -0.602100
      2 CAB         1.1880   -0.0600   -0.0150 c         1 1FP      0.655900
      3 CAC         3.8260   -1.1210    2.1050 c3        1 1FP      0.139800
      4 CAD         1.7370   -1.1030    3.3400 c3        1 1FP      0.139800
      5 CAE         3.3150    0.0380    1.2180 c3        1 1FP      0.086000
      6 CAF         1.2140    0.0480    2.4520 c3        1 1FP      0.086000
      7 NAG         3.1840   -1.1560    3.4030 n7        1 1FP     -0.819200
      8 NAH         1.8750    0.1270    1.1690 n         1 1FP     -0.478800
      9 HAB         1.8310   -0.0570   -0.9250 h5        1 1FP      0.028200
     10 HACA        3.6960   -2.0880    1.5350 h1        1 1FP      0.036950
     11 HAD         1.2900   -2.0720    2.9680 h1        1 1FP      0.036950
     12 HADA        1.3590   -0.9300    4.3860 h1        1 1FP      0.036950
     13 HAE         3.7080    1.0100    1.6330 h1        1 1FP      0.061950
     14 HAEA        3.7350   -0.1000    0.1840 h1        1 1FP      0.061950
     15 HAF         0.1080   -0.0960    2.2950 h1        1 1FP      0.061950
     16 HAFA        1.3790    1.0250    2.9880 h1        1 1FP      0.061950
     17 HNAG        3.4790   -1.9700    3.9100 hn        1 1FP      0.367800
     18 HAC         4.9280   -0.9670    2.2730 h1        1 1FP      0.036950
@<TRIPOS>BOND
     1    1    2 2   
     2    2    8 1   
     3    2    9 1   
     4    3    5 1   
     5    3    7 1   
     6    3   10 1   
     7    3   18 1   
     8    4    6 1   
     9    4    7 1   
    10    4   11 1   
    11    4   12 1   
    12    5    8 1   
    13    5   13 1   
    14    5   14 1   
    15    6    8 1   
    16    6   15 1   
    17    6   16 1   
    18    7   17 1   
@<TRIPOS>SUBSTRUCTURE
     1 1FP         1 TEMP              0 ****  ****    0 ROOT
