@<TRIPOS>MOLECULE
1FQ
   35    36     1     0     0
SMALL
bcc


@<TRIPOS>ATOM
      1 OAA         4.1930   -1.8900    0.2710 o         1 1FQ     -0.650100
      2 OAB         7.4590    2.0960    0.7340 o         1 1FQ     -0.789300
      3 OAC        -3.8370   -2.6370    0.0260 o         1 1FQ     -0.546100
      4 OAD         7.5350    1.6570   -1.4720 o         1 1FQ     -0.789300
      5 OAE         6.8770   -0.9260    0.1680 oh        1 1FQ     -0.478100
      6 CAG         2.4830   -0.2860   -0.1050 ce        1 1FQ     -0.210200
      7 CAH         1.4720   -1.1520    0.0520 cf        1 1FQ     -0.071200
      8 CAI         4.8620    0.3560   -0.1560 ce        1 1FQ     -0.473200
      9 CAJ        -5.6260    1.6280    0.9400 ca        1 1FQ     -0.178500
     10 CAK        -6.8900    0.2620   -0.6400 ca        1 1FQ     -0.178500
     11 CAL        -4.5810    0.7110    0.8810 ca        1 1FQ     -0.071000
     12 CAM        -5.8390   -0.6480   -0.6770 ca        1 1FQ     -0.071000
     13 CAN        -1.8120    0.4020   -0.3700 cd        1 1FQ     -0.105300
     14 CAO        -1.0270   -1.6910    0.1310 cc        1 1FQ     -0.120000
     15 NAP        -0.4350    0.4460   -0.3610 na        1 1FQ     -0.155100
     16 CAQ         3.9050   -0.6960    0.0220 c         1 1FQ      0.583500
     17 CAR         7.1710    1.4350   -0.2930 c         1 1FQ      0.926800
     18 CAS         6.2230    0.2240   -0.0840 cf        1 1FQ      0.183900
     19 CAT        -3.5760   -1.4240    0.0150 c         1 1FQ      0.621300
     20 CAU        -6.7850    1.4060    0.1720 ca        1 1FQ      0.133900
     21 CAV         0.0700   -0.8300   -0.0520 cd        1 1FQ     -0.092100
     22 CAW        -4.6760   -0.4250    0.0710 ca        1 1FQ     -0.166600
     23 CAX        -2.2220   -0.9160   -0.0630 cc        1 1FQ     -0.258600
     24 HAG         2.3250    0.7780   -0.3370 ha        1 1FQ      0.118000
     25 HAH         1.6820   -2.2140    0.2840 ha        1 1FQ      0.162000
     26 HAI         4.4760    1.3630   -0.3700 ha        1 1FQ      0.142000
     27 HAJ        -5.5580    2.5190    1.5790 ha        1 1FQ      0.148000
     28 HAK        -7.8020    0.0950   -1.2310 ha        1 1FQ      0.148000
     29 HAL        -3.6730    0.8770    1.4840 ha        1 1FQ      0.152500
     30 HAM        -5.9160   -1.5600   -1.2920 ha        1 1FQ      0.152500
     31 HAN        -2.4180    1.2800   -0.6000 h4        1 1FQ      0.170000
     32 HAO        -0.9910   -2.7500    0.3750 ha        1 1FQ      0.170000
     33 HNAP        0.1240    1.2380   -0.5510 hn        1 1FQ      0.305700
     34 H12         6.2470   -1.6590    0.2920 ho        1 1FQ      0.431000
     35 FAF        -7.8040    2.2970    0.2180 f         1 1FQ     -0.144900
@<TRIPOS>BOND
     1    1   16 2   
     2    2   17 1   
     3    3   19 2   
     4    4   17 1   
     5    5   18 1   
     6    5   34 1   
     7    6    7 2   
     8    6   16 1   
     9    6   24 1   
    10    7   21 1   
    11    7   25 1   
    12    8   16 1   
    13    8   18 2   
    14    8   26 1   
    15    9   11 ar  
    16    9   20 ar  
    17    9   27 1   
    18   10   12 ar  
    19   10   20 ar  
    20   10   28 1   
    21   11   22 ar  
    22   11   29 1   
    23   12   22 ar  
    24   12   30 1   
    25   13   15 1   
    26   13   23 2   
    27   13   31 1   
    28   14   21 2   
    29   14   23 1   
    30   14   32 1   
    31   15   21 1   
    32   15   33 1   
    33   17   18 1   
    34   19   22 1   
    35   19   23 1   
    36   20   35 1   
@<TRIPOS>SUBSTRUCTURE
     1 1FQ         1 TEMP              0 ****  ****    0 ROOT
