@<TRIPOS>MOLECULE
1FQ
   35    26     1     0     0
SMALL
bcc


@<TRIPOS>ATOM
      1 OAA        -2.8030   -0.1950   -4.1550 o         1 1FQ     -0.345000
      2 OAB        -0.8200    2.0960   -8.1280 o         1 1FQ     -0.538000
      3 OAC        -0.2010   -2.5840    2.5970 o         1 1FQ     -0.308000
      4 OAD        -1.4410    3.8600   -7.0060 o         1 1FQ     -0.538000
      5 OAE        -3.3030    1.3420   -6.1020 oh        1 1FQ     -0.250000
      6 FAF         3.7280   -1.5100    7.0960 f         1 1FQ     -0.110000
      7 CAG        -1.0350    0.2150   -2.6360 c1        1 1FQ     -0.196000
      8 CAH        -1.6840    0.4150   -1.4720 c1        1 1FQ     -0.091000
      9 CAI        -1.1760    1.2870   -5.0230 c1        1 1FQ     -0.370000
     10 CAJ         1.6330   -1.4540    6.0810 c1        1 1FQ     -0.121500
     11 CAK         3.6070   -1.6250    4.7260 c1        1 1FQ     -0.179000
     12 CAL         0.8630   -1.2990    4.9390 c1        1 1FQ     -0.121500
     13 CAM         2.8370   -1.4700    3.5840 c1        1 1FQ     -0.078000
     14 CAN         0.2660    0.9490    1.5360 c1        1 1FQ     -0.083000
     15 CAO        -0.8030   -0.8110    0.7280 c1        1 1FQ     -0.123000
     16 NAP        -0.2930    1.3130    0.3470 n2        1 1FQ     -0.155000
     17 CAQ        -1.7630    0.3980   -3.9500 c1        1 1FQ      0.302000
     18 CAR        -1.3610    2.6080   -7.1130 c2        1 1FQ      0.333000
     19 CAS        -1.9490    1.7190   -6.0390 c2        1 1FQ      0.097000
     20 CAT         0.3660   -1.5120    2.6710 c1        1 1FQ      0.341000
     21 CAU         3.0050   -1.6160    5.9750 c1        1 1FQ      0.098000
     22 CAV        -0.9540    0.2320   -0.1580 c1        1 1FQ     -0.052000
     23 CAW         1.4650   -1.3070    3.6900 c1        1 1FQ     -0.146000
     24 CAX        -0.0520   -0.3710    1.7700 c2        1 1FQ     -0.238000
     25 HAG        -0.0990   -0.0640   -2.6320 DU        1 1FQ      0.178250
     26 HAH        -2.6190    0.6960   -1.4760 ha        1 1FQ      0.161000
     27 HAI        -0.2360    1.5490   -4.9800 ha        1 1FQ      0.150000
     28 HAJ         1.2080   -1.4480    6.9600 ha        1 1FQ      0.150500
     29 HAK         4.5740   -1.7390    4.6510 ha        1 1FQ      0.148000
     30 HAL        -0.1040   -1.1840    5.0130 ha        1 1FQ      0.150500
     31 HAM         3.2620   -1.4760    2.7050 ha        1 1FQ      0.151000
     32 HAN         0.7970    1.5230    2.1200 DU        1 1FQ      0.178250
     33 HAO        -1.1930   -1.7020    0.6380 DU        1 1FQ      0.178250
     34 HNAP       -0.2350    2.1350   -0.0430 DU        1 1FQ      0.178250
     35 H12        -3.4870    1.0290   -6.9140 ho        1 1FQ      0.247000
@<TRIPOS>BOND
     1    1   17 1   
     2    2   18 1   
     3    3   20 1   
     4    4   18 1   
     5    5   19 1   
     6    5   35 1   
     7    6   21 1   
     8    7    8 1   
     9    7   17 1   
    10    8   26 1   
    11    9   19 1   
    12    9   27 1   
    13   10   12 1   
    14   10   28 1   
    15   11   21 1   
    16   11   29 1   
    17   12   30 1   
    18   13   23 1   
    19   13   31 1   
    20   14   16 1   
    21   14   24 1   
    22   15   22 1   
    23   15   24 1   
    24   16   22 1   
    25   18   19 1   
    26   20   24 1   
@<TRIPOS>SUBSTRUCTURE
     1 1FQ         1 TEMP              0 ****  ****    0 ROOT
