@<TRIPOS>MOLECULE
1FQ
   35    48     1     0     0
SMALL
bcc


@<TRIPOS>ATOM
      1 OAA         0.0000    0.0000    0.0000 o         1 1FQ     -0.354000
      2 OAB         1.2770   -0.0830   -4.8780 o         1 1FQ     -0.563500
      3 OAC         1.2620    0.1250    7.8060 o         1 1FQ     -0.222000
      4 OAD         3.0890   -0.6200   -3.7150 o         1 1FQ     -0.563500
      5 OAE         0.0060    0.5850   -2.4390 oh        1 1FQ     -0.238000
      6 CAG         1.9270    0.0000    1.2250 c3        1 1FQ     -0.047000
      7 CAH         1.2480    0.0000    2.4020 c3        1 1FQ     -0.218000
      8 CAI         1.9530    0.0000   -1.2720 c2        1 1FQ     -0.518000
      9 CAJ         5.7660   -1.0690    8.4210 c3        1 1FQ     -0.224000
     10 CAK         4.7510    0.2530   10.1540 c2        1 1FQ     -0.267000
     11 CAL         4.6420   -0.9170    7.6380 c3        1 1FQ     -0.109000
     12 CAM         3.6210    0.4110    9.3810 c2        1 1FQ      0.007000
     13 CAN         3.6380   -0.0000    5.0770 c3        1 1FQ     -0.306000
     14 CAO         1.3950    0.0010    4.8880 c3        1 1FQ     -0.020000
     15 NAP         3.3280    0.0000    3.7700 n7        1 1FQ     -0.106000
     16 CAQ         1.2190    0.0000    0.0000 c2        1 1FQ      0.555000
     17 CAR         1.9440   -0.2150   -3.7150 c2        1 1FQ      0.415000
     18 CAS         1.2830    0.1320   -2.4400 c3        1 1FQ      0.073000
     19 CAT         2.3500   -0.0090    7.2800 c2        1 1FQ      0.386000
     20 CAU         5.8230   -0.4850    9.6770 c2        1 1FQ      0.439000
     21 CAV         1.9560    0.0000    3.6280 c3        1 1FQ     -0.167000
     22 CAW         3.5580   -0.1750    8.1140 c3        1 1FQ      0.375000
     23 CAX         2.4630   -0.0060    5.8110 DU        1 1FQ     -0.382000
     24 HAG         2.3230   -0.1750    2.2180 DU        1 1FQ      0.141500
     25 HAH         2.1500    0.0050    1.8010 DU        1 1FQ      0.141500
     26 HAI         1.5830   -0.0010   -0.2540 ha        1 1FQ      0.117000
     27 HAJ         5.4680   -0.9930    7.3820 DU        1 1FQ      0.250000
     28 HAK         5.3460   -0.3540    9.4820 ha        1 1FQ     -0.026000
     29 HAL         4.6870   -0.4620    8.6200 DU        1 1FQ     -0.022000
     30 HAM         3.9320   -0.1570    8.5130 ha        1 1FQ     -0.384000
     31 HAN         3.4470    0.2200    6.1200 DU        1 1FQ      0.389000
     32 HAO         2.4600    0.0040    5.0860 DU        1 1FQ      0.050000
     33 HNAP        2.4180    0.0570    4.1830 DU        1 1FQ      0.231000
     34 H12         0.5600    0.5040   -1.6810 DU        1 1FQ      0.241000
     35 FAF         6.9280   -0.6370   10.4400 f         1 1FQ     -0.077000
@<TRIPOS>BOND
     1    1   16 1   
     2    2   17 1   
     3    3   19 1   
     4    4   17 1   
     5    5   18 1   
     6    5   34 1   
     7    6    7 1   
     8    6   16 1   
     9    6   24 1   
    10    6   25 1   
    11    7   21 1   
    12    7   24 1   
    13    7   25 1   
    14    8   16 1   
    15    8   18 1   
    16    8   26 1   
    17    9   11 1   
    18    9   20 1   
    19    9   27 1   
    20    9   29 1   
    21   10   12 1   
    22   10   20 1   
    23   10   28 1   
    24   11   22 1   
    25   11   27 1   
    26   11   29 1   
    27   12   22 1   
    28   12   30 1   
    29   13   15 1   
    30   13   23 1   
    31   13   31 1   
    32   13   32 1   
    33   14   21 1   
    34   14   23 1   
    35   14   32 1   
    36   14   33 1   
    37   15   21 1   
    38   15   33 1   
    39   17   18 1   
    40   18   34 1   
    41   19   22 1   
    42   19   23 1   
    43   20   35 1   
    44   21   33 1   
    45   22   29 1   
    46   23   31 1   
    47   23   32 1   
    48   24   25 1   
@<TRIPOS>SUBSTRUCTURE
     1 1FQ         1 TEMP              0 ****  ****    0 ROOT
