@<TRIPOS>MOLECULE
1FR
   51    43     1     0     0
SMALL
bcc


@<TRIPOS>ATOM
      1 C28         4.0860   -0.1050    5.3830 c1        1 1FR     -0.105000
      2 C27         4.9180    0.5460    6.2970 c1        1 1FR     -0.128000
      3 C26         5.6530    1.6550    5.9010 c1        1 1FR     -0.128000
      4 C24         4.7300    1.4670    3.6820 c1        1 1FR     -0.128000
      5 C23         3.9940    0.3560    4.0790 c1        1 1FR     -0.113000
      6 C22         3.2040   -0.4510    3.0370 c3        1 1FR      0.039000
      7 C17        -2.8300   -0.6900   -4.9660 c3        1 1FR     -0.124000
      8 C15        -2.5330   -0.4870   -2.5200 c1        1 1FR     -0.046500
      9 C12        -2.5180    2.2920   -2.7110 c1        1 1FR     -0.063000
     10 C13        -2.6490    1.5160   -3.8560 c1        1 1FR     -0.109000
     11 C14        -2.6560    0.1240   -3.7600 c1        1 1FR     -0.063000
     12 C11        -2.3940    1.6810   -1.4630 c1        1 1FR     -0.109000
     13 C10        -2.4010    0.2950   -1.3650 c1        1 1FR     -0.062000
     14 C8         -2.1640   -0.3550   -0.0540 c1        1 1FR     -0.055000
     15 C4         -1.1660   -0.4180    0.9360 c1        1 1FR     -0.055000
     16 C5         -1.6520   -1.1420    1.9790 c1        1 1FR     -0.062000
     17 C6         -0.8480   -1.3470    3.1320 c1        1 1FR     -0.046500
     18 C3          0.1140    0.1210    1.0000 c1        1 1FR     -0.179000
     19 C2          0.9120   -0.0840    2.1480 c1        1 1FR      0.108000
     20 CL         -2.4570    4.0190   -2.8390 cl        1 1FR     -0.012000
     21 C18        -4.3240   -0.6850   -5.3770 c3        1 1FR     -0.161000
     22 C19        -4.4830   -1.3500   -6.8000 c3        1 1FR     -0.019000
     23 O20        -5.8830   -1.4120   -7.1470 oh        1 1FR     -0.327000
     24 O21        -2.9280   -1.5320    1.6640 o         1 1FR      0.008300
     25 N9         -3.2310   -1.0300    0.3890 n2        1 1FR     -0.034300
     26 N1          0.4290   -0.8070    3.1920 n1        1 1FR     -0.166000
     27 N7          2.2530    0.3960    2.4020 n3        1 1FR     -0.260000
     28 C29         4.1550   -1.0080    1.9930 c3        1 1FR     -0.213000
     29 C25         5.5620    2.1170    4.5980 c1        1 1FR     -0.128000
     30 H28         3.5740   -0.8780    5.6610 ha        1 1FR      0.141000
     31 H27         4.9830    0.2210    7.2160 ha        1 1FR      0.130750
     32 H26         6.2400    2.1130    6.5460 ha        1 1FR      0.130750
     33 H24         4.6680    1.7850    2.7870 ha        1 1FR      0.130750
     34 H22         2.7250   -1.2110    3.4960 h1        1 1FR      0.130000
     35 H17        -2.5350   -1.6330   -4.7800 hc        1 1FR      0.092000
     36 H17A       -2.2850   -0.3120   -5.6980 hc        1 1FR      0.092000
     37 H15        -2.5390   -1.4920   -2.4510 ha        1 1FR      0.167000
     38 H13        -2.7340    1.9340   -4.7080 ha        1 1FR      0.152000
     39 H11        -2.3050    2.2120   -0.6810 ha        1 1FR      0.152000
     40 H6         -1.1930   -1.8640    3.8810 ha        1 1FR      0.167000
     41 H3          0.4620    0.6400    0.2510 ha        1 1FR      0.155000
     42 H18        -4.8530   -1.1990   -4.7100 hc        1 1FR      0.101500
     43 H18A       -4.6550    0.2560   -5.4120 hc        1 1FR      0.101500
     44 H19        -4.1150   -2.2490   -6.7810 h1        1 1FR      0.060000
     45 H19A       -3.9970   -0.8060   -7.4780 h1        1 1FR      0.060000
     46 HO20       -5.9900   -1.9310   -7.8980 ho        1 1FR      0.200000
     47 HN7         2.4760    1.2250    2.1830 hn        1 1FR      0.195000
     48 H29         5.0050   -1.3140    2.4390 hc        1 1FR      0.084667
     49 H29A        4.3680   -0.2960    1.3240 hc        1 1FR      0.084667
     50 H29B        3.7290   -1.7750    1.5340 hc        1 1FR      0.084667
     51 H25         6.0750    2.8910    4.3220 ha        1 1FR      0.130750
@<TRIPOS>BOND
     1    1    5 1   
     2    1   30 1   
     3    2    3 1   
     4    2   31 1   
     5    3   32 1   
     6    4   29 1   
     7    4   33 1   
     8    5    6 1   
     9    6   27 1   
    10    6   28 1   
    11    6   34 1   
    12    7   11 1   
    13    7   21 1   
    14    7   35 1   
    15    7   36 1   
    16    8   13 1   
    17    8   37 1   
    18    9   12 1   
    19    9   20 1   
    20   10   11 1   
    21   10   38 1   
    22   12   39 1   
    23   14   15 1   
    24   14   25 1   
    25   15   18 1   
    26   16   17 1   
    27   17   40 1   
    28   18   41 1   
    29   19   26 1   
    30   19   27 1   
    31   21   22 1   
    32   21   42 1   
    33   21   43 1   
    34   22   23 1   
    35   22   44 1   
    36   22   45 1   
    37   23   46 1   
    38   24   25 2   
    39   27   47 1   
    40   28   48 1   
    41   28   49 1   
    42   28   50 1   
    43   29   51 1   
@<TRIPOS>SUBSTRUCTURE
     1 1FR         1 TEMP              0 ****  ****    0 ROOT
