@<TRIPOS>MOLECULE
1FR
   51    54     1     0     0
SMALL
bcc


@<TRIPOS>ATOM
      1 C28        -5.0850   -2.2190   -1.0840 ca        1 1FR     -0.118000
      2 C27        -6.3010   -2.8260   -1.3990 ca        1 1FR     -0.127500
      3 C26        -7.4960   -2.2880   -0.9220 ca        1 1FR     -0.123000
      4 C24        -6.2610   -0.5340    0.1920 ca        1 1FR     -0.118000
      5 C23        -5.0600   -1.0740   -0.2820 ca        1 1FR     -0.092300
      6 C22        -3.7360   -0.4360    0.0700 c3        1 1FR      0.243800
      7 C15         3.3650    0.5810   -0.5770 ca        1 1FR     -0.093000
      8 C12         2.3290   -1.7660    0.5070 ca        1 1FR      0.015400
      9 C13         3.5830   -1.7840   -0.1110 ca        1 1FR     -0.109000
     10 C14         4.1040   -0.6040   -0.6540 ca        1 1FR     -0.069300
     11 C11         1.5860   -0.5870    0.5870 ca        1 1FR     -0.109000
     12 C10         2.1060    0.5910    0.0370 ca        1 1FR     -0.096900
     13 C8          1.3330    1.8210    0.1110 cc        1 1FR      0.401500
     14 C4         -0.1360    1.9260    0.0200 ca        1 1FR     -0.145900
     15 C5         -0.3630    3.3280    0.1490 ca        1 1FR     -0.128200
     16 C6         -1.6570    3.8560    0.1160 ca        1 1FR      0.464200
     17 C3         -1.2210    1.0840   -0.1580 ca        1 1FR     -0.229300
     18 C2         -2.5170    1.6890   -0.1950 ca        1 1FR      0.620200
     19 C18         6.5590   -0.8090   -0.3190 c3        1 1FR     -0.082400
     20 C19         7.9000   -0.8410   -1.0330 c3        1 1FR      0.131400
     21 O20         8.8900   -1.0680   -0.0420 oh        1 1FR     -0.599800
     22 O21         0.8840    3.9690    0.3000 os        1 1FR      0.008400
     23 N9          1.8410    3.0570    0.2710 nd        1 1FR     -0.367200
     24 N1         -2.7100    3.0500   -0.0390 nb        1 1FR     -0.701000
     25 N7         -3.6500    0.9050   -0.4970 nh        1 1FR     -0.818900
     26 C29        -3.5330   -0.5170    1.5860 c3        1 1FR     -0.126100
     27 C25        -7.4750   -1.1410   -0.1280 ca        1 1FR     -0.127500
     28 H28        -4.1460   -2.6420   -1.4710 ha        1 1FR      0.133500
     29 H27        -6.3150   -3.7280   -2.0270 ha        1 1FR      0.135000
     30 H26        -8.4540   -2.7660   -1.1730 ha        1 1FR      0.134000
     31 H24        -6.2510    0.3670    0.8230 ha        1 1FR      0.133500
     32 H22        -2.9110   -1.0410   -0.4190 h1        1 1FR      0.064700
     33 H17         5.4600   -1.4540   -2.0720 hc        1 1FR      0.052700
     34 H17A        5.5950    0.3400   -1.8820 hc        1 1FR      0.052700
     35 H15         3.7770    1.5100   -1.0020 ha        1 1FR      0.153000
     36 H13         4.1630   -2.7180   -0.1700 ha        1 1FR      0.152000
     37 H11         0.6040   -0.5770    1.0850 ha        1 1FR      0.151000
     38 H6         -1.8610    4.9360    0.2220 h4        1 1FR      0.045100
     39 H3         -1.0890    0.0020   -0.2850 ha        1 1FR      0.158000
     40 H18         6.5580    0.0240    0.4310 hc        1 1FR      0.062200
     41 H18A        6.4170   -1.7660    0.2470 hc        1 1FR      0.062200
     42 H19         7.9250   -1.6680   -1.7930 h1        1 1FR      0.020700
     43 H19A        8.0940    0.1350   -1.5540 h1        1 1FR      0.020700
     44 HO20        9.7400   -1.0570   -0.4950 ho        1 1FR      0.401000
     45 HN7        -4.5180    1.4030   -0.4460 hn        1 1FR      0.414800
     46 H29        -3.5850   -1.5850    1.9070 hc        1 1FR      0.048033
     47 H29A       -2.5330   -0.1060    1.8670 hc        1 1FR      0.048033
     48 H29B       -4.3220    0.0560    2.1290 hc        1 1FR      0.048033
     49 H25        -8.4160   -0.7140    0.2470 ha        1 1FR      0.135000
     50 CL          1.6990   -3.2000    1.1700 cl        1 1FR     -0.090400
     51 C17         5.4360   -0.6190   -1.3190 c3        1 1FR     -0.039100
@<TRIPOS>BOND
     1    1    2 ar  
     2    1    5 ar  
     3    1   28 1   
     4    2    3 ar  
     5    2   29 1   
     6    3   27 ar  
     7    3   30 1   
     8    4    5 ar  
     9    4   27 ar  
    10    4   31 1   
    11    5    6 1   
    12    6   25 1   
    13    6   26 1   
    14    6   32 1   
    15    7   10 ar  
    16    7   12 ar  
    17    7   35 1   
    18    8    9 ar  
    19    8   11 ar  
    20    8   50 1   
    21    9   10 ar  
    22    9   36 1   
    23   10   51 1   
    24   11   12 ar  
    25   11   37 1   
    26   12   13 1   
    27   13   14 1   
    28   13   23 2   
    29   14   15 ar  
    30   14   17 ar  
    31   15   16 ar  
    32   15   22 1   
    33   16   24 ar  
    34   16   38 1   
    35   17   18 ar  
    36   17   39 1   
    37   18   24 ar  
    38   18   25 1   
    39   19   20 1   
    40   19   40 1   
    41   19   41 1   
    42   19   51 1   
    43   20   21 1   
    44   20   42 1   
    45   20   43 1   
    46   21   44 1   
    47   22   23 1   
    48   25   45 1   
    49   26   46 1   
    50   26   47 1   
    51   26   48 1   
    52   27   49 1   
    53   33   51 1   
    54   34   51 1   
@<TRIPOS>SUBSTRUCTURE
     1 1FR         1 TEMP              0 ****  ****    0 ROOT
