@<TRIPOS>MOLECULE
1FS
   40    42     1     0     0
SMALL
bcc


@<TRIPOS>ATOM
      1 O3          0.0360   -0.1900    0.1100 os        1 1FS     -0.227200
      2 O5         -1.6310    6.2590   -3.8500 o         1 1FS     -0.201000
      3 C1          2.3190   -0.3530   -1.3780 cg        1 1FS      0.234800
      4 C2          2.3980   -0.2220    0.0320 ca        1 1FS     -0.043000
      5 C3          3.6440   -0.1710    0.6630 ca        1 1FS     -0.004000
      6 C4          3.7090   -0.0430    2.0590 ca        1 1FS     -0.213200
      7 C5          2.5400    0.0460    2.8350 ca        1 1FS     -0.012000
      8 C6          1.3000   -0.0040    2.2110 ca        1 1FS     -0.200000
      9 C7          1.2240   -0.1380    0.8190 ca        1 1FS      0.195100
     10 C8         -1.1420   -0.2230    0.8560 ca        1 1FS      0.070100
     11 C9         -1.7060   -1.4600    1.1920 ca        1 1FS     -0.109000
     12 C10        -2.9610   -1.5040    1.7920 ca        1 1FS     -0.110000
     13 C11        -3.6530   -0.3160    2.0620 ca        1 1FS      0.027400
     14 C12        -3.1010    0.9270    1.7340 ca        1 1FS     -0.120000
     15 C17        -1.9090    4.3750   -2.5300 ca        1 1FS     -0.213200
     16 C16        -2.4930    3.1010   -2.4130 ca        1 1FS     -0.012000
     17 C15        -2.2790    2.3530   -1.2620 ca        1 1FS     -0.201000
     18 C14        -1.4830    2.8710   -0.2320 ca        1 1FS      0.195100
     19 C13        -1.8390    0.9680    1.1310 ca        1 1FS      0.080100
     20 C18        -1.1070    4.9000   -1.5060 ca        1 1FS     -0.004000
     21 C19        -0.8890    4.1500   -0.3460 ca        1 1FS     -0.042000
     22 C20        -0.0800    4.6710    0.6970 cg        1 1FS      0.234800
     23 O6         -2.8440    4.7210   -4.6210 o         1 1FS     -0.201000
     24 N4          0.5820    5.0920    1.5550 n1        1 1FS     -0.331800
     25 O4         -1.2090    2.1990    0.9460 os        1 1FS     -0.227200
     26 CL         -5.1790   -0.3800    2.7950 cl        1 1FS     -0.055400
     27 O2          5.0770    0.0930    3.9240 o         1 1FS     -0.201000
     28 O1          6.0270   -0.0590    2.0510 o         1 1FS     -0.201000
     29 N1          2.2480   -0.4610   -2.5340 n1        1 1FS     -0.331800
     30 H1          4.5710   -0.2330    0.0630 ha        1 1FS      0.188000
     31 H2          2.6080    0.1570    3.9320 ha        1 1FS      0.182000
     32 H3          0.3780    0.0760    2.8080 ha        1 1FS      0.168000
     33 H4         -1.1560   -2.3880    0.9680 ha        1 1FS      0.167000
     34 H5         -3.4090   -2.4770    2.0530 ha        1 1FS      0.166000
     35 H6         -3.6350    1.8650    1.9520 ha        1 1FS      0.175000
     36 H7         -3.1150    2.6970   -3.2320 ha        1 1FS      0.182000
     37 H8         -2.7250    1.3510   -1.1650 ha        1 1FS      0.167000
     38 H9         -0.6480    5.9010   -1.6110 ha        1 1FS      0.189000
     39 N2          5.0360    0.0020    2.7270 no        1 1FS      0.320200
     40 N3         -2.1440    5.1770   -3.7580 no        1 1FS      0.320200
@<TRIPOS>BOND
     1    1    9 1   
     2    1   10 1   
     3    2   40 1   
     4    3    4 1   
     5    3   29 3   
     6    4    5 ar  
     7    4    9 ar  
     8    5    6 ar  
     9    5   30 1   
    10    6    7 ar  
    11    6   39 1   
    12    7    8 ar  
    13    7   31 1   
    14    8    9 ar  
    15    8   32 1   
    16   10   11 ar  
    17   10   19 ar  
    18   11   12 ar  
    19   11   33 1   
    20   12   13 ar  
    21   12   34 1   
    22   13   14 ar  
    23   13   26 1   
    24   14   19 ar  
    25   14   35 1   
    26   15   16 ar  
    27   15   20 ar  
    28   15   40 1   
    29   16   17 ar  
    30   16   36 1   
    31   17   18 ar  
    32   17   37 1   
    33   18   21 ar  
    34   18   25 1   
    35   19   25 1   
    36   20   21 ar  
    37   20   38 1   
    38   21   22 1   
    39   22   24 3   
    40   23   40 1   
    41   27   39 1   
    42   28   39 1   
@<TRIPOS>SUBSTRUCTURE
     1 1FS         1 TEMP              0 ****  ****    0 ROOT
