@<TRIPOS>MOLECULE
1FS
   40    42     1     0     0
SMALL
bcc


@<TRIPOS>ATOM
      1 O3          0.0440   -0.1960    0.1170 os        1 1FS     -0.227200
      2 O5         -1.5990    6.2320   -3.8900 o         1 1FS     -0.201000
      3 C1          2.3330   -0.3730   -1.3610 cg        1 1FS      0.234800
      4 C2          2.4060   -0.2310    0.0490 ca        1 1FS     -0.043000
      5 C3          3.6500   -0.1780    0.6840 ca        1 1FS     -0.004000
      6 C4          3.7100   -0.0390    2.0790 ca        1 1FS     -0.213200
      7 C5          2.5380    0.0570    2.8490 ca        1 1FS     -0.012000
      8 C6          1.3000    0.0040    2.2210 ca        1 1FS     -0.200000
      9 C7          1.2290   -0.1410    0.8300 ca        1 1FS      0.195100
     10 C8         -1.1370   -0.2220    0.8580 ca        1 1FS      0.070100
     11 C9         -1.7040   -1.4560    1.2000 ca        1 1FS     -0.109000
     12 C10        -2.9620   -1.4930    1.7950 ca        1 1FS     -0.110000
     13 C11        -3.6530   -0.3020    2.0540 ca        1 1FS      0.027400
     14 C12        -3.0970    0.9370    1.7210 ca        1 1FS     -0.120000
     15 C17        -1.8840    4.3560   -2.5600 ca        1 1FS     -0.213200
     16 C16        -2.4700    3.0830   -2.4370 ca        1 1FS     -0.012000
     17 C15        -2.2610    2.3420   -1.2810 ca        1 1FS     -0.201000
     18 C14        -1.4680    2.8660   -0.2510 ca        1 1FS      0.195100
     19 C13        -1.8330    0.9720    1.1230 ca        1 1FS      0.080100
     20 C18        -1.0850    4.8870   -1.5360 ca        1 1FS     -0.004000
     21 C19        -0.8730    4.1440   -0.3710 ca        1 1FS     -0.042000
     22 C20        -0.0670    4.6700    0.6720 cg        1 1FS      0.234800
     23 O6         -2.8110    4.6900   -4.6570 o         1 1FS     -0.201000
     24 N4          0.5930    5.0960    1.5300 n1        1 1FS     -0.331800
     25 O4         -1.2000    2.2000    0.9320 os        1 1FS     -0.227200
     26 Cl         -5.1810   -0.3590    2.7820 cl        1 1FS     -0.055400
     27 O2          5.0700    0.1080    3.9490 o         1 1FS     -0.201000
     28 O1          6.0280   -0.0590    2.0810 o         1 1FS     -0.201000
     29 N1          2.2660   -0.4890   -2.5170 n1        1 1FS     -0.331800
     30 H1          4.5790   -0.2450    0.0870 ha        1 1FS      0.188000
     31 H2          2.6010    0.1760    3.9460 ha        1 1FS      0.182000
     32 H3          0.3760    0.0890    2.8140 ha        1 1FS      0.168000
     33 H4         -1.1560   -2.3860    0.9840 ha        1 1FS      0.167000
     34 H5         -3.4130   -2.4630    2.0610 ha        1 1FS      0.166000
     35 H6         -3.6300    1.8780    1.9310 ha        1 1FS      0.175000
     36 H7         -3.0900    2.6750   -3.2560 ha        1 1FS      0.182000
     37 H8         -2.7080    1.3410   -1.1790 ha        1 1FS      0.167000
     38 H9         -0.6250    5.8870   -1.6460 ha        1 1FS      0.189000
     39 N2          5.0340    0.0080    2.7520 no        1 1FS      0.320200
     40 N3         -2.1140    5.1510   -3.7940 no        1 1FS      0.320200
@<TRIPOS>BOND
     1    1    9 1   
     2    1   10 1   
     3    2   40 1   
     4    3    4 1   
     5    3   29 3   
     6    4    5 ar  
     7    4    9 ar  
     8    5    6 ar  
     9    5   30 1   
    10    6    7 ar  
    11    6   39 1   
    12    7    8 ar  
    13    7   31 1   
    14    8    9 ar  
    15    8   32 1   
    16   10   11 ar  
    17   10   19 ar  
    18   11   12 ar  
    19   11   33 1   
    20   12   13 ar  
    21   12   34 1   
    22   13   14 ar  
    23   13   26 1   
    24   14   19 ar  
    25   14   35 1   
    26   15   16 ar  
    27   15   20 ar  
    28   15   40 1   
    29   16   17 ar  
    30   16   36 1   
    31   17   18 ar  
    32   17   37 1   
    33   18   21 ar  
    34   18   25 1   
    35   19   25 1   
    36   20   21 ar  
    37   20   38 1   
    38   21   22 1   
    39   22   24 3   
    40   23   40 1   
    41   27   39 1   
    42   28   39 1   
@<TRIPOS>SUBSTRUCTURE
     1 1FS         1 TEMP              0 ****  ****    0 ROOT
