@<TRIPOS>MOLECULE
1FT
   48    49     1     0     0
SMALL
bcc


@<TRIPOS>ATOM
      1 OAH        -1.8300    2.1510    0.9810 o         1 1FT     -0.919833
      2 PBA        -0.3300    2.1440    1.1280 p5        1 1FT      1.337900
      3 OAI         0.4220    3.4120    1.3670 o         1 1FT     -0.919833
      4 OAJ         0.1260    0.9120    1.8830 o         1 1FT     -0.919833
      5 O6          0.1540    1.6620   -0.4580 os        1 1FT     -0.576200
      6 C6          1.4000    2.0690   -0.8620 c3        1 1FT      0.198400
      7 C5          2.3080    0.9210   -1.3650 c3        1 1FT      0.081100
      8 O5          1.7370   -0.3840   -1.3670 os        1 1FT     -0.402600
      9 C4          3.6640    0.8450   -0.6330 c3        1 1FT      0.124100
     10 O4          4.3680    2.0710   -0.7040 oh        1 1FT     -0.615800
     11 C3          3.4340    0.3860    0.8080 c3        1 1FT      0.071100
     12 O3          4.7090    0.1710    1.4100 oh        1 1FT     -0.621800
     13 C2          2.6190   -0.9250    0.8710 c3        1 1FT      0.136100
     14 O2          2.2160   -1.1140    2.2130 oh        1 1FT     -0.652800
     15 C1          1.4210   -0.8940   -0.0780 c3        1 1FT      0.174200
     16 SAP         0.8610   -2.5810   -0.3800 ss        1 1FT     -0.374200
     17 CAZ        -0.9340   -2.4660   -0.3280 c3        1 1FT      0.025400
     18 CAX        -1.4130   -1.9540    1.0290 c3        1 1FT      0.096100
     19 OAG        -1.6800   -3.1160    1.8240 oh        1 1FT     -0.630800
     20 CAT        -2.6870   -1.0840    1.0000 c3        1 1FT      0.097100
     21 OAC        -2.7630   -0.3260    2.1830 oh        1 1FT     -0.645800
     22 CAQ        -2.6430   -0.1970   -0.2530 c3        1 1FT      0.307900
     23 OAB        -3.8090    0.5610   -0.4090 oh        1 1FT     -0.631800
     24 OAN        -2.6790   -1.0600   -1.3960 os        1 1FT     -0.454600
     25 CAR        -1.4020   -1.6830   -1.5550 c3        1 1FT      0.105100
     26 CAK        -1.5710   -2.6200   -2.7580 c3        1 1FT      0.143400
     27 OAA        -2.0220   -1.9390   -3.9130 oh        1 1FT     -0.630800
     28 H3          1.2970    2.7790   -1.7380 h1        1 1FT      0.006700
     29 H4          1.9160    2.6280   -0.0270 h1        1 1FT      0.006700
     30 H5          2.5160    1.0910   -2.4620 h1        1 1FT      0.045700
     31 H6          4.3390    0.1120   -1.1580 h1        1 1FT      0.060700
     32 H7          3.8870    2.7090   -0.1600 ho        1 1FT      0.413000
     33 H8          2.8880    1.1850    1.3890 h1        1 1FT      0.093700
     34 H9          4.5180   -0.2090    2.2770 ho        1 1FT      0.402000
     35 H10         3.2950   -1.7960    0.6400 h1        1 1FT      0.051700
     36 H11         1.4820   -0.4880    2.3930 ho        1 1FT      0.485000
     37 H12         0.5950   -0.2550    0.3840 h2        1 1FT      0.188700
     38 H13        -1.2510   -3.5400   -0.4210 h1        1 1FT      0.079700
     39 H14        -0.5970   -1.3470    1.5340 h1        1 1FT      0.119700
     40 H15        -1.9140   -2.7710    2.6940 ho        1 1FT      0.405000
     41 H16        -3.6020   -1.7360    0.9950 h1        1 1FT      0.051700
     42 H17        -2.1770    0.4620    2.0660 ho        1 1FT      0.483000
     43 H18        -1.7160    0.4580   -0.2520 h2        1 1FT      0.133700
     44 H19        -3.5750    1.4290   -0.0190 ho        1 1FT      0.474000
     45 H20        -0.6410   -0.8770   -1.7930 h1        1 1FT      0.105700
     46 H21        -0.5800   -3.0670   -3.0330 h1        1 1FT      0.035200
     47 H22        -2.3070   -3.4330   -2.5120 h1        1 1FT      0.035200
     48 H23        -2.6130   -1.2330   -3.6180 ho        1 1FT      0.426000
@<TRIPOS>BOND
     1    1    2 1   
     2    2    3 1   
     3    2    4 1   
     4    2    5 1   
     5    5    6 1   
     6    6    7 1   
     7    6   28 1   
     8    6   29 1   
     9    7    8 1   
    10    7    9 1   
    11    7   30 1   
    12    8   15 1   
    13    9   10 1   
    14    9   11 1   
    15    9   31 1   
    16   10   32 1   
    17   11   12 1   
    18   11   13 1   
    19   11   33 1   
    20   12   34 1   
    21   13   14 1   
    22   13   15 1   
    23   13   35 1   
    24   14   36 1   
    25   15   16 1   
    26   15   37 1   
    27   16   17 1   
    28   17   18 1   
    29   17   25 1   
    30   17   38 1   
    31   18   19 1   
    32   18   20 1   
    33   18   39 1   
    34   19   40 1   
    35   20   21 1   
    36   20   22 1   
    37   20   41 1   
    38   21   42 1   
    39   22   23 1   
    40   22   24 1   
    41   22   43 1   
    42   23   44 1   
    43   24   25 1   
    44   25   26 1   
    45   25   45 1   
    46   26   27 1   
    47   26   46 1   
    48   26   47 1   
    49   27   48 1   
@<TRIPOS>SUBSTRUCTURE
     1 1FT         1 TEMP              0 ****  ****    0 ROOT
