@<TRIPOS>MOLECULE
1FT
   48    49     1     0     0
SMALL
bcc


@<TRIPOS>ATOM
      1 OAH        -1.4660    4.8960    3.3480 o         1 1FT     -0.743500
      2 PBA        -0.1680    4.3850    3.9380 p5        1 1FT      1.351900
      3 OAI        -0.3390    4.1730    5.4200 o         1 1FT     -0.743500
      4 OAJ         0.9330    5.4020    3.6960 o         1 1FT     -0.743500
      5 O6          0.2240    2.9980    3.2420 os        1 1FT     -0.587200
      6 C6         -0.7830    2.0200    3.0730 c3        1 1FT      0.189400
      7 C5         -0.2450    0.8960    2.3340 c3        1 1FT      0.042100
      8 O5         -1.4570    0.0190    1.7760 os        1 1FT     -0.387600
      9 C4          0.6850    0.1280    3.2360 c3        1 1FT      0.290100
     10 O4          0.3660    0.4680    4.6700 oh        1 1FT     -0.957800
     11 C3          0.5540   -1.2110    3.0600 c3        1 1FT      0.014100
     12 O3          1.9470   -1.8950    3.7030 oh        1 1FT     -0.654800
     13 C2          0.3670   -1.8180    1.8620 c3        1 1FT      0.105100
     14 O2         -0.2310   -3.1790    2.0950 oh        1 1FT     -0.648800
     15 C1         -0.5580   -1.0240    0.9780 c3        1 1FT      0.354200
     16 SAP         0.3700   -0.1780   -0.1670 ss        1 1FT     -0.516200
     17 CAZ        -0.2620   -0.6040   -1.9650 c3        1 1FT     -0.046600
     18 CAX        -0.9890    0.5000   -2.4500 c3        1 1FT      0.165100
     19 OAG        -2.2510    0.6400   -1.6270 oh        1 1FT     -0.602800
     20 CAT        -1.3720    0.3770   -3.8800 c3        1 1FT      0.091100
     21 OAC        -1.9920    1.5640   -4.2740 oh        1 1FT     -0.582800
     22 CAQ        -0.1170    0.0870   -4.8890 c3        1 1FT      0.307900
     23 OAB        -0.5080   -0.1980   -5.9950 oh        1 1FT     -0.618800
     24 OAN         0.5920   -1.1460   -4.2090 os        1 1FT     -0.457600
     25 CAR         0.9020   -0.9720   -2.7860 c3        1 1FT      0.129100
     26 CAK         1.4800   -2.2890   -2.2520 c3        1 1FT      0.135400
     27 OAA         2.1740   -2.9610   -3.3010 oh        1 1FT     -0.615800
     28 H3         -1.0910    1.7150    3.9510 h1        1 1FT      0.038700
     29 H4         -1.5440    2.4110    2.5740 h1        1 1FT      0.038700
     30 H5          0.2620    1.2340    1.5840 h1        1 1FT      0.065700
     31 H6          1.6150    0.3900    3.0400 h1        1 1FT     -0.087300
     32 H7          1.1140    0.4560    5.1510 ho        1 1FT      0.470000
     33 H8         -0.2120   -1.4970    3.6430 h1        1 1FT      0.041700
     34 H9          2.6560   -1.6610    3.2020 ho        1 1FT      0.443000
     35 H10         1.2250   -1.9180    1.4190 h1        1 1FT      0.062700
     36 H11         0.4300   -3.8050    2.0930 ho        1 1FT      0.418000
     37 H12        -1.1590   -1.6570    0.4960 h2        1 1FT      0.062700
     38 H13        -0.8560   -1.3650   -1.9130 h1        1 1FT      0.108700
     39 H14        -0.4410    1.3200   -2.3360 h1        1 1FT      0.061700
     40 H15        -2.9470    0.3220   -2.0920 ho        1 1FT      0.434000
     41 H16        -2.0170   -0.3540   -3.9660 h1        1 1FT      0.057700
     42 H17        -2.6360    1.3820   -4.8700 ho        1 1FT      0.397000
     43 H18         0.4840    0.8540   -4.9220 h2        1 1FT      0.074700
     44 H19         0.1500   -0.0590   -6.5900 ho        1 1FT      0.421000
     45 H20         1.5800   -0.2740   -2.6980 h1        1 1FT      0.060700
     46 H21         0.7540   -2.8560   -1.9260 h1        1 1FT      0.064200
     47 H22         2.0970   -2.1020   -1.5230 h1        1 1FT      0.064200
     48 H23         2.6780   -3.6140   -2.9550 ho        1 1FT      0.436000
@<TRIPOS>BOND
     1    1    2 1   
     2    2    3 1   
     3    2    4 1   
     4    2    5 1   
     5    5    6 1   
     6    6    7 1   
     7    6   28 1   
     8    6   29 1   
     9    7    8 1   
    10    7    9 1   
    11    7   30 1   
    12    8   15 1   
    13    9   10 1   
    14    9   11 1   
    15    9   31 1   
    16   10   32 1   
    17   11   12 1   
    18   11   13 1   
    19   11   33 1   
    20   12   34 1   
    21   13   14 1   
    22   13   15 1   
    23   13   35 1   
    24   14   36 1   
    25   15   16 1   
    26   15   37 1   
    27   16   17 1   
    28   17   18 1   
    29   17   25 1   
    30   17   38 1   
    31   18   19 1   
    32   18   20 1   
    33   18   39 1   
    34   19   40 1   
    35   20   21 1   
    36   20   22 1   
    37   20   41 1   
    38   21   42 1   
    39   22   23 1   
    40   22   24 1   
    41   22   43 1   
    42   23   44 1   
    43   24   25 1   
    44   25   26 1   
    45   25   45 1   
    46   26   27 1   
    47   26   46 1   
    48   26   47 1   
    49   27   48 1   
@<TRIPOS>SUBSTRUCTURE
     1 1FT         1 TEMP              0 ****  ****    0 ROOT
