@<TRIPOS>MOLECULE
1FT
   48    49     1     0     0
SMALL
bcc


@<TRIPOS>ATOM
      1 OAH         1.2550   -0.3390   -0.1760 o         1 1FT     -0.921500
      2 PBA         2.5940    0.2700   -0.4560 p5        1 1FT      1.342900
      3 OAI         3.4740    0.8400    0.6210 o         1 1FT     -0.921500
      4 OAJ         3.3520   -0.4310   -1.5710 o         1 1FT     -0.921500
      5 O6          2.1390    1.6550   -1.3620 os        1 1FT     -0.591200
      6 C6          2.6260    2.8820   -0.9960 c3        1 1FT      0.197400
      7 C5          3.8230    3.3800   -1.8350 c3        1 1FT      0.082100
      8 O5          3.7070    3.0740   -3.2250 os        1 1FT     -0.420600
      9 C4          5.2190    2.9940   -1.3250 c3        1 1FT      0.114100
     10 O4          5.3400    3.1220    0.0790 oh        1 1FT     -0.663800
     11 C3          5.6430    1.5820   -1.7540 c3        1 1FT      0.049100
     12 O3          7.0410    1.4350   -1.5190 oh        1 1FT     -0.617800
     13 C2          5.3930    1.2950   -3.2460 c3        1 1FT      0.179100
     14 O2          5.5770   -0.0820   -3.4990 oh        1 1FT     -0.626800
     15 C1          3.9500    1.7130   -3.5640 c3        1 1FT      0.167200
     16 SAP         3.5830    1.6310   -5.3180 ss        1 1FT     -0.338200
     17 CAZ         1.8910    1.0850   -5.4850 c3        1 1FT     -0.023600
     18 CAX         1.7880   -0.4290   -5.7210 c3        1 1FT      0.123100
     19 OAG         0.7640   -0.6510   -6.6920 oh        1 1FT     -0.632800
     20 CAT         1.4950   -1.3190   -4.4890 c3        1 1FT      0.112100
     21 OAC         2.6760   -1.9410   -4.0470 oh        1 1FT     -0.634800
     22 CAQ         0.7810   -0.5170   -3.3860 c3        1 1FT      0.291900
     23 OAB        -0.2370   -1.2680   -2.7910 oh        1 1FT     -0.624800
     24 OAN         0.0330    0.5450   -4.0020 os        1 1FT     -0.470600
     25 CAR         0.9090    1.5910   -4.4310 c3        1 1FT      0.093100
     26 CAK        -0.0170    2.6650   -5.0140 c3        1 1FT      0.148400
     27 OAA        -0.9670    3.1350   -4.0790 oh        1 1FT     -0.630800
     28 H3          1.8010    3.6410   -1.1530 h1        1 1FT      0.011700
     29 H4          2.9150    2.8900    0.0930 h1        1 1FT      0.011700
     30 H5          3.7710    4.5110   -1.8370 h1        1 1FT      0.030700
     31 H6          5.9650    3.7370   -1.7340 h1        1 1FT      0.035700
     32 H7          4.8100    2.4090    0.4920 ho        1 1FT      0.476000
     33 H8          5.0530    0.8210   -1.1420 h1        1 1FT      0.142700
     34 H9          7.1400    1.5120   -0.5620 ho        1 1FT      0.396000
     35 H10         6.1410    1.8240   -3.8930 h1        1 1FT      0.052700
     36 H11         4.9660   -0.5640   -2.9070 ho        1 1FT      0.463000
     37 H12         3.2660    1.0170   -2.9800 h2        1 1FT      0.172700
     38 H13         1.6310    1.5610   -6.4750 h1        1 1FT      0.068700
     39 H14         2.7340   -0.7920   -6.2140 h1        1 1FT      0.092700
     40 H15        -0.0690   -0.4280   -6.2570 ho        1 1FT      0.406000
     41 H16         0.8270   -2.1630   -4.8320 h1        1 1FT      0.058700
     42 H17         3.0380   -1.4460   -3.2840 ho        1 1FT      0.481000
     43 H18         1.5180   -0.1160   -2.6220 h2        1 1FT      0.145700
     44 H19        -0.1700   -1.0900   -1.8310 ho        1 1FT      0.470000
     45 H20         1.4500    2.0060   -3.5240 h1        1 1FT      0.134700
     46 H21         0.5860    3.5580   -5.3260 h1        1 1FT      0.028200
     47 H22        -0.5750    2.2520   -5.8990 h1        1 1FT      0.028200
     48 H23        -1.0670    2.4570   -3.3960 ho        1 1FT      0.434000
@<TRIPOS>BOND
     1    1    2 1   
     2    2    3 1   
     3    2    4 1   
     4    2    5 1   
     5    5    6 1   
     6    6    7 1   
     7    6   28 1   
     8    6   29 1   
     9    7    8 1   
    10    7    9 1   
    11    7   30 1   
    12    8   15 1   
    13    9   10 1   
    14    9   11 1   
    15    9   31 1   
    16   10   32 1   
    17   11   12 1   
    18   11   13 1   
    19   11   33 1   
    20   12   34 1   
    21   13   14 1   
    22   13   15 1   
    23   13   35 1   
    24   14   36 1   
    25   15   16 1   
    26   15   37 1   
    27   16   17 1   
    28   17   18 1   
    29   17   25 1   
    30   17   38 1   
    31   18   19 1   
    32   18   20 1   
    33   18   39 1   
    34   19   40 1   
    35   20   21 1   
    36   20   22 1   
    37   20   41 1   
    38   21   42 1   
    39   22   23 1   
    40   22   24 1   
    41   22   43 1   
    42   23   44 1   
    43   24   25 1   
    44   25   26 1   
    45   25   45 1   
    46   26   27 1   
    47   26   46 1   
    48   26   47 1   
    49   27   48 1   
@<TRIPOS>SUBSTRUCTURE
     1 1FT         1 TEMP              0 ****  ****    0 ROOT
