@<TRIPOS>MOLECULE
1FT
   48    49     1     0     0
SMALL
bcc


@<TRIPOS>ATOM
      1 OAH         1.2050   -0.2540   -0.1470 o         1 1FT     -0.921500
      2 PBA         2.5560    0.3270   -0.4260 p5        1 1FT      1.342900
      3 OAI         3.4360    0.9020    0.6480 o         1 1FT     -0.921500
      4 OAJ         3.3120   -0.4090   -1.5200 o         1 1FT     -0.921500
      5 O6          2.1330    1.7010   -1.3630 os        1 1FT     -0.591200
      6 C6          2.6380    2.9270   -1.0150 c3        1 1FT      0.197400
      7 C5          3.8510    3.3880   -1.8530 c3        1 1FT      0.082100
      8 O5          3.7420    3.0570   -3.2370 os        1 1FT     -0.420600
      9 C4          5.2350    2.9880   -1.3230 c3        1 1FT      0.114100
     10 O4          5.3460    3.1410    0.0800 oh        1 1FT     -0.663800
     11 C3          5.6390    1.5620   -1.7200 c3        1 1FT      0.049100
     12 O3          7.0320    1.3950   -1.4690 oh        1 1FT     -0.617800
     13 C2          5.3970    1.2500   -3.2090 c3        1 1FT      0.179100
     14 O2          5.5600   -0.1350   -3.4340 oh        1 1FT     -0.626800
     15 C1          3.9650    1.6860   -3.5480 c3        1 1FT      0.167200
     16 SAP         3.6120    1.5760   -5.3040 ss        1 1FT     -0.338200
     17 CAZ         1.9130    1.0560   -5.4760 c3        1 1FT     -0.023600
     18 CAX         1.7860   -0.4600   -5.6850 c3        1 1FT      0.123100
     19 OAG         0.7670   -0.6830   -6.6600 oh        1 1FT     -0.632800
     20 CAT         1.4660   -1.3210   -4.4380 c3        1 1FT      0.112100
     21 OAC         2.6320   -1.9540   -3.9730 oh        1 1FT     -0.634800
     22 CAQ         0.7560   -0.4860   -3.3570 c3        1 1FT      0.291900
     23 OAB        -0.2800   -1.2080   -2.7570 oh        1 1FT     -0.624800
     24 OAN         0.0320    0.5770   -4.0000 os        1 1FT     -0.470600
     25 CAR         0.9300    1.5990   -4.4410 c3        1 1FT      0.093100
     26 CAK         0.0280    2.6780   -5.0530 c3        1 1FT      0.148400
     27 OAA        -0.9230    3.1820   -4.1360 oh        1 1FT     -0.630800
     28 H3          2.9170    2.9500    0.0760 h1        1 1FT      0.011700
     29 H4          1.8280    3.6970   -1.1950 h1        1 1FT      0.011700
     30 H5          3.8180    4.5190   -1.8760 h1        1 1FT      0.030700
     31 H6          5.9970    3.7100   -1.7390 h1        1 1FT      0.035700
     32 H7          4.8000    2.4460    0.5010 ho        1 1FT      0.476000
     33 H8          5.0300    0.8220   -1.0990 h1        1 1FT      0.142700
     34 H9          7.1240    1.4890   -0.5130 ho        1 1FT      0.396000
     35 H10         6.1600    1.7530   -3.8590 h1        1 1FT      0.052700
     36 H11         4.9360   -0.5950   -2.8390 ho        1 1FT      0.463000
     37 H12         3.2640    1.0130   -2.9570 h2        1 1FT      0.172700
     38 H13         1.6690    1.5180   -6.4780 h1        1 1FT      0.068700
     39 H14         2.7300   -0.8490   -6.1610 h1        1 1FT      0.092700
     40 H15        -0.0660   -0.4370   -6.2370 ho        1 1FT      0.406000
     41 H16         0.7870   -2.1590   -4.7710 h1        1 1FT      0.058700
     42 H17         2.9960   -1.4510   -3.2160 ho        1 1FT      0.481000
     43 H18         1.4930   -0.0830   -2.5940 h2        1 1FT      0.145700
     44 H19        -0.2180   -1.0120   -1.8010 ho        1 1FT      0.470000
     45 H20         1.4700    2.0220   -3.5370 h1        1 1FT      0.134700
     46 H21        -0.5290    2.2570   -5.9350 h1        1 1FT      0.028200
     47 H22         0.6490    3.5540   -5.3760 h1        1 1FT      0.028200
     48 H23        -1.0400    2.5180   -3.4410 ho        1 1FT      0.434000
@<TRIPOS>BOND
     1    1    2 1   
     2    2    3 1   
     3    2    4 1   
     4    2    5 1   
     5    5    6 1   
     6    6    7 1   
     7    6   28 1   
     8    6   29 1   
     9    7    8 1   
    10    7    9 1   
    11    7   30 1   
    12    8   15 1   
    13    9   10 1   
    14    9   11 1   
    15    9   31 1   
    16   10   32 1   
    17   11   12 1   
    18   11   13 1   
    19   11   33 1   
    20   12   34 1   
    21   13   14 1   
    22   13   15 1   
    23   13   35 1   
    24   14   36 1   
    25   15   16 1   
    26   15   37 1   
    27   16   17 1   
    28   17   18 1   
    29   17   25 1   
    30   17   38 1   
    31   18   19 1   
    32   18   20 1   
    33   18   39 1   
    34   19   40 1   
    35   20   21 1   
    36   20   22 1   
    37   20   41 1   
    38   21   42 1   
    39   22   23 1   
    40   22   24 1   
    41   22   43 1   
    42   23   44 1   
    43   24   25 1   
    44   25   26 1   
    45   25   45 1   
    46   26   27 1   
    47   26   46 1   
    48   26   47 1   
    49   27   48 1   
@<TRIPOS>SUBSTRUCTURE
     1 1FT         1 TEMP              0 ****  ****    0 ROOT
