@<TRIPOS>MOLECULE
1FV
   70    74     1     0     0
SMALL
bcc


@<TRIPOS>ATOM
      1 CAM        -9.0010    2.2000   -0.0570 cy        1 1FV     -0.081400
      2 CAH        -9.5980    3.1910    0.9640 cy        1 1FV     -0.094400
      3 CAN        -8.8410    2.4790    2.1030 cy        1 1FV     -0.081400
      4 CBF        -8.2640    1.4630    1.0880 cy        1 1FV     -0.165700
      5 CAZ        -6.7580    1.4450    1.0060 c         1 1FV      0.668100
      6 OAA        -6.0360    1.8530    1.9370 o         1 1FV     -0.605100
      7 NAV        -6.2060    0.9600   -0.1680 n         1 1FV     -0.573900
      8 CAI        -4.7940    0.7800   -0.3440 c3        1 1FV      0.091000
      9 CAG        -4.3190   -0.6700   -0.2140 c3        1 1FV     -0.121400
     10 CAJ        -2.8200   -0.7200   -0.5100 c3        1 1FV      0.202800
     11 NAW        -2.2820   -2.0560   -0.4050 nh        1 1FV     -0.843900
     12 C4         -0.9210   -2.2930   -0.5970 ca        1 1FV      0.714200
     13 N3         -0.1330   -1.3280   -1.1610 nb        1 1FV     -0.810000
     14 C5         -0.3820   -3.5810   -0.2440 ca        1 1FV     -0.390900
     15 CBG        -1.2100   -4.6290    0.3480 cx        1 1FV     -0.064400
     16 CAO        -1.7200   -4.5000    1.7650 cx        1 1FV     -0.130900
     17 CAP        -0.6670   -5.5150    1.4390 cx        1 1FV     -0.130900
     18 C6          0.9720   -3.7900   -0.5400 ca        1 1FV      0.487200
     19 N1          1.7730   -2.8830   -1.1200 nb        1 1FV     -0.760000
     20 C2          1.1820   -1.6670   -1.4310 ca        1 1FV      0.894900
     21 NAX         1.9300   -0.6890   -2.1280 nh        1 1FV     -0.703300
     22 CBB         3.3460   -0.6830   -2.0990 ca        1 1FV      0.123600
     23 CAF         4.0290    0.4570   -1.6190 ca        1 1FV     -0.147000
     24 CAD         4.0930   -1.7560   -2.6260 ca        1 1FV     -0.101000
     25 CAB         5.4830   -1.6840   -2.6550 ca        1 1FV     -0.125000
     26 CAC         6.1520   -0.5590   -2.1780 ca        1 1FV     -0.137000
     27 CBA         5.4220    0.5170   -1.6630 ca        1 1FV     -0.076300
     28 CAS         6.1430    1.7520   -1.2070 c3        1 1FV      0.214100
     29 NBH         5.7390    2.2260    0.1120 n3        1 1FV     -0.725600
     30 CAQ         6.3260    3.5260    0.4170 c3        1 1FV      0.129800
     31 CAK         5.9630    4.0130    1.8250 c3        1 1FV      0.126900
     32 OAY         6.2730    3.0400    2.8160 os        1 1FV     -0.416600
     33 CAL         5.6430    1.7900    2.5570 c3        1 1FV      0.126900
     34 CAR         6.0000    1.2540    1.1660 c3        1 1FV      0.129800
     35 H1         -9.7540    1.5710   -0.5770 hc        1 1FV      0.060950
     36 H2         -8.3310    2.6750   -0.8050 hc        1 1FV      0.060950
     37 H3         -9.2890    4.2450    0.8040 hc        1 1FV      0.053700
     38 H4        -10.7040    3.1370    1.0510 hc        1 1FV      0.053700
     39 H5         -8.0630    3.1000    2.5990 hc        1 1FV      0.060950
     40 H6         -9.4970    2.0150    2.8690 hc        1 1FV      0.060950
     41 H7         -8.6300    0.4220    1.2530 hc        1 1FV      0.077700
     42 H8         -6.8060    0.5470   -0.8400 hn        1 1FV      0.306500
     43 H9         -4.5210    1.1570   -1.3730 h1        1 1FV      0.065200
     44 H10        -4.2520    1.4120    0.4180 h1        1 1FV      0.065200
     45 H11        -4.5260   -1.0450    0.8220 hc        1 1FV      0.050700
     46 H12        -4.8750   -1.3280   -0.9310 hc        1 1FV      0.050700
     47 H13        -2.6390   -0.3520   -1.5610 h1        1 1FV      0.055200
     48 H14        -2.2880   -0.0140    0.1930 h1        1 1FV      0.055200
     49 H15        -2.7010   -2.6370    0.2910 hn        1 1FV      0.423800
     50 H16        -1.8930   -5.0950   -0.3960 hc        1 1FV      0.086700
     51 H17        -1.4380   -3.6120    2.3590 hc        1 1FV      0.072700
     52 H18        -2.7450   -4.8410    1.9920 hc        1 1FV      0.072700
     53 H19        -0.9350   -6.5870    1.4330 hc        1 1FV      0.072700
     54 H20         0.3640   -5.3500    1.8010 hc        1 1FV      0.072700
     55 H21         1.4540   -4.7560   -0.2930 h4        1 1FV      0.027100
     56 H22         1.5240    0.2280   -2.1050 hn        1 1FV      0.433800
     57 H23         3.4700    1.3120   -1.2060 ha        1 1FV      0.146000
     58 H24         3.5880   -2.6540   -3.0150 ha        1 1FV      0.156000
     59 H25         6.0580   -2.5290   -3.0630 ha        1 1FV      0.134000
     60 H26         7.2500   -0.5190   -2.2080 ha        1 1FV      0.132000
     61 H27         7.2580    1.5630   -1.2510 h1        1 1FV      0.040700
     62 H28         5.9120    2.5780   -1.9420 h1        1 1FV      0.040700
     63 H30         7.4510    3.5080    0.3250 h1        1 1FV      0.043200
     64 H31         5.9280    4.2680   -0.3300 h1        1 1FV      0.043200
     65 H32         6.5900    4.9010    2.0990 h1        1 1FV      0.053450
     66 H33         4.8740    4.2750    1.8850 h1        1 1FV      0.053450
     67 H34         6.0430    1.1060    3.3490 h1        1 1FV      0.053450
     68 H35         4.5320    1.9010    2.6670 h1        1 1FV      0.053450
     69 H36         5.3700    0.3460    0.9540 h1        1 1FV      0.043200
     70 H37         7.0830    0.9340    1.1770 h1        1 1FV      0.043200
@<TRIPOS>BOND
     1    1    2 1   
     2    1    4 1   
     3    1   35 1   
     4    1   36 1   
     5    2    3 1   
     6    2   37 1   
     7    2   38 1   
     8    3    4 1   
     9    3   39 1   
    10    3   40 1   
    11    4    5 1   
    12    4   41 1   
    13    5    6 2   
    14    5    7 1   
    15    7    8 1   
    16    7   42 1   
    17    8    9 1   
    18    8   43 1   
    19    8   44 1   
    20    9   10 1   
    21    9   45 1   
    22    9   46 1   
    23   10   11 1   
    24   10   47 1   
    25   10   48 1   
    26   11   12 1   
    27   11   49 1   
    28   12   13 ar  
    29   12   14 ar  
    30   13   20 ar  
    31   14   15 1   
    32   14   18 ar  
    33   15   16 1   
    34   15   17 1   
    35   15   50 1   
    36   16   17 1   
    37   16   51 1   
    38   16   52 1   
    39   17   53 1   
    40   17   54 1   
    41   18   19 ar  
    42   18   55 1   
    43   19   20 ar  
    44   20   21 1   
    45   21   22 1   
    46   21   56 1   
    47   22   23 ar  
    48   22   24 ar  
    49   23   27 ar  
    50   23   57 1   
    51   24   25 ar  
    52   24   58 1   
    53   25   26 ar  
    54   25   59 1   
    55   26   27 ar  
    56   26   60 1   
    57   27   28 1   
    58   28   29 1   
    59   28   61 1   
    60   28   62 1   
    61   29   30 1   
    62   29   34 1   
    63   30   31 1   
    64   30   63 1   
    65   30   64 1   
    66   31   32 1   
    67   31   65 1   
    68   31   66 1   
    69   32   33 1   
    70   33   34 1   
    71   33   67 1   
    72   33   68 1   
    73   34   69 1   
    74   34   70 1   
@<TRIPOS>SUBSTRUCTURE
     1 1FV         1 TEMP              0 ****  ****    0 ROOT
