@<TRIPOS>MOLECULE
1FV
   71    75     1     0     0
SMALL
bcc


@<TRIPOS>ATOM
      1 CAM        -3.4320   -1.8240    2.9880 cy        1 1FV     -0.079900
      2 CAH        -2.9120   -3.0840    3.7110 cy        1 1FV     -0.085400
      3 CAN        -2.4670   -2.2250    4.9110 cy        1 1FV     -0.079900
      4 CBF        -2.9510   -0.9470    4.1740 cy        1 1FV     -0.190700
      5 CAZ        -4.0220   -0.1910    4.8850 c         1 1FV      0.569100
      6 OAA        -4.3780   -0.2940    6.0520 o         1 1FV     -0.434100
      7 NAV        -4.7680    0.8220    4.0630 ny        1 1FV     -0.721800
      8 CAI        -4.1490    2.1700    4.1540 c3        1 1FV      0.119800
      9 CAG        -4.9050    3.2320    3.3670 c3        1 1FV     -0.118400
     10 CAJ        -6.2850    3.5600    3.9490 c3        1 1FV      0.189800
     11 NAW        -7.3840    2.9150    3.2720 nu        1 1FV     -0.864900
     12 C4         -8.1110    1.8760    3.8700 ca        1 1FV      0.709200
     13 N3         -7.4580    0.9950    4.6910 nb        1 1FV     -0.911000
     14 C5         -9.4980    1.7000    3.5630 ca        1 1FV     -0.358900
     15 CBG       -10.2170    2.5950    2.6580 cx        1 1FV     -0.100400
     16 CAO       -10.4730    4.0360    3.0350 cx        1 1FV     -0.118900
     17 CAP       -11.6110    3.0640    2.9930 cx        1 1FV     -0.118900
     18 C6        -10.1310    0.5860    4.1490 ca        1 1FV      0.507200
     19 N1         -9.5230   -0.2920    4.9570 nb        1 1FV     -0.722000
     20 C2         -8.1770   -0.0730    5.2050 ca        1 1FV      0.908900
     21 NAX        -7.4280   -1.0100    5.9530 nu        1 1FV     -0.703300
     22 CBB        -8.0910   -2.0300    6.6940 ca        1 1FV      0.086600
     23 CAF        -7.9280   -2.0940    8.0940 ca        1 1FV     -0.133000
     24 CAD        -8.8380   -3.0260    6.0370 ca        1 1FV     -0.099000
     25 CAB        -9.4090   -4.0590    6.7770 ca        1 1FV     -0.119000
     26 CAC        -9.2470   -4.1200    8.1590 ca        1 1FV     -0.118000
     27 CBA        -8.5020   -3.1370    8.8200 ca        1 1FV     -0.066300
     28 CAS        -8.2890   -3.2430   10.3040 c3        1 1FV      0.208100
     29 NBH        -8.4920   -1.9890   11.0210 n3        1 1FV     -0.730600
     30 CAQ        -7.9910   -2.0660   12.3900 c3        1 1FV      0.127800
     31 CAK        -8.2620   -0.7820   13.1820 c3        1 1FV      0.127400
     32 OAY        -9.6340   -0.4110   13.1330 os        1 1FV     -0.408600
     33 CAL       -10.1070   -0.2660   11.8000 c3        1 1FV      0.127400
     34 CAR        -9.8800   -1.5400   10.9790 c3        1 1FV      0.127800
     35 H1         -2.9080   -1.5950    2.0350 hc        1 1FV      0.076200
     36 H2         -4.5300   -1.8240    2.8240 hc        1 1FV      0.076200
     37 H3         -3.7030   -3.8260    3.9520 hc        1 1FV      0.078700
     38 H4         -2.0760   -3.5920    3.1840 hc        1 1FV      0.078700
     39 H5         -3.0140   -2.4350    5.8560 hc        1 1FV      0.076200
     40 H6         -1.3730   -2.2270    5.1010 hc        1 1FV      0.076200
     41 H7         -2.1190   -0.2490    3.9090 hc        1 1FV      0.107700
     42 H8         -4.7930    0.5190    3.0880 hn        1 1FV      0.485300
     43 H9         -3.0920    2.1010    3.7670 hx        1 1FV      0.095200
     44 H10        -4.1150    2.4520    5.2470 hx        1 1FV      0.095200
     45 H11        -4.2790    4.1650    3.4200 hc        1 1FV      0.087200
     46 H12        -4.9770    2.9460    2.2850 hc        1 1FV      0.087200
     47 H13        -6.2850    3.3280    5.0530 h1        1 1FV      0.069200
     48 H14        -6.4260    4.6780    3.8500 h1        1 1FV      0.069200
     49 H15        -7.9630    3.5390    2.7430 hn        1 1FV      0.444800
     50 H16        -9.9960    2.3770    1.5910 hc        1 1FV      0.094700
     51 H17       -10.1280    4.4070    4.0170 hc        1 1FV      0.081700
     52 H18       -10.3970    4.8090    2.2500 hc        1 1FV      0.081700
     53 H19       -12.3530    3.1350    2.1770 hc        1 1FV      0.081700
     54 H20       -12.0730    2.7400    3.9430 hc        1 1FV      0.081700
     55 H21       -11.2070    0.3940    3.9610 h4        1 1FV      0.052100
     56 H22        -6.6540   -0.6090    6.4520 hn        1 1FV      0.429800
     57 H23        -7.3490   -1.3240    8.6290 ha        1 1FV      0.150000
     58 H24        -8.9860   -2.9940    4.9470 ha        1 1FV      0.146000
     59 H25        -9.9960   -4.8330    6.2600 ha        1 1FV      0.145000
     60 H26        -9.7070   -4.9420    8.7290 ha        1 1FV      0.145000
     61 H27        -7.2170   -3.5600   10.4720 h1        1 1FV      0.047700
     62 H28        -8.9510   -4.0650   10.7120 h1        1 1FV      0.047700
     63 H30        -8.4470   -2.9340   12.9500 h1        1 1FV      0.044950
     64 H31        -6.8790   -2.2280   12.3420 h1        1 1FV      0.044950
     65 H32        -8.0570   -0.9510   14.2710 h1        1 1FV      0.054950
     66 H33        -7.6310    0.0620   12.7960 h1        1 1FV      0.054950
     67 H34       -11.2050   -0.0700   11.9120 h1        1 1FV      0.054950
     68 H35        -9.6050    0.6130   11.3170 h1        1 1FV      0.054950
     69 H36       -10.1370   -1.3310    9.9030 h1        1 1FV      0.044950
     70 H37       -10.5850   -2.3370   11.3580 h1        1 1FV      0.044950
     71 HAV2       -5.7850    0.8900    4.4250 hn        1 1FV      0.485300
@<TRIPOS>BOND
     1    1    2 1   
     2    1    4 1   
     3    1   35 1   
     4    1   36 1   
     5    2    3 1   
     6    2   37 1   
     7    2   38 1   
     8    3    4 1   
     9    3   39 1   
    10    3   40 1   
    11    4    5 1   
    12    4   41 1   
    13    5    6 2   
    14    5    7 1   
    15    7    8 1   
    16    7   42 1   
    17    7   71 1   
    18    8    9 1   
    19    8   43 1   
    20    8   44 1   
    21    9   10 1   
    22    9   45 1   
    23    9   46 1   
    24   10   11 1   
    25   10   47 1   
    26   10   48 1   
    27   11   12 1   
    28   11   49 1   
    29   12   13 ar  
    30   12   14 ar  
    31   13   20 ar  
    32   14   15 1   
    33   14   18 ar  
    34   15   16 1   
    35   15   17 1   
    36   15   50 1   
    37   16   17 1   
    38   16   51 1   
    39   16   52 1   
    40   17   53 1   
    41   17   54 1   
    42   18   19 ar  
    43   18   55 1   
    44   19   20 ar  
    45   20   21 1   
    46   21   22 1   
    47   21   56 1   
    48   22   23 ar  
    49   22   24 ar  
    50   23   27 ar  
    51   23   57 1   
    52   24   25 ar  
    53   24   58 1   
    54   25   26 ar  
    55   25   59 1   
    56   26   27 ar  
    57   26   60 1   
    58   27   28 1   
    59   28   29 1   
    60   28   61 1   
    61   28   62 1   
    62   29   30 1   
    63   29   34 1   
    64   30   31 1   
    65   30   63 1   
    66   30   64 1   
    67   31   32 1   
    68   31   65 1   
    69   31   66 1   
    70   32   33 1   
    71   33   34 1   
    72   33   67 1   
    73   33   68 1   
    74   34   69 1   
    75   34   70 1   
@<TRIPOS>SUBSTRUCTURE
     1 1FV         1 TEMP              0 ****  ****    0 ROOT
