@<TRIPOS>MOLECULE
1FV
   71    75     1     0     0
SMALL
bcc


@<TRIPOS>ATOM
      1 CAM        -3.3780   -1.7970    3.0390 cy        1 1FV     -0.079900
      2 CAH        -2.8840   -3.0750    3.7500 cy        1 1FV     -0.085400
      3 CAN        -2.4580   -2.2420    4.9750 cy        1 1FV     -0.079900
      4 CBF        -2.9160   -0.9460    4.2520 cy        1 1FV     -0.190700
      5 CAZ        -3.9940   -0.1940    4.9550 c         1 1FV      0.569100
      6 OAA        -4.3760   -0.3150    6.1110 o         1 1FV     -0.434100
      7 NAV        -4.7140    0.8410    4.1360 n4        1 1FV     -0.722800
      8 CAI        -4.0850    2.1810    4.2640 c3        1 1FV      0.119800
      9 CAG        -4.8140    3.2640    3.4830 c3        1 1FV     -0.118400
     10 CAJ        -6.2030    3.5960    4.0450 c3        1 1FV      0.189800
     11 NAW        -7.2950    2.9760    3.3340 nh        1 1FV     -0.864900
     12 C4         -8.0430    1.9330    3.8970 ca        1 1FV      0.709200
     13 N3         -7.4150    1.0300    4.7130 nb        1 1FV     -0.911000
     14 C5         -9.4250    1.7770    3.5590 ca        1 1FV     -0.358900
     15 CBG       -10.1180    2.6960    2.6590 cx        1 1FV     -0.100400
     16 CAO       -10.3680    4.1320    3.0600 cx        1 1FV     -0.118900
     17 CAP       -11.5140    3.1720    2.9760 cx        1 1FV     -0.118900
     18 C6        -10.0800    0.6570    4.1100 ca        1 1FV      0.507200
     19 N1         -9.4970   -0.2430    4.9120 nb        1 1FV     -0.722000
     20 C2         -8.1540   -0.0420    5.1910 ca        1 1FV      0.908900
     21 NAX        -7.4290   -1.0000    5.9340 nh        1 1FV     -0.703300
     22 CBB        -8.1160   -2.0300    6.6410 ca        1 1FV      0.086600
     23 CAF        -7.9820   -2.1230    8.0420 ca        1 1FV     -0.133000
     24 CAD        -8.8590   -3.0050    5.9480 ca        1 1FV     -0.099000
     25 CAB        -9.4540   -4.0470    6.6550 ca        1 1FV     -0.119000
     26 CAC        -9.3200   -4.1380    8.0380 ca        1 1FV     -0.118000
     27 CBA        -8.5810   -3.1770    8.7350 ca        1 1FV     -0.066300
     28 CAS        -8.3980   -3.3140   10.2200 c3        1 1FV      0.208100
     29 NBH        -8.6050   -2.0740   10.9590 n3        1 1FV     -0.730600
     30 CAQ        -8.1330   -2.1840   12.3350 c3        1 1FV      0.127800
     31 CAK        -8.4080   -0.9140   13.1480 c3        1 1FV      0.127400
     32 OAY        -9.7750   -0.5290   13.0800 os        1 1FV     -0.408600
     33 CAL       -10.2190   -0.3520   11.7400 c3        1 1FV      0.127400
     34 CAR        -9.9870   -1.6110   10.8980 c3        1 1FV      0.127800
     35 H1         -4.4730   -1.7840    2.8530 hc        1 1FV      0.076200
     36 H2         -2.8330   -1.5550    2.1020 hc        1 1FV      0.076200
     37 H3         -2.0420   -3.5800    3.2310 hc        1 1FV      0.078700
     38 H4         -3.6870   -3.8140    3.9600 hc        1 1FV      0.078700
     39 H5         -1.3680   -2.2570    5.1880 hc        1 1FV      0.076200
     40 H6         -3.0270   -2.4650    5.9040 hc        1 1FV      0.076200
     41 H7         -2.0720   -0.2510    4.0170 hc        1 1FV      0.107700
     42 H8         -5.7380    0.9120    4.4790 hn        1 1FV      0.485300
     43 H9         -4.0690    2.4420    5.3630 hx        1 1FV      0.095200
     44 H10        -3.0210    2.1090    3.8970 hx        1 1FV      0.095200
     45 H11        -4.1800    4.1900    3.5650 hc        1 1FV      0.087200
     46 H12        -4.8690    2.9990    2.3940 hc        1 1FV      0.087200
     47 H13        -6.2260    3.3430    5.1440 h1        1 1FV      0.069200
     48 H14        -6.3310    4.7170    3.9650 h1        1 1FV      0.069200
     49 H15        -7.8570    3.6160    2.8070 hn        1 1FV      0.444800
     50 H16        -9.8780    2.4970    1.5910 hc        1 1FV      0.094700
     51 H17       -10.2690    4.9200    2.2910 hc        1 1FV      0.081700
     52 H18       -10.0380    4.4800    4.0550 hc        1 1FV      0.081700
     53 H19       -11.9980    2.8340    3.9100 hc        1 1FV      0.081700
     54 H20       -12.2390    3.2680    2.1470 hc        1 1FV      0.081700
     55 H21       -11.1540    0.4800    3.8970 h4        1 1FV      0.052100
     56 H22        -6.6620   -0.6170    6.4580 hn        1 1FV      0.429800
     57 H23        -7.4070   -1.3700    8.6050 ha        1 1FV      0.150000
     58 H24        -8.9840   -2.9490    4.8560 ha        1 1FV      0.146000
     59 H25       -10.0380   -4.8050    6.1100 ha        1 1FV      0.145000
     60 H26        -9.8000   -4.9670    8.5820 ha        1 1FV      0.145000
     61 H27        -9.0760   -4.1380   10.5970 h1        1 1FV      0.047700
     62 H28        -7.3330   -3.6450   10.4020 h1        1 1FV      0.047700
     63 H30        -7.0210   -2.3560   12.3070 h1        1 1FV      0.044950
     64 H31        -8.6080   -3.0590   12.8680 h1        1 1FV      0.044950
     65 H32        -7.7610   -0.0690   12.7930 h1        1 1FV      0.054950
     66 H33        -8.2260   -1.1080   14.2380 h1        1 1FV      0.054950
     67 H34        -9.6990    0.5320   11.2860 h1        1 1FV      0.054950
     68 H35       -11.3180   -0.1480   11.8340 h1        1 1FV      0.054950
     69 H36       -10.2200   -1.3770    9.8220 h1        1 1FV      0.044950
     70 H37       -10.7070   -2.4080   11.2460 h1        1 1FV      0.044950
     71 HAV2       -4.7230    0.5560    3.1550 hn        1 1FV      0.485300
@<TRIPOS>BOND
     1    1    2 1   
     2    1    4 1   
     3    1   35 1   
     4    1   36 1   
     5    2    3 1   
     6    2   37 1   
     7    2   38 1   
     8    3    4 1   
     9    3   39 1   
    10    3   40 1   
    11    4    5 1   
    12    4   41 1   
    13    5    6 2   
    14    5    7 1   
    15    7    8 1   
    16    7   42 1   
    17    7   71 1   
    18    8    9 1   
    19    8   43 1   
    20    8   44 1   
    21    9   10 1   
    22    9   45 1   
    23    9   46 1   
    24   10   11 1   
    25   10   47 1   
    26   10   48 1   
    27   11   12 1   
    28   11   49 1   
    29   12   13 ar  
    30   12   14 ar  
    31   13   20 ar  
    32   14   15 1   
    33   14   18 ar  
    34   15   16 1   
    35   15   17 1   
    36   15   50 1   
    37   16   17 1   
    38   16   51 1   
    39   16   52 1   
    40   17   53 1   
    41   17   54 1   
    42   18   19 ar  
    43   18   55 1   
    44   19   20 ar  
    45   20   21 1   
    46   21   22 1   
    47   21   56 1   
    48   22   23 ar  
    49   22   24 ar  
    50   23   27 ar  
    51   23   57 1   
    52   24   25 ar  
    53   24   58 1   
    54   25   26 ar  
    55   25   59 1   
    56   26   27 ar  
    57   26   60 1   
    58   27   28 1   
    59   28   29 1   
    60   28   61 1   
    61   28   62 1   
    62   29   30 1   
    63   29   34 1   
    64   30   31 1   
    65   30   63 1   
    66   30   64 1   
    67   31   32 1   
    68   31   65 1   
    69   31   66 1   
    70   32   33 1   
    71   33   34 1   
    72   33   67 1   
    73   33   68 1   
    74   34   69 1   
    75   34   70 1   
@<TRIPOS>SUBSTRUCTURE
     1 1FV         1 TEMP              0 ****  ****    0 ROOT
