@<TRIPOS>MOLECULE
1FV
   70    70     1     0     0
SMALL
bcc


@<TRIPOS>ATOM
      1 CAM         7.3730    6.4460   -2.8360 cy        1 1FV     -0.160000
      2 CAH         7.6820    7.8530   -2.1820 cy        1 1FV     -0.173000
      3 CAN         6.1440    7.9770   -1.8500 cy        1 1FV     -0.160000
      4 CBF         5.9570    6.6540   -2.4810 cy        1 1FV     -0.155000
      5 CAZ         5.3210    5.5470   -1.5580 c2        1 1FV      0.312000
      6 OAA         5.7550    5.3700   -0.4360 o         1 1FV     -0.365000
      7 NAV         4.2350    4.7400   -2.0450 n         1 1FV     -0.383000
      8 CAI         3.6050    3.7760   -1.1740 c3        1 1FV     -0.025000
      9 CAG         2.5380    2.9980   -1.9580 c3        1 1FV     -0.200000
     10 CAJ         1.7260    2.1180   -0.9870 c3        1 1FV     -0.035000
     11 NAW         0.3650    2.0070   -1.4590 n3        1 1FV     -0.287000
     12 C4         -0.4500    0.8970   -1.0420 c2        1 1FV      0.191000
     13 N3          0.1200   -0.3030   -0.8030 n2        1 1FV     -0.283000
     14 C5         -1.8180    1.0240   -1.0120 c1        1 1FV     -0.252000
     15 CBG        -2.4710    2.4150   -1.2030 cu        1 1FV     -0.112000
     16 CAO        -1.5560    3.6080   -0.9980 cx        1 1FV     -0.209000
     17 CAP        -2.5960    3.2620    0.0500 cx        1 1FV     -0.209000
     18 C6         -2.5980   -0.0660   -0.7390 c2        1 1FV      0.022000
     19 N1         -2.0240   -1.2650   -0.5000 n1        1 1FV     -0.232000
     20 C2         -0.6630   -1.3910   -0.5300 c1        1 1FV      0.176000
     21 NAX        -0.0480   -2.6690   -0.2440 n3        1 1FV     -0.228000
     22 CBB        -0.8620   -3.8530   -0.1390 c2        1 1FV      0.044000
     23 CAF        -1.2520   -4.3240    1.1160 c2        1 1FV     -0.085000
     24 CAD        -1.2620   -4.5260   -1.2900 c1        1 1FV     -0.165000
     25 CAB        -2.0500   -5.6710   -1.1890 c1        1 1FV     -0.128500
     26 CAC        -2.4390   -6.1410    0.0620 c1        1 1FV     -0.128500
     27 CBA        -2.0390   -5.4670    1.2160 c1        1 1FV     -0.072000
     28 CAS        -2.3610   -6.0610    2.6030 c3        1 1FV     -0.028000
     29 NBH        -3.6790   -5.6360    3.0160 n3        1 1FV     -0.249000
     30 CAQ        -3.6760   -5.3660    4.4090 c3        1 1FV     -0.107000
     31 CAK        -5.0660   -5.0570    4.9410 c3        1 1FV     -0.022500
     32 OAY        -6.0180   -6.0470    4.5780 os        1 1FV     -0.275000
     33 CAL        -6.0210   -6.3170    3.1860 c3        1 1FV     -0.022500
     34 CAR        -4.6320   -6.6260    2.6520 c3        1 1FV     -0.107000
     35 H1          7.5280    6.4300   -3.8070 hc        1 1FV      0.100250
     36 H2          7.7850    5.6960   -2.3490 hc        1 1FV      0.100250
     37 H3          8.2440    7.7880   -1.3800 hc        1 1FV      0.093000
     38 H4          7.9890    8.5190   -2.8340 hc        1 1FV      0.093000
     39 H5          5.9570    7.9720   -0.8840 hc        1 1FV      0.100250
     40 H6          5.7010    8.7050   -2.3430 hc        1 1FV      0.100250
     41 H7          5.3520    6.6680   -3.2570 hc        1 1FV      0.117000
     42 H8          3.9340    4.8460   -2.9050 hn        1 1FV      0.220000
     43 H9          4.2830    3.1500   -0.8330 h1        1 1FV      0.104000
     44 H10         3.1820    4.2430   -0.4220 h1        1 1FV      0.104000
     45 H11         1.9360    3.6290   -2.4080 hc        1 1FV      0.090000
     46 H12         2.9760    2.4260   -2.6310 hc        1 1FV      0.090000
     47 H13         2.1300    1.2240   -0.9410 h1        1 1FV      0.094500
     48 H14         1.7310    2.5270   -0.0910 h1        1 1FV      0.094500
     49 H15         0.0530    2.5910   -2.0910 hn        1 1FV      0.219000
     50 H16        -3.1830    2.5330   -1.8690 ha        1 1FV      0.125000
     51 H17        -0.6290    3.3970   -0.7620 hc        1 1FV      0.112000
     52 H18        -1.7540    4.3990   -1.5520 hc        1 1FV      0.112000
     53 H19        -3.3790    3.8570    0.0880 hc        1 1FV      0.112000
     54 H20        -2.2500    2.8550    0.8750 hc        1 1FV      0.112000
     55 H21        -3.5780    0.0240   -0.7170 h4        1 1FV      0.163000
     56 H22         0.8570   -2.7250   -0.1290 hn        1 1FV      0.230000
     57 H23        -0.9700   -3.8490    1.9270 ha        1 1FV      0.170000
     58 H24        -0.9890   -4.1960   -2.1700 ha        1 1FV      0.131000
     59 H25        -2.3320   -6.1470   -2.0040 ha        1 1FV      0.132000
     60 H26        -2.9940   -6.9470    0.1320 ha        1 1FV      0.132000
     61 H27        -2.3330   -7.0390    2.5540 h1        1 1FV      0.079000
     62 H28        -1.6990   -5.7490    3.2530 h1        1 1FV      0.079000
     63 H30        -3.3200   -6.1510    4.8850 h1        1 1FV      0.083750
     64 H31        -3.0910   -4.5950    4.5820 h1        1 1FV      0.083750
     65 H32        -5.0260   -4.9990    5.9230 h1        1 1FV      0.091750
     66 H33        -5.3570   -4.1910    4.5840 h1        1 1FV      0.091750
     67 H34        -6.6060   -7.0860    3.0130 h1        1 1FV      0.091750
     68 H35        -6.3760   -5.5340    2.7110 h1        1 1FV      0.091750
     69 H36        -4.6730   -6.6830    1.6710 h1        1 1FV      0.083750
     70 H37        -4.3400   -7.4950    3.0100 h1        1 1FV      0.083750
@<TRIPOS>BOND
     1    1    2 1   
     2    1    4 1   
     3    1   35 1   
     4    1   36 1   
     5    2    3 1   
     6    2   37 1   
     7    2   38 1   
     8    3    4 1   
     9    3   39 1   
    10    3   40 1   
    11    4    5 1   
    12    4   41 1   
    13    5    6 1   
    14    5    7 1   
    15    7    8 1   
    16    7   42 1   
    17    8    9 1   
    18    8   43 1   
    19    8   44 1   
    20    9   10 1   
    21    9   45 1   
    22    9   46 1   
    23   10   11 1   
    24   10   47 1   
    25   10   48 1   
    26   11   12 1   
    27   11   49 1   
    28   12   13 1   
    29   12   14 1   
    30   13   20 1   
    31   14   18 1   
    32   15   16 1   
    33   15   17 1   
    34   15   50 1   
    35   16   17 1   
    36   16   51 1   
    37   16   52 1   
    38   17   53 1   
    39   17   54 1   
    40   18   19 1   
    41   18   55 1   
    42   20   21 1   
    43   21   22 1   
    44   21   56 1   
    45   22   23 1   
    46   22   24 1   
    47   23   27 1   
    48   23   57 1   
    49   24   58 1   
    50   25   26 1   
    51   25   59 1   
    52   26   60 1   
    53   27   28 1   
    54   28   29 1   
    55   28   61 1   
    56   28   62 1   
    57   29   30 1   
    58   29   34 1   
    59   30   31 1   
    60   30   63 1   
    61   30   64 1   
    62   31   32 1   
    63   31   65 1   
    64   31   66 1   
    65   32   33 1   
    66   33   34 1   
    67   33   67 1   
    68   33   68 1   
    69   34   69 1   
    70   34   70 1   
@<TRIPOS>SUBSTRUCTURE
     1 1FV         1 TEMP              0 ****  ****    0 ROOT
