@<TRIPOS>MOLECULE
1FV
   73    77     1     0     0
SMALL
bcc


@<TRIPOS>ATOM
      1 CAM        -0.0740   -0.5340   -0.0820 cy        1 1FV     -0.074900
      2 CAH         1.4380   -0.2660    0.0770 cy        1 1FV     -0.080400
      3 CAN         1.1510    1.1820    0.5180 cy        1 1FV     -0.074900
      4 CBF        -0.3760    0.9370    0.3150 cy        1 1FV     -0.200700
      5 CAZ        -1.1780    1.1310    1.5500 c         1 1FV      0.591100
      6 OAA        -0.9320    1.6630    2.6110 o         1 1FV     -0.384100
      7 NAV        -2.6220    0.5370    1.4450 n4        1 1FV     -0.706800
      8 CAI        -3.4090    0.7160    2.6900 c3        1 1FV      0.103800
      9 CAG        -4.8390    0.1790    2.6110 c3        1 1FV     -0.134400
     10 CAJ        -5.5260    0.4530    3.9500 c3        1 1FV      0.110800
     11 NAW        -6.9430   -0.0370    3.9830 n4        1 1FV     -0.742700
     12 C4         -7.6010    0.2440    5.2840 ca        1 1FV      0.463200
     13 N3         -7.5020   -0.7550    6.2220 nb        1 1FV     -0.671000
     14 C5         -8.3080    1.4500    5.4990 ca        1 1FV     -0.122900
     15 CBG        -8.4330    2.5290    4.5360 cx        1 1FV     -0.214400
     16 CAO        -8.6720    3.9660    4.9920 cx        1 1FV     -0.061900
     17 CAP        -9.7800    3.2240    4.3400 cx        1 1FV     -0.061900
     18 C6         -8.9420    1.5450    6.7910 ca        1 1FV      0.476200
     19 N1         -8.8770    0.6010    7.7220 nb        1 1FV     -0.590000
     20 C2         -8.1480   -0.5360    7.3960 ca        1 1FV      0.751900
     21 NAX        -8.1040   -1.6130    8.4360 n4        1 1FV     -0.597100
     22 CBB        -9.3810   -2.3370    8.5280 ca        1 1FV     -0.094400
     23 CAF       -10.3780   -1.8570    9.3960 ca        1 1FV     -0.069000
     24 CAD        -9.5530   -3.5270    7.7960 ca        1 1FV     -0.115000
     25 CAB       -10.7330   -4.2450    7.9660 ca        1 1FV     -0.097000
     26 CAC       -11.7230   -3.7930    8.8430 ca        1 1FV     -0.057000
     27 CBA       -11.5510   -2.6020    9.5600 ca        1 1FV     -0.039300
     28 CAS       -12.6500   -2.1230   10.4730 c3        1 1FV      0.196100
     29 NBH       -12.1520   -1.4580   11.6680 n3        1 1FV     -0.748600
     30 CAQ       -11.7710   -2.4070   12.7120 c3        1 1FV      0.123300
     31 CAK       -11.3220   -1.7100   14.0030 c3        1 1FV      0.126400
     32 OAY       -12.2970   -0.7820   14.4550 os        1 1FV     -0.386600
     33 CAL       -12.6100    0.1950   13.4730 c3        1 1FV      0.126400
     34 CAR       -13.0890   -0.4510   12.1670 c3        1 1FV      0.123300
     35 H1         -0.3850   -0.7760   -1.1230 hc        1 1FV      0.084700
     36 H2         -0.4700   -1.2960    0.6210 hc        1 1FV      0.084700
     37 H3          1.9310   -0.8900    0.8540 hc        1 1FV      0.096700
     38 H4          2.0100   -0.3440   -0.8740 hc        1 1FV      0.096700
     39 H5          1.4420    1.4160    1.5650 hc        1 1FV      0.084700
     40 H6          1.5500    1.9640   -0.1670 hc        1 1FV      0.084700
     41 H7         -0.8070    1.5510   -0.5160 hc        1 1FV      0.128700
     42 H8         -3.0930    0.9960    0.6580 hn        1 1FV      0.459800
     43 H9         -2.8470    0.1980    3.5240 hx        1 1FV      0.125200
     44 H10        -3.4240    1.8220    2.9250 hx        1 1FV      0.125200
     45 H11        -5.3970    0.6850    1.7760 hc        1 1FV      0.090200
     46 H12        -4.8260   -0.9250    2.3980 hc        1 1FV      0.090200
     47 H13        -5.5430    1.5640    4.1590 hx        1 1FV      0.126700
     48 H14        -4.9670   -0.0620    4.7860 hx        1 1FV      0.126700
     49 H15        -7.4970    0.4280    3.2470 hn        1 1FV      0.480800
     50 H16        -7.8020    2.4280    3.6290 hc        1 1FV      0.075700
     51 H17        -8.1490    4.7690    4.4330 hc        1 1FV      0.113200
     52 H18        -8.7160    4.1930    6.0740 hc        1 1FV      0.113200
     53 H19       -10.6450    2.8870    4.9430 hc        1 1FV      0.113200
     54 H20       -10.0780    3.4800    3.3030 hc        1 1FV      0.113200
     55 H21        -9.5360    2.4510    7.0590 h4        1 1FV      0.108100
     56 H22        -7.3520   -2.2830    8.2140 hn        1 1FV      0.490300
     57 H23       -10.2510   -0.9170    9.9620 ha        1 1FV      0.185000
     58 H24        -8.7750   -3.9100    7.1180 ha        1 1FV      0.148000
     59 H25       -10.8800   -5.1890    7.4120 ha        1 1FV      0.182000
     60 H26       -12.6460   -4.3880    8.9750 ha        1 1FV      0.186000
     61 H27       -13.3130   -3.0050   10.7240 h1        1 1FV      0.071200
     62 H28       -13.2760   -1.3940    9.8770 h1        1 1FV      0.071200
     63 H30       -12.6210   -3.1050   12.9660 h1        1 1FV      0.048700
     64 H31       -10.9180   -3.0260   12.3190 h1        1 1FV      0.048700
     65 H32       -11.2390   -2.4580   14.8360 h1        1 1FV      0.063200
     66 H33       -10.3410   -1.1880   13.8520 h1        1 1FV      0.063200
     67 H34       -13.4410    0.7960   13.9310 h1        1 1FV      0.063200
     68 H35       -11.7170    0.8470   13.2890 h1        1 1FV      0.063200
     69 H36       -14.1120   -0.8940   12.3430 h1        1 1FV      0.048700
     70 H37       -13.1850    0.3520   11.3850 h1        1 1FV      0.048700
     71 HAV2       -2.5290   -0.4600    1.2200 hn        1 1FV      0.459800
     72 HAW2       -6.9560   -1.0540    3.8000 hn        1 1FV      0.480800
     73 HAX2       -7.9100   -1.1690    9.3520 hn        1 1FV      0.490300
@<TRIPOS>BOND
     1    1    2 1   
     2    1    4 1   
     3    1   35 1   
     4    1   36 1   
     5    2    3 1   
     6    2   37 1   
     7    2   38 1   
     8    3    4 1   
     9    3   39 1   
    10    3   40 1   
    11    4    5 1   
    12    4   41 1   
    13    5    6 2   
    14    5    7 1   
    15    7    8 1   
    16    7   42 1   
    17    7   71 1   
    18    8    9 1   
    19    8   43 1   
    20    8   44 1   
    21    9   10 1   
    22    9   45 1   
    23    9   46 1   
    24   10   11 1   
    25   10   47 1   
    26   10   48 1   
    27   11   12 1   
    28   11   49 1   
    29   11   72 1   
    30   12   13 ar  
    31   12   14 ar  
    32   13   20 ar  
    33   14   15 1   
    34   14   18 ar  
    35   15   16 1   
    36   15   17 1   
    37   15   50 1   
    38   16   17 1   
    39   16   51 1   
    40   16   52 1   
    41   17   53 1   
    42   17   54 1   
    43   18   19 ar  
    44   18   55 1   
    45   19   20 ar  
    46   20   21 1   
    47   21   22 1   
    48   21   56 1   
    49   21   73 1   
    50   22   23 ar  
    51   22   24 ar  
    52   23   27 ar  
    53   23   57 1   
    54   24   25 ar  
    55   24   58 1   
    56   25   26 ar  
    57   25   59 1   
    58   26   27 ar  
    59   26   60 1   
    60   27   28 1   
    61   28   29 1   
    62   28   61 1   
    63   28   62 1   
    64   29   30 1   
    65   29   34 1   
    66   30   31 1   
    67   30   63 1   
    68   30   64 1   
    69   31   32 1   
    70   31   65 1   
    71   31   66 1   
    72   32   33 1   
    73   33   34 1   
    74   33   67 1   
    75   33   68 1   
    76   34   69 1   
    77   34   70 1   
@<TRIPOS>SUBSTRUCTURE
     1 1FV         1 TEMP              0 ****  ****    0 ROOT
