@<TRIPOS>MOLECULE
1FW
   49    52     1     0     0
SMALL
bcc


@<TRIPOS>ATOM
      1 O26         0.0780   -0.0690   -0.1830 o         1 1FW     -0.623500
      2 C25         1.3200   -0.0410   -0.1090 c         1 1FW      0.712100
      3 C27         2.0720   -0.0690    1.1640 ca        1 1FW     -0.165600
      4 C28         1.3710   -0.1290    2.3720 ca        1 1FW     -0.100000
      5 C5          3.4910   -0.0310    1.1390 ca        1 1FW      0.164400
      6 N6          4.1930    0.0230   -0.0740 nc        1 1FW     -0.606100
      7 C4          4.1910   -0.0540    2.3700 ca        1 1FW     -0.096000
      8 C3          3.5010   -0.1120    3.5660 ca        1 1FW     -0.128000
      9 C2          2.0870   -0.1510    3.5750 ca        1 1FW      0.105900
     10 F1          1.4280   -0.2090    4.7560 f         1 1FW     -0.133900
     11 N8          2.1010    0.0210   -1.2880 n         1 1FW     -0.402300
     12 C7          3.4990    0.0460   -1.1830 cd        1 1FW      0.494800
     13 C9          1.4610    0.1090   -2.5860 c3        1 1FW      0.040700
     14 C17         1.9120   -1.0760   -3.4820 c         1 1FW      0.639100
     15 N19         0.9750   -2.0560   -3.7370 n         1 1FW     -0.510400
     16 C20         1.2170   -3.1640   -4.5530 cc        1 1FW      0.472300
     17 N21         0.2690   -4.1010   -4.8150 nd        1 1FW     -0.680000
     18 C22         0.8070   -5.0610   -5.6430 cd        1 1FW      0.354200
     19 C23         2.1320   -4.8650   -6.0070 cc        1 1FW     -0.311400
     20 S24         2.7410   -3.4770   -5.3230 ss        1 1FW      0.023700
     21 O18         3.0670   -1.1210   -3.9470 o         1 1FW     -0.594100
     22 C10         1.7630    1.3900   -3.3780 c3        1 1FW     -0.088400
     23 C11         1.3350    2.6680   -2.6770 c3        1 1FW     -0.063700
     24 C12         1.7630    3.8610   -3.5260 c3        1 1FW     -0.078400
     25 C13         1.3430    5.1700   -2.8910 c3        1 1FW     -0.075400
     26 C14        -0.1500    5.2040   -2.6420 c3        1 1FW     -0.078400
     27 C15        -0.5880    4.0220   -1.8030 c3        1 1FW     -0.075400
     28 C16        -0.1650    2.7070   -2.4250 c3        1 1FW     -0.078400
     29 H1          0.2700   -0.1590    2.3690 ha        1 1FW      0.175000
     30 H2          5.2930   -0.0250    2.3690 ha        1 1FW      0.162000
     31 H3          4.0420   -0.1310    4.5250 ha        1 1FW      0.156000
     32 H4          4.0520    0.0670   -2.1530 h5        1 1FW      0.084800
     33 H5          0.3410    0.0650   -2.4090 h1        1 1FW      0.113700
     34 H6          0.0740   -1.9940   -3.3100 hn        1 1FW      0.349500
     35 H7          0.1660   -5.8960   -5.9510 h4        1 1FW      0.045100
     36 H8          2.7040   -5.5260   -6.6540 h4        1 1FW      0.183000
     37 H9          2.8610    1.4380   -3.6060 hc        1 1FW      0.064700
     38 H10         1.2210    1.3040   -4.3580 hc        1 1FW      0.064700
     39 H11         1.8620    2.7410   -1.6840 hc        1 1FW      0.054700
     40 H12         2.8770    3.8470   -3.6550 hc        1 1FW      0.044200
     41 H13         1.3030    3.7750   -4.5460 hc        1 1FW      0.044200
     42 H14         1.6340    6.0190   -3.5620 hc        1 1FW      0.042450
     43 H15         1.8880    5.3060   -1.9200 hc        1 1FW      0.042450
     44 H16        -0.6930    5.1890   -3.6230 hc        1 1FW      0.040700
     45 H17        -0.4230    6.1580   -2.1200 hc        1 1FW      0.040700
     46 H18        -0.1440    4.1080   -0.7770 hc        1 1FW      0.042450
     47 H19        -1.7040    4.0350   -1.6880 hc        1 1FW      0.042450
     48 H20        -0.7100    2.5560   -3.3940 hc        1 1FW      0.044200
     49 H21        -0.4540    1.8700   -1.7340 hc        1 1FW      0.044200
@<TRIPOS>BOND
     1    1    2 2   
     2    2    3 1   
     3    2   11 1   
     4    3    4 ar  
     5    3    5 ar  
     6    4    9 ar  
     7    4   29 1   
     8    5    6 1   
     9    5    7 ar  
    10    6   12 2   
    11    7    8 ar  
    12    7   30 1   
    13    8    9 ar  
    14    8   31 1   
    15    9   10 1   
    16   11   12 1   
    17   11   13 1   
    18   12   32 1   
    19   13   14 1   
    20   13   22 1   
    21   13   33 1   
    22   14   15 1   
    23   14   21 2   
    24   15   16 1   
    25   15   34 1   
    26   16   17 2   
    27   16   20 1   
    28   17   18 1   
    29   18   19 2   
    30   18   35 1   
    31   19   20 1   
    32   19   36 1   
    33   22   23 1   
    34   22   37 1   
    35   22   38 1   
    36   23   24 1   
    37   23   28 1   
    38   23   39 1   
    39   24   25 1   
    40   24   40 1   
    41   24   41 1   
    42   25   26 1   
    43   25   42 1   
    44   25   43 1   
    45   26   27 1   
    46   26   44 1   
    47   26   45 1   
    48   27   28 1   
    49   27   46 1   
    50   27   47 1   
    51   28   48 1   
    52   28   49 1   
@<TRIPOS>SUBSTRUCTURE
     1 1FW         1 TEMP              0 ****  ****    0 ROOT
