@<TRIPOS>MOLECULE
1FW
   49    52     1     0     0
SMALL
bcc


@<TRIPOS>ATOM
      1 O26         0.0650   -0.0630   -0.1910 o         1 1FW     -0.623500
      2 C25         1.3070   -0.0430   -0.1100 c         1 1FW      0.712100
      3 C27         2.0530   -0.0770    1.1660 ca        1 1FW     -0.165600
      4 C28         1.3450   -0.1350    2.3710 ca        1 1FW     -0.100000
      5 C5          3.4720   -0.0480    1.1480 ca        1 1FW      0.164400
      6 N6          4.1810    0.0040   -0.0610 nc        1 1FW     -0.606100
      7 C4          4.1660   -0.0760    2.3830 ca        1 1FW     -0.096000
      8 C3          3.4690   -0.1330    3.5750 ca        1 1FW     -0.128000
      9 C2          2.0550   -0.1630    3.5770 ca        1 1FW      0.105900
     10 F1          1.3890   -0.2180    4.7550 f         1 1FW     -0.133900
     11 N8          2.0940    0.0160   -1.2850 n         1 1FW     -0.402300
     12 C7          3.4920    0.0330   -1.1740 cd        1 1FW      0.494800
     13 C9          1.4620    0.1110   -2.5860 c3        1 1FW      0.040700
     14 C17         1.9100   -1.0750   -3.4820 c         1 1FW      0.639100
     15 N19         0.9680   -2.0490   -3.7460 ns        1 1FW     -0.510400
     16 C20         1.2080   -3.1560   -4.5640 cc        1 1FW      0.472300
     17 N21         0.2550   -4.0860   -4.8350 nd        1 1FW     -0.680000
     18 C22         0.7910   -5.0470   -5.6620 cd        1 1FW      0.354200
     19 C23         2.1200   -4.8590   -6.0170 cc        1 1FW     -0.311400
     20 S24         2.7340   -3.4780   -5.3240 ss        1 1FW      0.023700
     21 O18         3.0670   -1.1280   -3.9410 o         1 1FW     -0.594100
     22 C10         1.7750    1.3910   -3.3750 c3        1 1FW     -0.088400
     23 C11         1.3510    2.6710   -2.6740 c3        1 1FW     -0.063700
     24 C12         1.7900    3.8620   -3.5190 c3        1 1FW     -0.078400
     25 C13         1.3750    5.1720   -2.8840 c3        1 1FW     -0.075400
     26 C14        -0.1200    5.2140   -2.6430 c3        1 1FW     -0.078400
     27 C15        -0.5700    4.0340   -1.8080 c3        1 1FW     -0.075400
     28 C16        -0.1510    2.7170   -2.4300 c3        1 1FW     -0.078400
     29 H1          0.2430   -0.1590    2.3620 ha        1 1FW      0.175000
     30 H2          5.2670   -0.0540    2.3880 ha        1 1FW      0.162000
     31 H3          4.0050   -0.1550    4.5370 ha        1 1FW      0.156000
     32 H4          4.0510    0.0510   -2.1400 h5        1 1FW      0.084800
     33 H5          0.3400    0.0720   -2.4150 h1        1 1FW      0.113700
     34 H6          0.0650   -1.9820   -3.3250 hn        1 1FW      0.349500
     35 H7          0.1470   -5.8760   -5.9770 h4        1 1FW      0.045100
     36 H8          2.6920   -5.5220   -6.6620 h4        1 1FW      0.183000
     37 H9          2.8750    1.4330   -3.5960 hc        1 1FW      0.064700
     38 H10         1.2370    1.3090   -4.3580 hc        1 1FW      0.064700
     39 H11         1.8730    2.7380   -1.6780 hc        1 1FW      0.054700
     40 H12         1.3350    3.7800   -4.5410 hc        1 1FW      0.044200
     41 H13         2.9040    3.8420   -3.6420 hc        1 1FW      0.044200
     42 H14         1.6730    6.0210   -3.5520 hc        1 1FW      0.042450
     43 H15         1.9150    5.3040   -1.9090 hc        1 1FW      0.042450
     44 H16        -0.6580    5.2040   -3.6270 hc        1 1FW      0.040700
     45 H17        -0.3900    6.1690   -2.1210 hc        1 1FW      0.040700
     46 H18        -0.1300    4.1150   -0.7790 hc        1 1FW      0.042450
     47 H19        -1.6850    4.0530   -1.6990 hc        1 1FW      0.042450
     48 H20        -0.6910    2.5710   -3.4020 hc        1 1FW      0.044200
     49 H21        -0.4480    1.8810   -1.7410 hc        1 1FW      0.044200
@<TRIPOS>BOND
     1    1    2 2   
     2    2    3 1   
     3    2   11 1   
     4    3    4 ar  
     5    3    5 ar  
     6    4    9 ar  
     7    4   29 1   
     8    5    6 1   
     9    5    7 ar  
    10    6   12 2   
    11    7    8 ar  
    12    7   30 1   
    13    8    9 ar  
    14    8   31 1   
    15    9   10 1   
    16   11   12 1   
    17   11   13 1   
    18   12   32 1   
    19   13   14 1   
    20   13   22 1   
    21   13   33 1   
    22   14   15 1   
    23   14   21 2   
    24   15   16 1   
    25   15   34 1   
    26   16   17 2   
    27   16   20 1   
    28   17   18 1   
    29   18   19 2   
    30   18   35 1   
    31   19   20 1   
    32   19   36 1   
    33   22   23 1   
    34   22   37 1   
    35   22   38 1   
    36   23   24 1   
    37   23   28 1   
    38   23   39 1   
    39   24   25 1   
    40   24   40 1   
    41   24   41 1   
    42   25   26 1   
    43   25   42 1   
    44   25   43 1   
    45   26   27 1   
    46   26   44 1   
    47   26   45 1   
    48   27   28 1   
    49   27   46 1   
    50   27   47 1   
    51   28   48 1   
    52   28   49 1   
@<TRIPOS>SUBSTRUCTURE
     1 1FW         1 TEMP              0 ****  ****    0 ROOT
