@<TRIPOS>MOLECULE
1FW
   49    46     1     0     0
SMALL
bcc


@<TRIPOS>ATOM
      1 O26         0.6660   -2.3020    1.6480 o         1 1FW     -0.589500
      2 C25         0.9650   -1.1410    1.8420 c1        1 1FW      0.581500
      3 C27         1.8610   -0.7760    2.9980 c1        1 1FW     -0.142000
      4 C28         2.4640   -1.7860    3.7680 c1        1 1FW     -0.040500
      5 C5          2.1180    0.5440    3.2760 cg        1 1FW      0.075000
      6 N6          1.5230    1.5910    2.4520 ne        1 1FW     -0.515700
      7 C4          2.9850    0.8850    4.3300 c1        1 1FW     -0.053500
      8 C3          3.5800   -0.1130    5.0890 c1        1 1FW     -0.053500
      9 C2          3.3200   -1.4480    4.8080 c1        1 1FW      0.076100
     10 F1          4.1480   -2.2270    5.5170 f         1 1FW     -0.099100
     11 N8          0.4300   -0.1340    1.0260 nh        1 1FW     -0.313500
     12 C7          0.6640    1.2400    1.3430 c2        1 1FW      0.525700
     13 C9         -0.2530   -0.4790   -0.1710 c3        1 1FW     -0.017000
     14 C17         0.6680   -0.2730   -1.3530 c         1 1FW      0.639100
     15 N19         1.9070   -0.9700   -1.4190 n         1 1FW     -0.443400
     16 C20         2.7370   -0.8380   -2.5660 c2        1 1FW      0.342800
     17 N21         2.3570   -0.2600   -3.8160 ne        1 1FW     -0.492700
     18 C22         3.5540   -0.4170   -4.8210 cg        1 1FW     -0.059000
     19 C23         4.6320   -1.0930   -4.1390 c1        1 1FW     -0.290900
     20 S24         4.1740   -1.3830   -2.7130 ss        1 1FW      0.141700
     21 O18         0.3200    0.4340   -2.2780 o         1 1FW     -0.587100
     22 C10        -1.4770    0.3990   -0.3260 c3        1 1FW     -0.089400
     23 C11        -2.5840   -0.3690   -0.3140 c3        1 1FW     -0.059700
     24 C12        -3.8090    0.3680    0.3800 c3        1 1FW     -0.078400
     25 C13        -4.1190    1.7220   -0.2370 c3        1 1FW     -0.074400
     26 C14        -3.5870    1.8360   -1.4750 c3        1 1FW     -0.076400
     27 C15        -3.5450    0.8460   -2.4060 c3        1 1FW     -0.074400
     28 C16        -3.2450   -0.4920   -1.7780 c3        1 1FW     -0.078400
     29 H1          2.2820   -2.7240    3.5710 ha        1 1FW      0.119500
     30 H2          3.1670    1.8230    4.5280 ha        1 1FW      0.102000
     31 H3          4.1820    0.1240    5.8210 ha        1 1FW      0.102000
     32 H4          0.2910    1.9410    0.7750 h5        1 1FW      0.069800
     33 H5         -0.5270   -1.4160   -0.1310 h1        1 1FW      0.109700
     34 H6          2.1780   -1.4840   -0.7160 hn        1 1FW      0.364500
     35 H7          3.5660   -0.1110   -5.7480 DU        1 1FW      0.181000
     36 H8          5.5000   -1.3230   -4.5230 DU        1 1FW      0.181000
     37 H9         -1.4250    0.8850   -1.1750 hc        1 1FW      0.069700
     38 H10        -1.5160    1.0390    0.4150 hc        1 1FW      0.069700
     39 H11        -2.4190   -1.2460    0.0820 hc        1 1FW      0.046700
     40 H12        -4.6010   -0.2010    0.3040 hc        1 1FW      0.045450
     41 H13        -3.6030    0.4940    1.3280 hc        1 1FW      0.045450
     42 H14        -3.7510    2.4260    0.3350 hc        1 1FW      0.041700
     43 H15        -5.0910    1.8320   -0.2960 hc        1 1FW      0.041700
     44 H16        -2.6590    2.1210   -1.3440 hc        1 1FW      0.040200
     45 H17        -4.0560    2.5860   -1.9020 hc        1 1FW      0.040200
     46 H18        -2.8490    1.0540   -3.0630 hc        1 1FW      0.041700
     47 H19        -4.4110    0.7980   -2.8620 hc        1 1FW      0.041700
     48 H20        -4.0790   -0.9990   -1.7040 hc        1 1FW      0.045450
     49 H21        -2.6300   -0.9820   -2.3600 hc        1 1FW      0.045450
@<TRIPOS>BOND
     1    1    2 2   
     2    2   11 2   
     3    3    5 3   
     4    4    9 3   
     5    4   29 1   
     6    5    6 1   
     7    6   12 2   
     8    7    8 3   
     9    7   30 1   
    10    8   31 1   
    11    9   10 1   
    12   11   12 1   
    13   11   13 1   
    14   12   32 1   
    15   13   14 1   
    16   13   22 1   
    17   13   33 1   
    18   14   15 1   
    19   14   21 2   
    20   15   16 1   
    21   15   34 1   
    22   16   17 2   
    23   16   20 1   
    24   17   18 1   
    25   18   19 3   
    26   19   20 1   
    27   22   23 1   
    28   22   37 1   
    29   22   38 1   
    30   23   24 1   
    31   23   28 1   
    32   23   39 1   
    33   24   25 1   
    34   24   40 1   
    35   24   41 1   
    36   25   26 1   
    37   25   42 1   
    38   25   43 1   
    39   26   27 1   
    40   26   44 1   
    41   26   45 1   
    42   27   28 1   
    43   27   46 1   
    44   27   47 1   
    45   28   48 1   
    46   28   49 1   
@<TRIPOS>SUBSTRUCTURE
     1 1FW         1 TEMP              0 ****  ****    0 ROOT
