@<TRIPOS>MOLECULE
1FW
   49    52     1     0     0
SMALL
bcc


@<TRIPOS>ATOM
      1 O26         1.2040   -0.1640    1.8040 o         1 1FW     -0.623500
      2 C25         1.4280   -0.5120    0.6310 c         1 1FW      0.712100
      3 C27         2.6270   -1.2680    0.2070 ca        1 1FW     -0.166600
      4 C28         3.5840   -1.6240    1.1620 ca        1 1FW     -0.100000
      5 C5          2.7870   -1.6150   -1.1600 ca        1 1FW      0.164400
      6 N6          1.8230   -1.2630   -2.1160 nc        1 1FW     -0.606100
      7 C4          3.9460   -2.3340   -1.5440 ca        1 1FW     -0.096000
      8 C3          4.8950   -2.6870   -0.6030 ca        1 1FW     -0.128000
      9 C2          4.7200   -2.3340    0.7560 ca        1 1FW      0.105900
     10 F1          5.6600   -2.6890    1.6640 f         1 1FW     -0.133900
     11 N8          0.5060   -0.1890   -0.3940 n         1 1FW     -0.402300
     12 C7          0.7730   -0.5960   -1.7090 cd        1 1FW      0.494800
     13 C9         -0.6740    0.5980   -0.0950 c3        1 1FW      0.040700
     14 C17        -1.9510   -0.1870   -0.4970 c         1 1FW      0.639100
     15 N19        -2.7340   -0.6740    0.5300 n         1 1FW     -0.510400
     16 C20        -3.9310   -1.3660    0.3300 cc        1 1FW      0.472300
     17 N21        -4.7020   -1.8080    1.3580 nd        1 1FW     -0.680000
     18 C22        -5.8060   -2.4490    0.8440 cd        1 1FW      0.354200
     19 C23        -5.8820   -2.4970   -0.5410 cc        1 1FW     -0.311400
     20 S24        -4.5730   -1.7430   -1.2370 ss        1 1FW      0.023700
     21 O18        -2.2470   -0.3550   -1.6960 o         1 1FW     -0.594100
     22 C10        -0.7560    1.9540   -0.8120 c3        1 1FW     -0.088400
     23 C11         0.3950    2.8930   -0.4950 c3        1 1FW     -0.063700
     24 C12         0.2380    4.1610   -1.3290 c3        1 1FW     -0.078400
     25 C13         1.3450    5.1520   -1.0390 c3        1 1FW     -0.075400
     26 C14         1.4060    5.4920    0.4360 c3        1 1FW     -0.078400
     27 C15         1.5570    4.2400    1.2750 c3        1 1FW     -0.075400
     28 C16         0.4590    3.2370    0.9870 c3        1 1FW     -0.078400
     29 H1          3.4390   -1.3450    2.2180 ha        1 1FW      0.175000
     30 H2          4.0870   -2.6120   -2.6010 ha        1 1FW      0.162000
     31 H3          5.7960   -3.2460   -0.8980 ha        1 1FW      0.156000
     32 H4         -0.0090   -0.3320   -2.4610 h5        1 1FW      0.084800
     33 H5         -0.6690    0.7950    1.0230 h1        1 1FW      0.113700
     34 H6         -2.4350   -0.5450    1.4750 hn        1 1FW      0.349500
     35 H7         -6.5350   -2.8680    1.5480 h4        1 1FW      0.045100
     36 H8         -6.6870   -2.9630   -1.1050 h4        1 1FW      0.183000
     37 H9         -0.8050    1.7860   -1.9220 hc        1 1FW      0.064700
     38 H10        -1.7230    2.4310   -0.5010 hc        1 1FW      0.064700
     39 H11         1.3660    2.4030   -0.7860 hc        1 1FW      0.054700
     40 H12         0.2480    3.8950   -2.4180 hc        1 1FW      0.044200
     41 H13        -0.7550    4.6320   -1.1040 hc        1 1FW      0.044200
     42 H14         2.3290    4.7220   -1.3650 hc        1 1FW      0.042450
     43 H15         1.1730    6.0870   -1.6340 hc        1 1FW      0.042450
     44 H16         2.2680    6.1810    0.6280 hc        1 1FW      0.040700
     45 H17         0.4690    6.0320    0.7340 hc        1 1FW      0.040700
     46 H18         2.5540    3.7700    1.0670 hc        1 1FW      0.042450
     47 H19         1.5340    4.5110    2.3620 hc        1 1FW      0.042450
     48 H20        -0.5280    3.6540    1.3160 hc        1 1FW      0.044200
     49 H21         0.6550    2.3040    1.5820 hc        1 1FW      0.044200
@<TRIPOS>BOND
     1    1    2 2   
     2    2    3 1   
     3    2   11 1   
     4    3    4 ar  
     5    3    5 ar  
     6    4    9 ar  
     7    4   29 1   
     8    5    6 1   
     9    5    7 ar  
    10    6   12 2   
    11    7    8 ar  
    12    7   30 1   
    13    8    9 ar  
    14    8   31 1   
    15    9   10 1   
    16   11   12 1   
    17   11   13 1   
    18   12   32 1   
    19   13   14 1   
    20   13   22 1   
    21   13   33 1   
    22   14   15 1   
    23   14   21 2   
    24   15   16 1   
    25   15   34 1   
    26   16   17 2   
    27   16   20 1   
    28   17   18 1   
    29   18   19 2   
    30   18   35 1   
    31   19   20 1   
    32   19   36 1   
    33   22   23 1   
    34   22   37 1   
    35   22   38 1   
    36   23   24 1   
    37   23   28 1   
    38   23   39 1   
    39   24   25 1   
    40   24   40 1   
    41   24   41 1   
    42   25   26 1   
    43   25   42 1   
    44   25   43 1   
    45   26   27 1   
    46   26   44 1   
    47   26   45 1   
    48   27   28 1   
    49   27   46 1   
    50   27   47 1   
    51   28   48 1   
    52   28   49 1   
@<TRIPOS>SUBSTRUCTURE
     1 1FW         1 TEMP              0 ****  ****    0 ROOT
