@<TRIPOS>MOLECULE
1FW
   50    53     1     0     0
SMALL
bcc


@<TRIPOS>ATOM
      1 O26         0.2850   -1.2130   -0.7480 o         1 1FW     -0.684500
      2 C25         1.3050   -0.5730   -0.4050 c         1 1FW      0.717100
      3 C27         1.8100   -0.4800    0.9710 ca        1 1FW     -0.165600
      4 C28         1.0780   -1.0480    2.0190 ca        1 1FW     -0.104000
      5 C5          3.0370    0.1960    1.2140 ca        1 1FW      0.149400
      6 N6          3.7610    0.7720    0.1580 nc        1 1FW     -0.549100
      7 C4          3.5150    0.2820    2.5420 ca        1 1FW     -0.074000
      8 C3          2.7940   -0.2800    3.5810 ca        1 1FW     -0.113000
      9 C2          1.5720   -0.9470    3.3270 ca        1 1FW      0.137900
     10 F1          0.8800   -1.4910    4.3520 f         1 1FW     -0.111900
     11 N8          2.0650    0.0650   -1.4180 n         1 1FW     -0.428300
     12 C7          3.2710    0.7080   -1.0460 cd        1 1FW      0.470800
     13 C9          1.4740    0.2510   -2.7210 c3        1 1FW      0.057700
     14 C17         1.7250   -0.9600   -3.6550 c         1 1FW      0.508100
     15 N19         1.3220   -2.3040   -3.0700 n4        1 1FW     -0.618500
     16 C20         1.2080   -3.3660   -4.0480 cc        1 1FW      0.323300
     17 N21         2.3120   -3.9930   -4.5440 nd        1 1FW     -0.570000
     18 C22         1.9100   -4.9390   -5.4440 cd        1 1FW      0.359200
     19 C23         0.5220   -5.0270   -5.6280 cc        1 1FW     -0.234400
     20 S24        -0.2750   -3.9370   -4.6860 ss        1 1FW      0.141700
     21 O18         2.1480   -0.9300   -4.7930 o         1 1FW     -0.371100
     22 C10         1.8960    1.5040   -3.5050 c3        1 1FW     -0.090400
     23 C11         1.5340    2.8040   -2.8030 c3        1 1FW     -0.069700
     24 C12         2.2280    3.9600   -3.5170 c3        1 1FW     -0.074900
     25 C13         1.8860    5.2850   -2.8680 c3        1 1FW     -0.077400
     26 C14         0.3880    5.5060   -2.8210 c3        1 1FW     -0.081400
     27 C15        -0.3140    4.3560   -2.1320 c3        1 1FW     -0.077400
     28 C16         0.0280    3.0300   -2.7810 c3        1 1FW     -0.074900
     29 H1          0.1250   -1.5630    1.8160 ha        1 1FW      0.179000
     30 H2          4.4660    0.8040    2.7490 ha        1 1FW      0.178000
     31 H3          3.1620   -0.2140    4.6180 ha        1 1FW      0.177000
     32 H4          3.8480    1.1850   -1.8690 h5        1 1FW      0.079800
     33 H5          0.3410    0.2930   -2.5870 h1        1 1FW      0.123700
     34 H6          0.4220   -2.1950   -2.5660 hn        1 1FW      0.484800
     35 H7          2.6700   -5.5520   -5.9510 h4        1 1FW      0.085100
     36 H8          0.0400   -5.7340   -6.3090 h4        1 1FW      0.220000
     37 H9          1.3680    1.4660   -4.4980 hc        1 1FW      0.077700
     38 H10         2.9960    1.4740   -3.7230 hc        1 1FW      0.077700
     39 H11         1.9070    2.7790   -1.7400 hc        1 1FW      0.056700
     40 H12         1.9130    3.9750   -4.5930 hc        1 1FW      0.041700
     41 H13         3.3390    3.8050   -3.4900 hc        1 1FW      0.041700
     42 H14         2.3020    5.3110   -1.8260 hc        1 1FW      0.051200
     43 H15         2.3710    6.1140   -3.4450 hc        1 1FW      0.051200
     44 H16        -0.0070    5.6160   -3.8650 hc        1 1FW      0.052700
     45 H17         0.1670    6.4610   -2.2760 hc        1 1FW      0.052700
     46 H18        -1.4240    4.5120   -2.1740 hc        1 1FW      0.051200
     47 H19        -0.0180    4.3300   -1.0500 hc        1 1FW      0.051200
     48 H20        -0.4760    2.2030   -2.2160 hc        1 1FW      0.041700
     49 H21        -0.3660    3.0160   -3.8320 hc        1 1FW      0.041700
     50 H192        2.0360   -2.5630   -2.3700 hn        1 1FW      0.484800
@<TRIPOS>BOND
     1    1    2 2   
     2    2    3 1   
     3    2   11 1   
     4    3    4 ar  
     5    3    5 ar  
     6    4    9 ar  
     7    4   29 1   
     8    5    6 1   
     9    5    7 ar  
    10    6   12 2   
    11    7    8 ar  
    12    7   30 1   
    13    8    9 ar  
    14    8   31 1   
    15    9   10 1   
    16   11   12 1   
    17   11   13 1   
    18   12   32 1   
    19   13   14 1   
    20   13   22 1   
    21   13   33 1   
    22   14   15 1   
    23   14   21 2   
    24   15   16 1   
    25   15   34 1   
    26   15   50 1   
    27   16   17 2   
    28   16   20 1   
    29   17   18 1   
    30   18   19 2   
    31   18   35 1   
    32   19   20 1   
    33   19   36 1   
    34   22   23 1   
    35   22   37 1   
    36   22   38 1   
    37   23   24 1   
    38   23   28 1   
    39   23   39 1   
    40   24   25 1   
    41   24   40 1   
    42   24   41 1   
    43   25   26 1   
    44   25   42 1   
    45   25   43 1   
    46   26   27 1   
    47   26   44 1   
    48   26   45 1   
    49   27   28 1   
    50   27   46 1   
    51   27   47 1   
    52   28   48 1   
    53   28   49 1   
@<TRIPOS>SUBSTRUCTURE
     1 1FW         1 TEMP              0 ****  ****    0 ROOT
