@<TRIPOS>MOLECULE
1FX
   50    53     1     0     0
SMALL
bcc


@<TRIPOS>ATOM
      1 O28         0.1880   -0.2500    0.1380 o         1 1FX     -0.608500
      2 C27         1.4190   -0.0780    0.1580 c         1 1FX      0.733100
      3 C29         2.2100   -0.1060    1.4060 ca        1 1FX     -0.186600
      4 C30         1.5600   -0.3490    2.6190 ca        1 1FX     -0.067000
      5 C5          3.6100    0.0970    1.3660 ca        1 1FX      0.111600
      6 N6          4.2260    0.3580    0.1500 n         1 1FX     -0.457100
      7 C4          4.3490    0.0410    2.5730 ca        1 1FX     -0.171000
      8 C3          3.7040   -0.2010    3.7730 ca        1 1FX     -0.093000
      9 C2          2.3050   -0.3960    3.8040 ca        1 1FX      0.078900
     10 F1          1.6870   -0.6290    4.9870 f         1 1FX     -0.131900
     11 N10         2.1140    0.1710   -1.0490 n         1 1FX     -0.475400
     12 C8          3.5160    0.3900   -1.0650 c         1 1FX      0.828500
     13 O9          4.1490    0.6480   -2.1080 o         1 1FX     -0.618500
     14 C11         1.4030    0.0410   -2.3120 c3        1 1FX      0.054700
     15 C19         1.8310   -1.2410   -3.0750 c         1 1FX      0.644100
     16 N21         1.0090   -1.6160   -4.1290 n         1 1FX     -0.524400
     17 C22         1.2570   -2.7230   -4.9410 cc        1 1FX      0.481300
     18 N23         0.4780   -3.0400   -6.0080 nd        1 1FX     -0.690000
     19 C24         0.9720   -4.1830   -6.5970 cd        1 1FX      0.354200
     20 C25         2.0990   -4.7270   -5.9980 cc        1 1FX     -0.318400
     21 S26         2.5730   -3.8250   -4.6840 ss        1 1FX      0.026700
     22 O20         2.8190   -1.9270   -2.7590 o         1 1FX     -0.574100
     23 C12         1.5320    1.2490   -3.2510 c3        1 1FX     -0.091400
     24 C13         1.0940    2.5640   -2.6240 c3        1 1FX     -0.060700
     25 C14         1.3140    3.6870   -3.6320 c3        1 1FX     -0.078900
     26 C15         0.8760    5.0240   -3.0720 c3        1 1FX     -0.074900
     27 C16        -0.5720    4.9850   -2.6260 c3        1 1FX     -0.078400
     28 C17        -0.8040    3.8690   -1.6300 c3        1 1FX     -0.074900
     29 C18        -0.3610    2.5280   -2.1790 c3        1 1FX     -0.078900
     30 H1          0.4680   -0.5040    2.6320 ha        1 1FX      0.180000
     31 H2          5.2150    0.4630    0.0980 hn        1 1FX      0.356500
     32 H3          5.4400    0.1900    2.5620 ha        1 1FX      0.150000
     33 H4          4.2740   -0.2450    4.7140 ha        1 1FX      0.158000
     34 H5          0.3020   -0.0820   -2.0500 h1        1 1FX      0.116700
     35 H6          0.2230   -1.0480   -4.3620 hn        1 1FX      0.340500
     36 H7          0.4520   -4.5760   -7.4790 h4        1 1FX      0.042100
     37 H8          2.6130   -5.6230   -6.3380 h4        1 1FX      0.181000
     38 H9          0.8930    1.0560   -4.1530 hc        1 1FX      0.071200
     39 H10         2.5970    1.3450   -3.5990 hc        1 1FX      0.071200
     40 H11         1.7360    2.7770   -1.7240 hc        1 1FX      0.054700
     41 H12         0.7350    3.4650   -4.5680 hc        1 1FX      0.043950
     42 H13         2.3990    3.7320   -3.9080 hc        1 1FX      0.043950
     43 H14         1.0080    5.8160   -3.8530 hc        1 1FX      0.040950
     44 H15         1.5280    5.2970   -2.2010 hc        1 1FX      0.040950
     45 H16        -1.2340    4.8340   -3.5190 hc        1 1FX      0.040200
     46 H17        -0.8500    5.9670   -2.1630 hc        1 1FX      0.040200
     47 H18        -1.8930    3.8200   -1.3670 hc        1 1FX      0.040950
     48 H19        -0.2390    4.0880   -0.6860 hc        1 1FX      0.040950
     49 H20        -0.4960    1.7460   -1.3850 hc        1 1FX      0.043950
     50 H21        -1.0100    2.2470   -3.0500 hc        1 1FX      0.043950
@<TRIPOS>BOND
     1    1    2 2   
     2    2    3 1   
     3    2   11 1   
     4    3    4 ar  
     5    3    5 ar  
     6    4    9 ar  
     7    4   30 1   
     8    5    6 1   
     9    5    7 ar  
    10    6   12 1   
    11    6   31 1   
    12    7    8 ar  
    13    7   32 1   
    14    8    9 ar  
    15    8   33 1   
    16    9   10 1   
    17   11   12 1   
    18   11   14 1   
    19   12   13 2   
    20   14   15 1   
    21   14   23 1   
    22   14   34 1   
    23   15   16 1   
    24   15   22 2   
    25   16   17 1   
    26   16   35 1   
    27   17   18 2   
    28   17   21 1   
    29   18   19 1   
    30   19   20 2   
    31   19   36 1   
    32   20   21 1   
    33   20   37 1   
    34   23   24 1   
    35   23   38 1   
    36   23   39 1   
    37   24   25 1   
    38   24   29 1   
    39   24   40 1   
    40   25   26 1   
    41   25   41 1   
    42   25   42 1   
    43   26   27 1   
    44   26   43 1   
    45   26   44 1   
    46   27   28 1   
    47   27   45 1   
    48   27   46 1   
    49   28   29 1   
    50   28   47 1   
    51   28   48 1   
    52   29   49 1   
    53   29   50 1   
@<TRIPOS>SUBSTRUCTURE
     1 1FX         1 TEMP              0 ****  ****    0 ROOT
