@<TRIPOS>MOLECULE
1FX
   51    54     1     0     0
SMALL
bcc


@<TRIPOS>ATOM
      1 O28         0.0840   -0.5400    0.2750 o         1 1FX     -0.559500
      2 C27         1.2970   -0.3200    0.1740 c         1 1FX      0.730100
      3 C29         2.2090   -0.1630    1.3190 ca        1 1FX     -0.177600
      4 C30         1.6890   -0.2410    2.6150 ca        1 1FX     -0.073000
      5 C5          3.5860    0.0830    1.1110 ca        1 1FX      0.077600
      6 N6          4.0820    0.1330   -0.1950 n         1 1FX     -0.427100
      7 C4          4.4360    0.2610    2.2250 ca        1 1FX     -0.144000
      8 C3          3.9200    0.1870    3.5090 ca        1 1FX     -0.086000
      9 C2          2.5450   -0.0670    3.7120 ca        1 1FX      0.116900
     10 F1          2.0550   -0.1410    4.9690 f         1 1FX     -0.109900
     11 N10         1.8650   -0.2130   -1.1390 n         1 1FX     -0.513400
     12 C8          3.2640   -0.0380   -1.3030 c         1 1FX      0.821500
     13 O9          3.7910   -0.0890   -2.4480 o         1 1FX     -0.719500
     14 C11         0.9650   -0.0380   -2.2560 c3        1 1FX      0.050700
     15 C19         0.8590   -1.2770   -3.1710 c         1 1FX      0.517100
     16 N21         2.1650   -1.7900   -3.7410 n4        1 1FX     -0.613500
     17 C22         2.0150   -2.7580   -4.8070 cc        1 1FX      0.331300
     18 N23         1.7180   -4.0610   -4.5440 nd        1 1FX     -0.570000
     19 C24         1.6270   -4.7370   -5.7270 cd        1 1FX      0.359200
     20 C25         1.8490   -3.9580   -6.8720 cc        1 1FX     -0.232400
     21 S26         2.1680   -2.3920   -6.4740 ss        1 1FX      0.129700
     22 O20        -0.1750   -1.8230   -3.5050 o         1 1FX     -0.370100
     23 C12         1.2100    1.1790   -3.1640 c3        1 1FX     -0.108400
     24 C13         0.7670    2.4780   -2.5040 c3        1 1FX     -0.063700
     25 C14         1.4270    3.6550   -3.2140 c3        1 1FX     -0.076400
     26 C15         1.0010    4.9710   -2.5970 c3        1 1FX     -0.076900
     27 C16        -0.5060    5.1220   -2.5980 c3        1 1FX     -0.081400
     28 C17        -1.1740    3.9470   -1.9150 c3        1 1FX     -0.076900
     29 C18        -0.7490    2.6320   -2.5370 c3        1 1FX     -0.076400
     30 H1          0.6130   -0.4360    2.7670 ha        1 1FX      0.190000
     31 H2          5.0570    0.2760   -0.3580 hn        1 1FX      0.372500
     32 H3          5.5110    0.4600    2.0830 ha        1 1FX      0.163000
     33 H4          4.5780    0.3250    4.3830 ha        1 1FX      0.177000
     34 H5         -0.0930    0.0610   -1.8230 h1        1 1FX      0.166700
     35 H6          2.6990   -2.2150   -2.9630 hn        1 1FX      0.485300
     36 H7          1.3920   -5.8120   -5.7120 h4        1 1FX      0.084100
     37 H8          1.8140   -4.3470   -7.8930 h4        1 1FX      0.219000
     38 H9          0.6180    1.0310   -4.1080 hc        1 1FX      0.072200
     39 H10         2.2940    1.2540   -3.4440 hc        1 1FX      0.072200
     40 H11         1.1030    2.4830   -1.4300 hc        1 1FX      0.055700
     41 H12         1.1440    3.6400   -4.3000 hc        1 1FX      0.043200
     42 H13         2.5420    3.5560   -3.1510 hc        1 1FX      0.043200
     43 H14         1.3830    5.0320   -1.5440 hc        1 1FX      0.050200
     44 H15         1.4640    5.8160   -3.1720 hc        1 1FX      0.050200
     45 H16        -0.7880    6.0710   -2.0720 hc        1 1FX      0.052200
     46 H17        -0.8740    5.2000   -3.6550 hc        1 1FX      0.052200
     47 H18        -0.9130    3.9480   -0.8240 hc        1 1FX      0.050200
     48 H19        -2.2880    4.0490   -1.9940 hc        1 1FX      0.050200
     49 H20        -1.1060    2.5890   -3.5990 hc        1 1FX      0.043200
     50 H21        -1.2340    1.7870   -1.9810 hc        1 1FX      0.043200
     51 H212        2.7210   -0.9800   -4.0710 hn        1 1FX      0.485300
@<TRIPOS>BOND
     1    1    2 2   
     2    2    3 1   
     3    2   11 1   
     4    3    4 ar  
     5    3    5 ar  
     6    4    9 ar  
     7    4   30 1   
     8    5    6 1   
     9    5    7 ar  
    10    6   12 1   
    11    6   31 1   
    12    7    8 ar  
    13    7   32 1   
    14    8    9 ar  
    15    8   33 1   
    16    9   10 1   
    17   11   12 1   
    18   11   14 1   
    19   12   13 2   
    20   14   15 1   
    21   14   23 1   
    22   14   34 1   
    23   15   16 1   
    24   15   22 2   
    25   16   17 1   
    26   16   35 1   
    27   16   51 1   
    28   17   18 2   
    29   17   21 1   
    30   18   19 1   
    31   19   20 2   
    32   19   36 1   
    33   20   21 1   
    34   20   37 1   
    35   23   24 1   
    36   23   38 1   
    37   23   39 1   
    38   24   25 1   
    39   24   29 1   
    40   24   40 1   
    41   25   26 1   
    42   25   41 1   
    43   25   42 1   
    44   26   27 1   
    45   26   43 1   
    46   26   44 1   
    47   27   28 1   
    48   27   45 1   
    49   27   46 1   
    50   28   29 1   
    51   28   47 1   
    52   28   48 1   
    53   29   49 1   
    54   29   50 1   
@<TRIPOS>SUBSTRUCTURE
     1 1FX         1 TEMP              0 ****  ****    0 ROOT
