@<TRIPOS>MOLECULE
1FX
   50    53     1     0     0
SMALL
bcc


@<TRIPOS>ATOM
      1 O28         0.1930   -0.2420    0.1460 o         1 1FX     -0.608500
      2 C27         1.4250   -0.0720    0.1610 c         1 1FX      0.733100
      3 C29         2.2190   -0.0970    1.4060 ca        1 1FX     -0.186600
      4 C30         1.5730   -0.3360    2.6230 ca        1 1FX     -0.067000
      5 C5          3.6200    0.1030    1.3610 ca        1 1FX      0.111600
      6 N6          4.2320    0.3600    0.1430 ns        1 1FX     -0.457100
      7 C4          4.3620    0.0500    2.5660 ca        1 1FX     -0.171000
      8 C3          3.7200   -0.1880    3.7690 ca        1 1FX     -0.093000
      9 C2          2.3220   -0.3790    3.8050 ca        1 1FX      0.078900
     10 F1          1.7070   -0.6080    4.9910 f         1 1FX     -0.131900
     11 N10         2.1160    0.1720   -1.0490 n         1 1FX     -0.475400
     12 C8          3.5180    0.3890   -1.0700 c         1 1FX      0.828500
     13 O9          4.1480    0.6430   -2.1160 o         1 1FX     -0.618500
     14 C11         1.4010    0.0400   -2.3100 c3        1 1FX      0.054700
     15 C19         1.8240   -1.2450   -3.0700 c         1 1FX      0.644100
     16 N21         0.9990   -1.6220   -4.1200 ns        1 1FX     -0.524400
     17 C22         1.2420   -2.7320   -4.9310 cc        1 1FX      0.481300
     18 N23         0.4590   -3.0500   -5.9950 nd        1 1FX     -0.690000
     19 C24         0.9500   -4.1950   -6.5810 cd        1 1FX      0.354200
     20 C25         2.0790   -4.7390   -5.9840 cc        1 1FX     -0.318400
     21 S26         2.5570   -3.8340   -4.6740 ss        1 1FX      0.026700
     22 O20         2.8120   -1.9320   -2.7560 o         1 1FX     -0.574100
     23 C12         1.5280    1.2450   -3.2530 c3        1 1FX     -0.091400
     24 C13         1.0940    2.5620   -2.6280 c3        1 1FX     -0.060700
     25 C14         1.3120    3.6820   -3.6400 c3        1 1FX     -0.078900
     26 C15         0.8770    5.0210   -3.0820 c3        1 1FX     -0.074900
     27 C16        -0.5690    4.9850   -2.6320 c3        1 1FX     -0.078400
     28 C17        -0.8000    3.8720   -1.6320 c3        1 1FX     -0.074900
     29 C18        -0.3600    2.5290   -2.1790 c3        1 1FX     -0.078900
     30 H1          0.4810   -0.4890    2.6390 ha        1 1FX      0.180000
     31 H2          5.2210    0.4630    0.0860 hn        1 1FX      0.356500
     32 H3          5.4530    0.1970    2.5510 ha        1 1FX      0.150000
     33 H4          4.2940   -0.2290    4.7080 ha        1 1FX      0.158000
     34 H5          0.3000   -0.0810   -2.0430 h1        1 1FX      0.116700
     35 H6          0.2120   -1.0530   -4.3520 hn        1 1FX      0.340500
     36 H7          0.4270   -4.5900   -7.4600 h4        1 1FX      0.042100
     37 H8          2.5900   -5.6380   -6.3240 h4        1 1FX      0.181000
     38 H9          2.5920    1.3380   -3.6030 hc        1 1FX      0.071200
     39 H10         0.8860    1.0500   -4.1520 hc        1 1FX      0.071200
     40 H11         1.7380    2.7770   -1.7300 hc        1 1FX      0.054700
     41 H12         0.7310    3.4580   -4.5730 hc        1 1FX      0.043950
     42 H13         2.3970    3.7250   -3.9190 hc        1 1FX      0.043950
     43 H14         1.0080    5.8110   -3.8660 hc        1 1FX      0.040950
     44 H15         1.5320    5.2950   -2.2140 hc        1 1FX      0.040950
     45 H16        -1.2340    4.8320   -3.5230 hc        1 1FX      0.040200
     46 H17        -0.8440    5.9690   -2.1710 hc        1 1FX      0.040200
     47 H18        -1.8880    3.8250   -1.3650 hc        1 1FX      0.040950
     48 H19        -0.2320    4.0940   -0.6900 hc        1 1FX      0.040950
     49 H20        -1.0120    2.2460   -3.0460 hc        1 1FX      0.043950
     50 H21        -0.4940    1.7500   -1.3810 hc        1 1FX      0.043950
@<TRIPOS>BOND
     1    1    2 2   
     2    2    3 1   
     3    2   11 1   
     4    3    4 ar  
     5    3    5 ar  
     6    4    9 ar  
     7    4   30 1   
     8    5    6 1   
     9    5    7 ar  
    10    6   12 1   
    11    6   31 1   
    12    7    8 ar  
    13    7   32 1   
    14    8    9 ar  
    15    8   33 1   
    16    9   10 1   
    17   11   12 1   
    18   11   14 1   
    19   12   13 2   
    20   14   15 1   
    21   14   23 1   
    22   14   34 1   
    23   15   16 1   
    24   15   22 2   
    25   16   17 1   
    26   16   35 1   
    27   17   18 2   
    28   17   21 1   
    29   18   19 1   
    30   19   20 2   
    31   19   36 1   
    32   20   21 1   
    33   20   37 1   
    34   23   24 1   
    35   23   38 1   
    36   23   39 1   
    37   24   25 1   
    38   24   29 1   
    39   24   40 1   
    40   25   26 1   
    41   25   41 1   
    42   25   42 1   
    43   26   27 1   
    44   26   43 1   
    45   26   44 1   
    46   27   28 1   
    47   27   45 1   
    48   27   46 1   
    49   28   29 1   
    50   28   47 1   
    51   28   48 1   
    52   29   49 1   
    53   29   50 1   
@<TRIPOS>SUBSTRUCTURE
     1 1FX         1 TEMP              0 ****  ****    0 ROOT
