@<TRIPOS>MOLECULE
1FX
   50    53     1     0     0
SMALL
bcc


@<TRIPOS>ATOM
      1 O28        -1.4730    0.3290    1.8580 o         1 1FX     -0.608500
      2 C27        -1.6690    0.6310    0.6680 c         1 1FX      0.733100
      3 C29        -2.8380    1.4200    0.2270 ca        1 1FX     -0.186600
      4 C30        -3.7610    1.8630    1.1790 ca        1 1FX     -0.067000
      5 C5         -3.0090    1.7340   -1.1430 ca        1 1FX      0.111600
      6 N6         -2.0900    1.2620   -2.0690 n         1 1FX     -0.457100
      7 C4         -4.1250    2.5120   -1.5370 ca        1 1FX     -0.171000
      8 C3         -5.0360    2.9500   -0.5930 ca        1 1FX     -0.093000
      9 C2         -4.8620    2.6260    0.7710 ca        1 1FX      0.078900
     10 F1         -5.7640    3.0600    1.6840 f         1 1FX     -0.131900
     11 N10        -0.7590    0.2030   -0.3260 n         1 1FX     -0.475400
     12 C8         -0.9580    0.5120   -1.6960 c         1 1FX      0.828500
     13 O9         -0.1930    0.1170   -2.5980 o         1 1FX     -0.618500
     14 C11         0.4870   -0.4290    0.0830 c3        1 1FX      0.054700
     15 C19         1.6980    0.5190   -0.1200 c         1 1FX      0.644100
     16 N21         2.8740    0.1370    0.5100 n         1 1FX     -0.524400
     17 C22         4.0670    0.8540    0.4110 cc        1 1FX      0.481300
     18 N23         5.2260    0.4320    0.9830 nd        1 1FX     -0.690000
     19 C24         6.2140    1.3530    0.7180 cd        1 1FX      0.354200
     20 C25         5.8250    2.4510   -0.0370 cc        1 1FX     -0.318400
     21 S26         4.2130    2.3610   -0.4360 ss        1 1FX      0.026700
     22 O20         1.6360    1.5780   -0.7700 o         1 1FX     -0.574100
     23 C12         0.7820   -1.7730   -0.6000 c3        1 1FX     -0.091400
     24 C13        -0.3210   -2.8050   -0.4270 c3        1 1FX     -0.060700
     25 C14         0.0660   -4.0710   -1.1850 c3        1 1FX     -0.078900
     26 C15        -0.9870   -5.1470   -1.0340 c3        1 1FX     -0.074900
     27 C16        -1.2480   -5.4600    0.4250 c3        1 1FX     -0.078400
     28 C17        -1.6270   -4.2100    1.1910 c3        1 1FX     -0.074900
     29 C18        -0.5810   -3.1240    1.0390 c3        1 1FX     -0.078900
     30 H1         -3.6120    1.6080    2.2420 ha        1 1FX      0.180000
     31 H2         -2.1710    1.5070   -3.0310 hn        1 1FX      0.356500
     32 H3         -4.2720    2.7710   -2.5970 ha        1 1FX      0.150000
     33 H4         -5.9060    3.5540   -0.8950 ha        1 1FX      0.158000
     34 H5          0.3990   -0.6180    1.2020 h1        1 1FX      0.116700
     35 H6          2.8970   -0.7170    1.0240 hn        1 1FX      0.340500
     36 H7          7.2190    1.1610    1.1120 h4        1 1FX      0.042100
     37 H8          6.4810    3.2660   -0.3350 h4        1 1FX      0.181000
     38 H9          0.9620   -1.6070   -1.6960 hc        1 1FX      0.071200
     39 H10         1.7270   -2.1860   -0.1560 hc        1 1FX      0.071200
     40 H11        -1.2730   -2.4090   -0.8790 hc        1 1FX      0.054700
     41 H12         0.2020   -3.8270   -2.2710 hc        1 1FX      0.043950
     42 H13         1.0480   -4.4500   -0.7970 hc        1 1FX      0.043950
     43 H14        -1.9400   -4.8100   -1.5200 hc        1 1FX      0.040950
     44 H15        -0.6500   -6.0760   -1.5640 hc        1 1FX      0.040950
     45 H16        -2.0720   -6.2160    0.5070 hc        1 1FX      0.040200
     46 H17        -0.3280   -5.9140    0.8800 hc        1 1FX      0.040200
     47 H18        -2.6150   -3.8300    0.8180 hc        1 1FX      0.040950
     48 H19        -1.7490   -4.4570    2.2770 hc        1 1FX      0.040950
     49 H20         0.3750   -3.4530    1.5240 hc        1 1FX      0.043950
     50 H21        -0.9350   -2.2010    1.5710 hc        1 1FX      0.043950
@<TRIPOS>BOND
     1    1    2 2   
     2    2    3 1   
     3    2   11 1   
     4    3    4 ar  
     5    3    5 ar  
     6    4    9 ar  
     7    4   30 1   
     8    5    6 1   
     9    5    7 ar  
    10    6   12 1   
    11    6   31 1   
    12    7    8 ar  
    13    7   32 1   
    14    8    9 ar  
    15    8   33 1   
    16    9   10 1   
    17   11   12 1   
    18   11   14 1   
    19   12   13 2   
    20   14   15 1   
    21   14   23 1   
    22   14   34 1   
    23   15   16 1   
    24   15   22 2   
    25   16   17 1   
    26   16   35 1   
    27   17   18 2   
    28   17   21 1   
    29   18   19 1   
    30   19   20 2   
    31   19   36 1   
    32   20   21 1   
    33   20   37 1   
    34   23   24 1   
    35   23   38 1   
    36   23   39 1   
    37   24   25 1   
    38   24   29 1   
    39   24   40 1   
    40   25   26 1   
    41   25   41 1   
    42   25   42 1   
    43   26   27 1   
    44   26   43 1   
    45   26   44 1   
    46   27   28 1   
    47   27   45 1   
    48   27   46 1   
    49   28   29 1   
    50   28   47 1   
    51   28   48 1   
    52   29   49 1   
    53   29   50 1   
@<TRIPOS>SUBSTRUCTURE
     1 1FX         1 TEMP              0 ****  ****    0 ROOT
