@<TRIPOS>MOLECULE
1FX
   50    46     1     0     0
SMALL
bcc


@<TRIPOS>ATOM
      1 O28        -0.9120    0.6530    2.1880 o         1 1FX     -0.534500
      2 C27         0.2780    0.3840    2.1950 c1        1 1FX      0.597500
      3 C29         1.0310    0.3940    3.4770 c1        1 1FX     -0.161000
      4 C30         0.3380    0.5420    4.7010 c1        1 1FX     -0.012500
      5 C5          2.4070    0.2620    3.4720 c1        1 1FX      0.112200
      6 N6          3.1340    0.1110    2.1870 n         1 1FX     -0.463700
      7 C4          3.1160    0.2750    4.6860 c1        1 1FX     -0.073000
      8 C3          2.4260    0.4210    5.8990 c1        1 1FX     -0.073000
      9 C2          1.0400    0.5540    5.9010 c1        1 1FX      0.051000
     10 F1          0.3730    0.8410    7.0250 f         1 1FX     -0.095000
     11 N10         0.9760    0.2340    0.9650 n         1 1FX     -0.424400
     12 C8          2.4180    0.1010    0.9610 c         1 1FX      0.778100
     13 O9          3.0040    0.0660   -0.0610 o         1 1FX     -0.616100
     14 C11         0.2450    0.2480   -0.2880 c3        1 1FX      0.057700
     15 C19        -0.5900    1.4750   -0.3630 c         1 1FX      0.639100
     16 N21        -0.1820    2.5650   -1.1940 n         1 1FX     -0.454400
     17 C22        -1.0240    3.7500   -1.2990 c2        1 1FX      0.345800
     18 N23        -2.4480    3.7620   -1.4980 ne        1 1FX     -0.500700
     19 C24        -2.9300    5.2700   -1.5910 cg        1 1FX     -0.060000
     20 C25        -1.7800    6.1220   -1.4450 c1        1 1FX     -0.296900
     21 S26        -0.5380    5.2140   -1.2560 ss        1 1FX      0.147700
     22 O20        -1.5890    1.5350    0.2240 o         1 1FX     -0.567100
     23 C12        -0.6480   -0.9800   -0.3690 c3        1 1FX     -0.081400
     24 C13        -0.2780   -1.8030   -1.6030 c3        1 1FX     -0.064700
     25 C14        -0.4510   -3.2710   -1.2850 c3        1 1FX     -0.075400
     26 C15        -0.2700   -4.1680   -2.5260 c3        1 1FX     -0.075900
     27 C16        -1.1510   -3.7140   -3.7180 c3        1 1FX     -0.077400
     28 C17        -0.9790   -2.2340   -4.0390 c3        1 1FX     -0.075900
     29 C18        -1.1620   -1.3440   -2.8060 c3        1 1FX     -0.075400
     30 H1         -0.6760    0.6400    4.7040 ha        1 1FX      0.125500
     31 H2          4.1010    0.0190    2.1850 hn        1 1FX      0.359500
     32 H3          4.0930    0.1800    4.6860 ha        1 1FX      0.098000
     33 H4          2.9120    0.4300    6.7300 ha        1 1FX      0.098000
     34 H5          0.8490    0.2420   -1.0020 h1        1 1FX      0.105700
     35 H6          0.7290    2.5630   -1.6070 hn        1 1FX      0.359500
     36 H7         -3.8850    5.5810   -1.7310 DU        1 1FX      0.179000
     37 H8         -1.7830    7.1330   -1.4630 DU        1 1FX      0.179000
     38 H9         -1.5820   -0.6980   -0.4340 hc        1 1FX      0.080700
     39 H10        -0.5260   -1.5250    0.4350 hc        1 1FX      0.080700
     40 H11         0.6820   -1.6330   -1.8290 hc        1 1FX      0.044700
     41 H12        -1.3760   -3.4180   -0.9080 hc        1 1FX      0.044950
     42 H13         0.2260   -3.5330   -0.5940 hc        1 1FX      0.044950
     43 H14         0.7050   -4.1420   -2.8110 hc        1 1FX      0.039450
     44 H15        -0.5180   -5.1300   -2.2780 hc        1 1FX      0.039450
     45 H16        -0.9200   -4.2100   -4.4680 hc        1 1FX      0.040700
     46 H17        -2.1160   -3.8900   -3.4970 hc        1 1FX      0.040700
     47 H18        -1.6140   -1.9880   -4.6900 hc        1 1FX      0.039450
     48 H19        -0.0770   -2.0890   -4.4050 hc        1 1FX      0.039450
     49 H20        -2.1520   -1.3670   -2.5210 hc        1 1FX      0.044950
     50 H21        -0.9250   -0.4290   -3.0400 hc        1 1FX      0.044950
@<TRIPOS>BOND
     1    1    2 2   
     2    2   11 2   
     3    3    5 3   
     4    4    9 3   
     5    4   30 1   
     6    5    6 1   
     7    6   12 1   
     8    6   31 1   
     9    7    8 3   
    10    7   32 1   
    11    8   33 1   
    12   11   12 1   
    13   11   14 1   
    14   12   13 2   
    15   14   15 1   
    16   14   23 1   
    17   14   34 1   
    18   15   16 1   
    19   15   22 2   
    20   16   17 1   
    21   16   35 1   
    22   17   18 2   
    23   17   21 1   
    24   18   19 1   
    25   19   20 3   
    26   20   21 1   
    27   23   24 1   
    28   23   38 1   
    29   23   39 1   
    30   24   25 1   
    31   24   29 1   
    32   24   40 1   
    33   25   26 1   
    34   25   41 1   
    35   25   42 1   
    36   26   27 1   
    37   26   43 1   
    38   26   44 1   
    39   27   28 1   
    40   27   45 1   
    41   27   46 1   
    42   28   29 1   
    43   28   47 1   
    44   28   48 1   
    45   29   49 1   
    46   29   50 1   
@<TRIPOS>SUBSTRUCTURE
     1 1FX         1 TEMP              0 ****  ****    0 ROOT
