@<TRIPOS>MOLECULE
1FY
   53    55     1     0     0
SMALL
bcc


@<TRIPOS>ATOM
      1 O18        -0.3090    0.3840   -0.1320 o         1 1FY     -0.579100
      2 C17         0.9310    0.3470   -0.2170 c         1 1FY      0.628100
      3 N19         1.7170    0.2180    0.9220 n         1 1FY     -0.527400
      4 C20         1.1990    0.2110    2.2170 cc        1 1FY      0.480300
      5 N21         1.9870    0.1590    3.3230 nd        1 1FY     -0.690000
      6 C22         1.1840    0.1500    4.4420 cd        1 1FY      0.354200
      7 C23        -0.1820    0.1950    4.2020 cc        1 1FY     -0.317400
      8 S24        -0.5000    0.2520    2.5700 ss        1 1FY      0.021700
      9 C9          1.6960    0.3830   -1.5710 c3        1 1FY      0.067700
     10 N8          0.8120    0.1670   -2.6980 n         1 1FY     -0.451800
     11 C7          0.5950   -1.2200   -3.0530 c3        1 1FY      0.080000
     12 C6         -0.7360   -1.4970   -3.7810 c3        1 1FY      0.207800
     13 N5         -1.0390   -0.5120   -4.7820 n3        1 1FY     -0.819500
     14 S2         -1.2830   -0.8820   -6.3530 s6        1 1FY      1.464900
     15 O4         -0.7710   -2.1680   -6.6220 o         1 1FY     -0.647800
     16 C1         -2.9770   -0.9560   -6.4720 c3        1 1FY     -0.364300
     17 O3         -0.8370    0.1720   -7.1740 o         1 1FY     -0.647800
     18 C27        -1.0320    0.8400   -4.3000 c3        1 1FY      0.149800
     19 C25        -0.0130    1.1680   -3.2000 c         1 1FY      0.707500
     20 O26         0.0550    2.3480   -2.8130 o         1 1FY     -0.621500
     21 C10         2.5330    1.6700   -1.6200 c3        1 1FY     -0.085400
     22 C11         3.3380    1.8350   -2.9000 c3        1 1FY     -0.059700
     23 C12         4.0690    3.1730   -2.8530 c3        1 1FY     -0.073900
     24 C13         4.9060    3.3860   -4.0970 c3        1 1FY     -0.075900
     25 C14         5.8870    2.2510   -4.3020 c3        1 1FY     -0.077400
     26 C15         5.1730    0.9160   -4.3430 c3        1 1FY     -0.075900
     27 C16         4.3290    0.6990   -3.1030 c3        1 1FY     -0.073900
     28 H1          2.7100    0.2310    0.8310 hn        1 1FY      0.338500
     29 H2          1.6680    0.1100    5.4250 h4        1 1FY      0.043100
     30 H3         -0.9500    0.1970    4.9720 h4        1 1FY      0.181000
     31 H4          2.4190   -0.4930   -1.5610 h1        1 1FY      0.073700
     32 H5          0.6000   -1.8590   -2.1220 h1        1 1FY      0.055200
     33 H6          1.4560   -1.5450   -3.7070 h1        1 1FY      0.055200
     34 H7         -1.5670   -1.5230   -3.0190 h1        1 1FY      0.072200
     35 H8         -0.6570   -2.5140   -4.2630 h1        1 1FY      0.072200
     36 H9         -3.4290   -1.7870   -5.8790 h1        1 1FY      0.117033
     37 H10        -3.2820   -1.1310   -7.5360 h1        1 1FY      0.117033
     38 H11        -3.4940   -0.0170   -6.1550 h1        1 1FY      0.117033
     39 H12        -0.8190    1.5470   -5.1570 h1        1 1FY      0.089700
     40 H13        -2.0410    1.0980   -3.8590 h1        1 1FY      0.089700
     41 H14         3.2460    1.6510   -0.7530 hc        1 1FY      0.069200
     42 H15         1.8600    2.5610   -1.4950 hc        1 1FY      0.069200
     43 H16         2.6300    1.8570   -3.7760 hc        1 1FY      0.064700
     44 H17         4.7290    3.2050   -1.9470 hc        1 1FY      0.038700
     45 H18         3.3200    4.0010   -2.7580 hc        1 1FY      0.038700
     46 H19         5.4640    4.3540   -4.0090 hc        1 1FY      0.042450
     47 H20         4.2330    3.4650   -4.9910 hc        1 1FY      0.042450
     48 H21         6.6370    2.2490   -3.4680 hc        1 1FY      0.040200
     49 H22         6.4480    2.4060   -5.2590 hc        1 1FY      0.040200
     50 H23         4.5160    0.8730   -5.2520 hc        1 1FY      0.042450
     51 H24         5.9250    0.0890   -4.4300 hc        1 1FY      0.042450
     52 H25         4.9950    0.6180   -2.2040 hc        1 1FY      0.038700
     53 H26         3.7760   -0.2720   -3.2050 hc        1 1FY      0.038700
@<TRIPOS>BOND
     1    1    2 2   
     2    2    3 1   
     3    2    9 1   
     4    3    4 1   
     5    3   28 1   
     6    4    5 2   
     7    4    8 1   
     8    5    6 1   
     9    6    7 2   
    10    6   29 1   
    11    7    8 1   
    12    7   30 1   
    13    9   10 1   
    14    9   21 1   
    15    9   31 1   
    16   10   11 1   
    17   10   19 1   
    18   11   12 1   
    19   11   32 1   
    20   11   33 1   
    21   12   13 1   
    22   12   34 1   
    23   12   35 1   
    24   13   14 1   
    25   13   18 1   
    26   14   15 2   
    27   14   16 1   
    28   14   17 2   
    29   16   36 1   
    30   16   37 1   
    31   16   38 1   
    32   18   19 1   
    33   18   39 1   
    34   18   40 1   
    35   19   20 2   
    36   21   22 1   
    37   21   41 1   
    38   21   42 1   
    39   22   23 1   
    40   22   27 1   
    41   22   43 1   
    42   23   24 1   
    43   23   44 1   
    44   23   45 1   
    45   24   25 1   
    46   24   46 1   
    47   24   47 1   
    48   25   26 1   
    49   25   48 1   
    50   25   49 1   
    51   26   27 1   
    52   26   50 1   
    53   26   51 1   
    54   27   52 1   
    55   27   53 1   
@<TRIPOS>SUBSTRUCTURE
     1 1FY         1 TEMP              0 ****  ****    0 ROOT
