@<TRIPOS>MOLECULE
1FY
   54    56     1     0     0
SMALL
bcc


@<TRIPOS>ATOM
      1 O18         1.9840   -1.3440    0.8590 o         1 1FY     -0.381100
      2 C17         1.5370   -0.4750    0.1350 c         1 1FY      0.513100
      3 N19         0.6050    0.5590    0.7290 n4        1 1FY     -0.610500
      4 C20         0.5400    0.5490    2.1750 cc        1 1FY      0.328300
      5 N21        -0.1850   -0.3890    2.8450 nd        1 1FY     -0.572000
      6 C22        -0.0610   -0.1620    4.1870 cd        1 1FY      0.359200
      7 C23         0.7480    0.9310    4.5290 cc        1 1FY     -0.233400
      8 S24         1.3510    1.6700    3.1860 ss        1 1FY      0.135700
      9 C9          1.8850   -0.2870   -1.3610 c3        1 1FY      0.055700
     10 N8          0.7240   -0.2210   -2.2130 n         1 1FY     -0.473800
     11 C7          0.6020   -1.3100   -3.1730 c3        1 1FY      0.060000
     12 C6         -0.6450   -1.2100   -4.0790 c3        1 1FY      0.208800
     13 N5         -0.8460    0.1140   -4.5950 n3        1 1FY     -0.811500
     14 S2         -0.7360    0.4720   -6.2100 s6        1 1FY      1.463900
     15 O4          0.0340   -0.5280   -6.8270 o         1 1FY     -0.636300
     16 C1         -2.3330    0.3480   -6.7400 c3        1 1FY     -0.378300
     17 O3         -0.3100    1.8060   -6.3290 o         1 1FY     -0.636300
     18 C27        -0.9510    1.1200   -3.5850 c3        1 1FY      0.163800
     19 C25         0.0070    0.9600   -2.4000 c         1 1FY      0.704500
     20 O26         0.0690    1.8730   -1.5460 o         1 1FY     -0.694500
     21 C10         2.8850    0.8810   -1.4410 c3        1 1FY     -0.110400
     22 C11         3.6270    0.9000   -2.7730 c3        1 1FY     -0.063700
     23 C12         3.1080    2.0170   -3.6710 c3        1 1FY     -0.072900
     24 C13         3.8450    2.0330   -4.9940 c3        1 1FY     -0.078900
     25 C14         5.3390    2.1750   -4.7860 c3        1 1FY     -0.081400
     26 C15         5.8720    1.0970   -3.8650 c3        1 1FY     -0.078900
     27 C16         5.1250    1.0720   -2.5470 c3        1 1FY     -0.072900
     28 H1          0.8920    1.4960    0.3900 hn        1 1FY      0.486300
     29 H2         -0.5830   -0.8260    4.8920 h4        1 1FY      0.084100
     30 H3          0.9470    1.2470    5.5570 h4        1 1FY      0.220000
     31 H4          2.4550   -1.2420   -1.6170 h1        1 1FY      0.129700
     32 H5          1.5260   -1.3390   -3.8220 h1        1 1FY      0.072200
     33 H6          0.5380   -2.2800   -2.6010 h1        1 1FY      0.072200
     34 H7         -0.4960   -1.9350   -4.9340 h1        1 1FY      0.081700
     35 H8         -1.5520   -1.5330   -3.4920 h1        1 1FY      0.081700
     36 H9         -2.3940    0.5450   -7.8450 h1        1 1FY      0.130367
     37 H10        -3.0300    1.0840   -6.2670 h1        1 1FY      0.130367
     38 H11        -2.7890   -0.6620   -6.5920 h1        1 1FY      0.130367
     39 H12        -0.7440    2.1420   -4.0290 h1        1 1FY      0.107700
     40 H13        -1.9900    1.1260   -3.1370 h1        1 1FY      0.107700
     41 H14         2.3630    1.8620   -1.2850 hc        1 1FY      0.070700
     42 H15         3.6220    0.7460   -0.6030 hc        1 1FY      0.070700
     43 H16         3.4710   -0.0810   -3.3060 hc        1 1FY      0.051700
     44 H17         3.2450    3.0040   -3.1560 hc        1 1FY      0.041200
     45 H18         2.0090    1.8800   -3.8480 hc        1 1FY      0.041200
     46 H19         3.6320    1.0870   -5.5570 hc        1 1FY      0.052450
     47 H20         3.4680    2.8860   -5.6170 hc        1 1FY      0.052450
     48 H21         5.5620    3.1840   -4.3500 hc        1 1FY      0.052200
     49 H22         5.8620    2.1130   -5.7760 hc        1 1FY      0.052200
     50 H23         6.9610    1.2750   -3.6680 hc        1 1FY      0.052450
     51 H24         5.7800    0.0970   -4.3660 hc        1 1FY      0.052450
     52 H25         5.3100    2.0290   -1.9920 hc        1 1FY      0.041200
     53 H26         5.5110    0.2310   -1.9140 hc        1 1FY      0.041200
     54 H192       -0.3380    0.3850    0.3400 hn        1 1FY      0.486300
@<TRIPOS>BOND
     1    1    2 2   
     2    2    3 1   
     3    2    9 1   
     4    3    4 1   
     5    3   28 1   
     6    3   54 1   
     7    4    5 2   
     8    4    8 1   
     9    5    6 1   
    10    6    7 2   
    11    6   29 1   
    12    7    8 1   
    13    7   30 1   
    14    9   10 1   
    15    9   21 1   
    16    9   31 1   
    17   10   11 1   
    18   10   19 1   
    19   11   12 1   
    20   11   32 1   
    21   11   33 1   
    22   12   13 1   
    23   12   34 1   
    24   12   35 1   
    25   13   14 1   
    26   13   18 1   
    27   14   15 2   
    28   14   16 1   
    29   14   17 2   
    30   16   36 1   
    31   16   37 1   
    32   16   38 1   
    33   18   19 1   
    34   18   39 1   
    35   18   40 1   
    36   19   20 2   
    37   21   22 1   
    38   21   41 1   
    39   21   42 1   
    40   22   23 1   
    41   22   27 1   
    42   22   43 1   
    43   23   24 1   
    44   23   44 1   
    45   23   45 1   
    46   24   25 1   
    47   24   46 1   
    48   24   47 1   
    49   25   26 1   
    50   25   48 1   
    51   25   49 1   
    52   26   27 1   
    53   26   50 1   
    54   26   51 1   
    55   27   52 1   
    56   27   53 1   
@<TRIPOS>SUBSTRUCTURE
     1 1FY         1 TEMP              0 ****  ****    0 ROOT
