@<TRIPOS>MOLECULE
1FY
   53    51     1     0     0
SMALL
bcc


@<TRIPOS>ATOM
      1 O18        -1.5470    0.6610    1.3920 o         1 1FY     -0.336000
      2 C17        -0.4420    0.0940    1.3780 c1        1 1FY      0.290000
      3 N19         0.0840   -0.5040    2.6000 n3        1 1FY     -0.288000
      4 C20        -0.6560   -0.4360    3.7840 c2        1 1FY     -0.179000
      5 N21        -1.8920   -1.0890    4.0310 n2        1 1FY     -0.163000
      6 C22        -2.2890   -0.8490    5.5240 c1        1 1FY     -0.111000
      7 C23        -1.2690   -0.0490    6.1390 c1        1 1FY     -0.524000
      8 S24        -0.2110    0.2430    5.0900 ss        1 1FY      0.611000
      9 C9          0.3350   -0.0210    0.0760 c2        1 1FY      0.038000
     10 N8         -0.3200   -0.9410   -0.7890 n         1 1FY     -0.345000
     11 C7          0.1400   -2.3220   -0.8760 c3        1 1FY     -0.031000
     12 C6         -0.2460   -2.9890   -2.0820 c3        1 1FY     -0.029000
     13 N5         -1.6800   -2.8770   -2.3600 n3        1 1FY     -0.839000
     14 S2         -2.7220   -4.1220   -1.9160 s4        1 1FY      2.036800
     15 O4         -2.1120   -4.9940   -0.9940 o         1 1FY     -0.531900
     16 C1         -3.2800   -4.9930   -3.3450 c2        1 1FY     -0.945000
     17 O3         -3.8420   -3.6200   -1.1340 o         1 1FY     -0.531900
     18 C27        -2.1410   -1.5490   -2.3760 c3        1 1FY     -0.038000
     19 C25        -1.6750   -0.8030   -1.0460 c2        1 1FY      0.304000
     20 O26        -2.2660    0.1880   -0.6670 o         1 1FY     -0.338000
     21 C10         0.4010    1.3550   -0.6090 c3        1 1FY     -0.159000
     22 C11         1.6310    2.1140   -0.1260 c3        1 1FY     -0.107000
     23 C12         2.5730    2.3210   -1.2950 c3        1 1FY     -0.150500
     24 C13         3.7600    3.2310   -0.9410 c3        1 1FY     -0.155000
     25 C14         3.3150    4.5550   -0.3060 c3        1 1FY     -0.155000
     26 C15         2.3710    4.3490    0.8640 c3        1 1FY     -0.155000
     27 C16         1.1850    3.4390    0.5070 c3        1 1FY     -0.150500
     28 H1          0.8580   -0.9540    2.5810 hn        1 1FY      0.252000
     29 H2         -3.0690   -1.1750    5.9490 DU        1 1FY      0.179500
     30 H3         -1.2580    0.2450    7.0390 DU        1 1FY      0.179500
     31 H4          1.2500   -0.3400    0.2660 h4        1 1FY      0.119000
     32 H5          1.1240   -2.3280   -0.8180 h1        1 1FY      0.093000
     33 H6         -0.2210   -2.8210   -0.1130 h1        1 1FY      0.093000
     34 H7         -0.0140   -3.9270   -2.0080 h1        1 1FY      0.109000
     35 H8          0.2570   -2.5920   -2.8400 h1        1 1FY      0.109000
     36 H9         -3.6170   -4.3660   -3.9900 ha        1 1FY      0.157000
     37 H10        -3.9970   -5.6200   -3.0890 ha        1 1FY      0.157000
     38 H11        -2.5360   -5.4930   -3.7340 ha        1 1FY      0.157000
     39 H12        -3.0750   -1.4370   -2.4670 h1        1 1FY      0.129500
     40 H13        -1.8210   -1.1160   -3.1890 h1        1 1FY      0.129500
     41 H14        -0.3960    1.8610   -0.3930 hc        1 1FY      0.112000
     42 H15         0.4550    1.2330   -1.5690 hc        1 1FY      0.112000
     43 H16         2.0890    1.5750    0.5560 hc        1 1FY      0.107000
     44 H17         2.0640    2.7330   -2.0500 hc        1 1FY      0.078000
     45 H18         2.9080    1.4700   -1.5770 hc        1 1FY      0.078000
     46 H19         4.2580    3.4230   -1.7480 hc        1 1FY      0.080250
     47 H20         4.3620    2.7440   -0.2940 hc        1 1FY      0.080250
     48 H21         4.1400    5.0570    0.0210 hc        1 1FY      0.078500
     49 H22         2.8530    5.1070   -1.0010 hc        1 1FY      0.078500
     50 H23         2.8720    3.9430    1.6110 hc        1 1FY      0.080250
     51 H24         2.0260    5.2220    1.1500 hc        1 1FY      0.080250
     52 H25         0.6800    3.2470    1.3130 hc        1 1FY      0.078000
     53 H26         0.5990    3.9150   -0.1310 hc        1 1FY      0.078000
@<TRIPOS>BOND
     1    1    2 1   
     2    2    3 1   
     3    3    4 1   
     4    3   28 1   
     5    4    5 1   
     6    4    8 1   
     7    5    6 1   
     8    6    7 1   
     9    7    8 1   
    10    9   10 1   
    11    9   21 1   
    12    9   31 1   
    13   10   11 1   
    14   10   19 1   
    15   11   12 1   
    16   11   32 1   
    17   11   33 1   
    18   12   13 1   
    19   12   34 1   
    20   12   35 1   
    21   13   14 1   
    22   13   18 1   
    23   14   15 1   
    24   14   17 1   
    25   16   36 1   
    26   16   37 1   
    27   16   38 1   
    28   18   19 1   
    29   18   39 1   
    30   18   40 1   
    31   19   20 1   
    32   21   22 1   
    33   21   41 1   
    34   21   42 1   
    35   22   23 1   
    36   22   27 1   
    37   22   43 1   
    38   23   24 1   
    39   23   44 1   
    40   23   45 1   
    41   24   25 1   
    42   24   46 1   
    43   24   47 1   
    44   25   26 1   
    45   25   48 1   
    46   25   49 1   
    47   26   27 1   
    48   26   50 1   
    49   26   51 1   
    50   27   52 1   
    51   27   53 1   
@<TRIPOS>SUBSTRUCTURE
     1 1FY         1 TEMP              0 ****  ****    0 ROOT
