@<TRIPOS>MOLECULE
1FY
   53    55     1     0     0
SMALL
bcc


@<TRIPOS>ATOM
      1 O18         2.8390    0.1610   -1.8990 o         1 1FY     -0.598100
      2 C17         2.1580    0.1400   -0.8550 c         1 1FY      0.635100
      3 N19         2.6400   -0.3740    0.3310 n         1 1FY     -0.513400
      4 C20         3.9190   -0.9180    0.4610 cc        1 1FY      0.484300
      5 N21         4.3850   -1.4410    1.6240 nd        1 1FY     -0.682000
      6 C22         5.6720   -1.8910    1.4270 cd        1 1FY      0.352200
      7 C23         6.1810   -1.7190    0.1470 cc        1 1FY     -0.315400
      8 S24         5.0640   -0.9880   -0.8460 ss        1 1FY      0.004700
      9 C9          0.7210    0.7230   -0.8700 c3        1 1FY      0.058700
     10 N8         -0.2850   -0.2940   -0.6420 n         1 1FY     -0.464800
     11 C7         -1.0230   -0.7150   -1.8140 c3        1 1FY      0.079000
     12 C6         -1.8210   -2.0200   -1.6170 c3        1 1FY      0.206800
     13 N5         -2.5570   -2.0410   -0.3830 n3        1 1FY     -0.819500
     14 S2         -4.1750   -2.2680   -0.3150 s6        1 1FY      1.464900
     15 O4         -4.7390   -2.0260   -1.5840 o         1 1FY     -0.646300
     16 C1         -4.3150   -3.9290    0.0160 c3        1 1FY     -0.365300
     17 O3         -4.7130   -1.5600    0.7760 o         1 1FY     -0.646300
     18 C27        -1.7700   -1.7680    0.7840 c3        1 1FY      0.150800
     19 C25        -0.6240   -0.7620    0.6150 c         1 1FY      0.702500
     20 O26         0.0040   -0.4260    1.6410 o         1 1FY     -0.650500
     21 C10         0.6790    1.9510    0.0510 c3        1 1FY     -0.100400
     22 C11        -0.5720    2.7930   -0.1660 c3        1 1FY     -0.060700
     23 C12        -1.5200    2.6730    1.0210 c3        1 1FY     -0.073400
     24 C13        -2.7650    3.5080    0.8100 c3        1 1FY     -0.076900
     25 C14        -2.4150    4.9600    0.5590 c3        1 1FY     -0.077400
     26 C15        -1.4470    5.1010   -0.5970 c3        1 1FY     -0.076900
     27 C16        -0.2070    4.2550   -0.3890 c3        1 1FY     -0.073400
     28 H1          2.0560   -0.3550    1.1480 hn        1 1FY      0.370500
     29 H2          6.1960   -2.3450    2.2770 h4        1 1FY      0.042100
     30 H3          7.1760   -2.0180   -0.1730 h4        1 1FY      0.180000
     31 H4          0.5850    1.1000   -1.9340 h1        1 1FY      0.094700
     32 H5         -1.7290    0.1120   -2.1180 h1        1 1FY      0.061700
     33 H6         -0.2980   -0.8870   -2.6620 h1        1 1FY      0.061700
     34 H7         -2.5360   -2.1170   -2.4860 h1        1 1FY      0.072200
     35 H8         -1.1070   -2.8930   -1.6430 h1        1 1FY      0.072200
     36 H9         -3.7920   -4.2500    0.9500 h1        1 1FY      0.118367
     37 H10        -5.3920   -4.2050    0.1570 h1        1 1FY      0.118367
     38 H11        -3.9330   -4.5820   -0.8060 h1        1 1FY      0.118367
     39 H12        -2.4350   -1.3580    1.6040 h1        1 1FY      0.092200
     40 H13        -1.2840   -2.7190    1.1550 h1        1 1FY      0.092200
     41 H14         0.7550    1.6400    1.1260 hc        1 1FY      0.074200
     42 H15         1.5950    2.5580   -0.1860 hc        1 1FY      0.074200
     43 H16        -1.1160    2.4310   -1.0840 hc        1 1FY      0.043700
     44 H17        -1.7980    1.5970    1.1690 hc        1 1FY      0.042950
     45 H18        -0.9940    3.0130    1.9530 hc        1 1FY      0.042950
     46 H19        -3.3440    3.1060   -0.0620 hc        1 1FY      0.041200
     47 H20        -3.4240    3.4300    1.7140 hc        1 1FY      0.041200
     48 H21        -3.3490    5.5400    0.3390 hc        1 1FY      0.040700
     49 H22        -1.9570    5.3980    1.4850 hc        1 1FY      0.040700
     50 H23        -1.9540    4.7920   -1.5480 hc        1 1FY      0.041200
     51 H24        -1.1490    6.1760   -0.7090 hc        1 1FY      0.041200
     52 H25         0.3650    4.6360    0.4980 hc        1 1FY      0.042950
     53 H26         0.4610    4.3430   -1.2860 hc        1 1FY      0.042950
@<TRIPOS>BOND
     1    1    2 2   
     2    2    3 1   
     3    2    9 1   
     4    3    4 1   
     5    3   28 1   
     6    4    5 2   
     7    4    8 1   
     8    5    6 1   
     9    6    7 2   
    10    6   29 1   
    11    7    8 1   
    12    7   30 1   
    13    9   10 1   
    14    9   21 1   
    15    9   31 1   
    16   10   11 1   
    17   10   19 1   
    18   11   12 1   
    19   11   32 1   
    20   11   33 1   
    21   12   13 1   
    22   12   34 1   
    23   12   35 1   
    24   13   14 1   
    25   13   18 1   
    26   14   15 2   
    27   14   16 1   
    28   14   17 2   
    29   16   36 1   
    30   16   37 1   
    31   16   38 1   
    32   18   19 1   
    33   18   39 1   
    34   18   40 1   
    35   19   20 2   
    36   21   22 1   
    37   21   41 1   
    38   21   42 1   
    39   22   23 1   
    40   22   27 1   
    41   22   43 1   
    42   23   24 1   
    43   23   44 1   
    44   23   45 1   
    45   24   25 1   
    46   24   46 1   
    47   24   47 1   
    48   25   26 1   
    49   25   48 1   
    50   25   49 1   
    51   26   27 1   
    52   26   50 1   
    53   26   51 1   
    54   27   52 1   
    55   27   53 1   
@<TRIPOS>SUBSTRUCTURE
     1 1FY         1 TEMP              0 ****  ****    0 ROOT
