@<TRIPOS>MOLECULE
1FY
   53    55     1     0     0
SMALL
bcc


@<TRIPOS>ATOM
      1 O18         2.0980   -1.4350    0.5720 o         1 1FY     -0.598100
      2 C17         1.7050   -0.4050   -0.0090 c         1 1FY      0.635100
      3 N19         0.8960    0.5280    0.6060 ns        1 1FY     -0.513400
      4 C20         0.4470    0.3970    1.9210 cc        1 1FY      0.484300
      5 N21        -0.3640    1.3070    2.5200 nd        1 1FY     -0.682000
      6 C22        -0.6250    0.8940    3.8080 cd        1 1FY      0.352200
      7 C23        -0.0310   -0.3010    4.1890 cc        1 1FY     -0.315400
      8 S24         0.8720   -0.9420    2.9460 ss        1 1FY      0.004700
      9 C9          2.1430   -0.1410   -1.4730 c3        1 1FY      0.058700
     10 N8          1.0260   -0.1710   -2.3940 n         1 1FY     -0.464800
     11 C7          0.9200   -1.3640   -3.2090 c3        1 1FY      0.079000
     12 C6         -0.4440   -1.5250   -3.9100 c3        1 1FY      0.206800
     13 N5         -0.8990   -0.3110   -4.5290 n3        1 1FY     -0.819500
     14 S2         -1.2690   -0.2060   -6.1190 s6        1 1FY      1.464900
     15 O4         -0.7010   -1.2970   -6.8070 o         1 1FY     -0.646300
     16 C1         -2.9580   -0.3960   -6.1320 c3        1 1FY     -0.365300
     17 O3         -0.9720    1.0840   -6.5960 o         1 1FY     -0.646300
     18 C27        -0.9290    0.8270   -3.6570 c3        1 1FY      0.150800
     19 C25         0.1720    0.9000   -2.5910 c         1 1FY      0.702500
     20 O26         0.2320    1.9340   -1.8940 o         1 1FY     -0.650500
     21 C10         3.0260    1.1140   -1.5030 c3        1 1FY     -0.100400
     22 C11         3.7870    1.2540   -2.8160 c3        1 1FY     -0.060700
     23 C12         3.2360    2.4080   -3.6430 c3        1 1FY     -0.073400
     24 C13         3.9880    2.5500   -4.9500 c3        1 1FY     -0.076900
     25 C14         5.4730    2.7360   -4.7090 c3        1 1FY     -0.077400
     26 C15         6.0360    1.6160   -3.8590 c3        1 1FY     -0.076900
     27 C16         5.2740    1.4670   -2.5580 c3        1 1FY     -0.073400
     28 H1          0.6180    1.3490    0.0980 hn        1 1FY      0.370500
     29 H2         -1.2700    1.5250    4.4310 h4        1 1FY      0.042100
     30 H3         -0.1350   -0.7650    5.1670 h4        1 1FY      0.180000
     31 H4          2.8130   -1.0250   -1.7270 h1        1 1FY      0.094700
     32 H5          1.0740   -2.2700   -2.5540 h1        1 1FY      0.061700
     33 H6          1.7390   -1.3480   -3.9860 h1        1 1FY      0.061700
     34 H7         -0.3320   -2.3310   -4.6930 h1        1 1FY      0.072200
     35 H8         -1.2060   -1.8680   -3.1510 h1        1 1FY      0.072200
     36 H9         -3.5020    0.3550   -5.5090 h1        1 1FY      0.118367
     37 H10        -3.2960   -1.4030   -5.7890 h1        1 1FY      0.118367
     38 H11        -3.3510   -0.2740   -7.1740 h1        1 1FY      0.118367
     39 H12        -0.8440    1.7760   -4.2680 h1        1 1FY      0.092200
     40 H13        -1.9040    0.8520   -3.0850 h1        1 1FY      0.092200
     41 H14         3.7510    1.0150   -0.6500 hc        1 1FY      0.074200
     42 H15         2.4120    2.0330   -1.3130 hc        1 1FY      0.074200
     43 H16         3.6760    0.3080   -3.4190 hc        1 1FY      0.043700
     44 H17         3.3200    3.3610   -3.0560 hc        1 1FY      0.042950
     45 H18         2.1460    2.2360   -3.8440 hc        1 1FY      0.042950
     46 H19         3.5860    3.4290   -5.5180 hc        1 1FY      0.041200
     47 H20         3.8220    1.6380   -5.5810 hc        1 1FY      0.041200
     48 H21         6.0120    2.7700   -5.6910 hc        1 1FY      0.040700
     49 H22         5.6470    3.7180   -4.1950 hc        1 1FY      0.040700
     50 H23         5.9880    0.6520   -4.4320 hc        1 1FY      0.041200
     51 H24         7.1160    1.8200   -3.6360 hc        1 1FY      0.041200
     52 H25         5.6840    0.5980   -1.9810 hc        1 1FY      0.042950
     53 H26         5.4150    2.3870   -1.9320 hc        1 1FY      0.042950
@<TRIPOS>BOND
     1    1    2 2   
     2    2    3 1   
     3    2    9 1   
     4    3    4 1   
     5    3   28 1   
     6    4    5 2   
     7    4    8 1   
     8    5    6 1   
     9    6    7 2   
    10    6   29 1   
    11    7    8 1   
    12    7   30 1   
    13    9   10 1   
    14    9   21 1   
    15    9   31 1   
    16   10   11 1   
    17   10   19 1   
    18   11   12 1   
    19   11   32 1   
    20   11   33 1   
    21   12   13 1   
    22   12   34 1   
    23   12   35 1   
    24   13   14 1   
    25   13   18 1   
    26   14   15 2   
    27   14   16 1   
    28   14   17 2   
    29   16   36 1   
    30   16   37 1   
    31   16   38 1   
    32   18   19 1   
    33   18   39 1   
    34   18   40 1   
    35   19   20 2   
    36   21   22 1   
    37   21   41 1   
    38   21   42 1   
    39   22   23 1   
    40   22   27 1   
    41   22   43 1   
    42   23   24 1   
    43   23   44 1   
    44   23   45 1   
    45   24   25 1   
    46   24   46 1   
    47   24   47 1   
    48   25   26 1   
    49   25   48 1   
    50   25   49 1   
    51   26   27 1   
    52   26   50 1   
    53   26   51 1   
    54   27   52 1   
    55   27   53 1   
@<TRIPOS>SUBSTRUCTURE
     1 1FY         1 TEMP              0 ****  ****    0 ROOT
