@<TRIPOS>MOLECULE
1FZ
   44    45     1     0     0
SMALL
bcc


@<TRIPOS>ATOM
      1 O2          0.0000    0.0000    0.0000 o         1 1FZ     -0.731500
      2 O4          4.3700    0.0020   -0.7860 o         1 1FZ     -0.761500
      3 C4          3.4400    0.0000    0.0000 c         1 1FZ      0.604700
      4 C5          3.6830    0.0000    1.3960 cc        1 1FZ     -0.343400
      5 C6          2.6340   -0.0040    2.2450 cd        1 1FZ     -0.266400
      6 C5M         5.0950    0.0030    1.9240 c3        1 1FZ      0.130100
      7 N3          2.1690    0.0020   -0.4500 ns        1 1FZ     -0.142500
      8 C2          1.1420   -0.0020    0.4200 c         1 1FZ      0.587500
      9 N1          1.3590   -0.0080    1.7470 n         1 1FZ      0.079000
     10 C1'         0.2200   -0.0120    2.6690 c3        1 1FZ      0.237500
     11 C2'        -0.5800    1.2960    2.5190 c3        1 1FZ     -0.109400
     12 C3'        -2.0050    0.8270    2.1330 c3        1 1FZ      0.152100
     13 O3'        -2.9970    1.5970    2.8140 oh        1 1FZ     -0.586800
     14 O4'        -0.6640   -1.0970    2.3490 os        1 1FZ     -0.364600
     15 C4'        -2.0070   -0.6420    2.6300 c3        1 1FZ      0.164100
     16 C5'        -3.0320   -1.4710    1.8530 c3        1 1FZ      0.285400
     17 O5'        -3.0980   -2.7870    2.4060 os        1 1FZ     -0.498200
     18 PA         -4.0750   -3.9310    1.8340 p5        1 1FZ      0.701700
     19 O1A        -4.1850   -5.1280    2.9050 o         1 1FZ     -0.559500
     20 O2A        -5.4180   -3.3580    1.5950 o         1 1FZ     -0.559500
     21 N3A        -3.4540   -4.5280    0.3870 ny        1 1FZ     -0.199200
     22 PB         -4.4470   -5.7290   -0.2460 p5        1 1FZ      0.704700
     23 O1B        -5.9120   -5.1220   -0.5250 o         1 1FZ     -0.576500
     24 O2B        -4.5520   -6.8440    0.7210 o         1 1FZ     -0.576500
     25 O3B        -3.8200   -6.2730   -1.6260 os        1 1FZ     -0.503800
     26 PG         -4.2700   -7.3890   -2.6960 p5        1 1FZ      0.809900
     27 O1G        -3.4320   -7.1940   -4.0570 o         1 1FZ     -0.658833
     28 O3G        -5.7150   -7.2450   -2.9810 o         1 1FZ     -0.658833
     29 O2G        -3.9840   -8.8540   -2.0940 o         1 1FZ     -0.658833
     30 H2          5.5550   -0.9580    1.7310 hc        1 1FZ     -0.016300
     31 H3          5.0800    0.1890    2.9910 hc        1 1FZ     -0.016300
     32 H4          5.6630    0.7820    1.4300 hc        1 1FZ     -0.016300
     33 H6          0.5680   -0.1120    3.6900 h2        1 1FZ      0.015700
     34 H7         -0.6010    1.8360    3.4580 hc        1 1FZ      0.022700
     35 H8         -0.1580    1.9090    1.7310 hc        1 1FZ      0.022700
     36 H9         -2.1440    0.8680    1.0600 h1        1 1FZ      0.044700
     37 H10        -3.3270    2.2650    2.2370 ho        1 1FZ      0.377000
     38 H11        -2.2050   -0.6810    3.6940 h1        1 1FZ      0.024700
     39 H12        -2.7350   -1.5310    0.8130 h1        1 1FZ     -0.008800
     40 H13        -4.0060   -1.0010    1.9230 h1        1 1FZ     -0.008800
     41 H15        -3.3830   -3.7790   -0.2730 hn        1 1FZ      0.276300
     42 H5          1.9890    0.0050   -1.4340 hn        1 1FZ      0.187500
     43 H3A2       -2.5430   -4.9080    0.5530 hn        1 1FZ      0.276300
     44 H1          2.8000   -0.0060    3.3160 h4        1 1FZ      0.119000
@<TRIPOS>BOND
     1    1    8 2   
     2    2    3 2   
     3    3    4 1   
     4    3    7 1   
     5    4    5 2   
     6    4    6 1   
     7    5    9 1   
     8    5   44 1   
     9    6   30 1   
    10    6   31 1   
    11    6   32 1   
    12    7    8 1   
    13    7   42 1   
    14    8    9 1   
    15    9   10 1   
    16   10   11 1   
    17   10   14 1   
    18   10   33 1   
    19   11   12 1   
    20   11   34 1   
    21   11   35 1   
    22   12   13 1   
    23   12   15 1   
    24   12   36 1   
    25   13   37 1   
    26   14   15 1   
    27   15   16 1   
    28   15   38 1   
    29   16   17 1   
    30   16   39 1   
    31   16   40 1   
    32   17   18 1   
    33   18   19 1   
    34   18   20 1   
    35   18   21 1   
    36   21   22 1   
    37   21   41 1   
    38   21   43 1   
    39   22   23 1   
    40   22   24 1   
    41   22   25 1   
    42   25   26 1   
    43   26   27 1   
    44   26   28 1   
    45   26   29 1   
@<TRIPOS>SUBSTRUCTURE
     1 1FZ         1 TEMP              0 ****  ****    0 ROOT
