@<TRIPOS>MOLECULE
1G0
   48    52     1     0     0
SMALL
bcc


@<TRIPOS>ATOM
      1 O1          0.2180   -0.7630    0.1250 oh        1 1G0     -0.585800
      2 C2          1.4660   -0.1580   -0.0580 cy        1 1G0      0.139100
      3 C4          2.2280    0.2010    1.2480 cy        1 1G0     -0.120400
      4 C5          3.3730   -0.7660    0.8500 cy        1 1G0     -0.088000
      5 C7          2.6180   -1.1210   -0.4570 cy        1 1G0     -0.120400
      6 C8          3.5530   -1.9080    1.7790 cc        1 1G0      0.353800
      7 N9          2.5630   -2.7580    2.1900 nd        1 1G0     -0.550300
      8 C10         3.1390   -3.6720    3.0580 cd        1 1G0      0.101400
      9 C11         4.5310   -3.3960    3.1880 cc        1 1G0     -0.242600
     10 C12         5.6650   -3.9910    3.8930 cc        1 1G0      0.719200
     11 N13         5.4170   -5.0610    4.7330 nv        1 1G0     -0.944500
     12 N14         6.9110   -3.4820    3.7700 nd        1 1G0     -0.759000
     13 C15         7.0670   -2.3730    2.9800 cd        1 1G0      0.414200
     14 C16         6.0570   -1.7460    2.2750 cc        1 1G0     -0.260600
     15 N17         4.7730   -2.2620    2.3690 na        1 1G0     -0.014200
     16 C18         2.3810   -4.7320    3.7060 ca        1 1G0     -0.050800
     17 C19         1.6770   -5.6610    2.9250 ca        1 1G0     -0.088500
     18 C20         0.9330   -6.6700    3.5280 ca        1 1G0     -0.167000
     19 C21         0.8940   -6.7450    4.9290 ca        1 1G0      0.114100
     20 O22         0.2130   -7.8390    5.4500 os        1 1G0     -0.250200
     21 C23        -0.3980   -7.6670    6.6910 ca        1 1G0      0.099100
     22 C24        -1.0770   -6.4950    7.0460 ca        1 1G0     -0.154000
     23 C25        -1.7530   -6.4520    8.2640 ca        1 1G0     -0.109000
     24 C26        -1.7540   -7.5610    9.1100 ca        1 1G0     -0.146000
     25 C27        -1.0760   -8.7230    8.7430 ca        1 1G0     -0.109000
     26 C28        -0.3870   -8.7880    7.5340 ca        1 1G0     -0.154000
     27 C29         1.5800   -5.8160    5.7210 ca        1 1G0     -0.167000
     28 C30         2.3170   -4.8090    5.1040 ca        1 1G0     -0.088500
     29 H1          0.3380   -1.5030    0.7360 ho        1 1G0      0.418000
     30 H2          1.2920    0.6930   -0.7570 h1        1 1G0      0.083700
     31 H3          1.6840   -0.0820    2.1740 hc        1 1G0      0.067450
     32 H4          2.5470    1.2620    1.3050 hc        1 1G0      0.067450
     33 H5          4.3390   -0.2400    0.6630 hc        1 1G0      0.065700
     34 H6          2.3040   -2.1830   -0.5380 hc        1 1G0      0.067450
     35 H7          3.1600   -0.8160   -1.3750 hc        1 1G0      0.067450
     36 H8          4.5720   -5.5620    4.5810 hn        1 1G0      0.435300
     37 H9          6.1930   -5.5720    5.0820 hn        1 1G0      0.435300
     38 H10         8.1030   -1.9930    2.9300 h4        1 1G0      0.036100
     39 H11         6.2030   -0.8620    1.6390 h4        1 1G0      0.171000
     40 H12         1.7060   -5.5840    1.8270 ha        1 1G0      0.149000
     41 H13         0.3820   -7.4070    2.9260 ha        1 1G0      0.153500
     42 H14        -1.0710   -5.6270    6.3710 ha        1 1G0      0.150000
     43 H15        -2.2920   -5.5370    8.5540 ha        1 1G0      0.136500
     44 H16        -2.2920   -7.5190   10.0680 ha        1 1G0      0.135000
     45 H17        -1.0800   -9.5970    9.4120 ha        1 1G0      0.136500
     46 H18         0.1480   -9.6980    7.2280 ha        1 1G0      0.150000
     47 H19         1.5270   -5.8800    6.8180 ha        1 1G0      0.153500
     48 H20         2.8470   -4.0650    5.7190 ha        1 1G0      0.149000
@<TRIPOS>BOND
     1    1    2 1   
     2    1   29 1   
     3    2    3 1   
     4    2    5 1   
     5    2   30 1   
     6    3    4 1   
     7    3   31 1   
     8    3   32 1   
     9    4    5 1   
    10    4    6 1   
    11    4   33 1   
    12    5   34 1   
    13    5   35 1   
    14    6    7 2   
    15    6   15 1   
    16    7    8 1   
    17    8    9 2   
    18    8   16 1   
    19    9   10 1   
    20    9   15 1   
    21   10   11 1   
    22   10   12 2   
    23   11   36 1   
    24   11   37 1   
    25   12   13 1   
    26   13   14 2   
    27   13   38 1   
    28   14   15 1   
    29   14   39 1   
    30   16   17 ar  
    31   16   28 ar  
    32   17   18 ar  
    33   17   40 1   
    34   18   19 ar  
    35   18   41 1   
    36   19   20 1   
    37   19   27 ar  
    38   20   21 1   
    39   21   22 ar  
    40   21   26 ar  
    41   22   23 ar  
    42   22   42 1   
    43   23   24 ar  
    44   23   43 1   
    45   24   25 ar  
    46   24   44 1   
    47   25   26 ar  
    48   25   45 1   
    49   26   46 1   
    50   27   28 ar  
    51   27   47 1   
    52   28   48 1   
@<TRIPOS>SUBSTRUCTURE
     1 1G0         1 TEMP              0 ****  ****    0 ROOT
