@<TRIPOS>MOLECULE
1G0
   48    52     1     0     0
SMALL
bcc


@<TRIPOS>ATOM
      1 O1          0.2240   -0.7300    0.1530 oh        1 1G0     -0.585800
      2 C2          1.4750   -0.1290   -0.0290 cy        1 1G0      0.139100
      3 C4          2.2400    0.2170    1.2780 cy        1 1G0     -0.120400
      4 C5          3.3810   -0.7520    0.8700 cy        1 1G0     -0.088000
      5 C7          2.6210   -1.0950   -0.4370 cy        1 1G0     -0.120400
      6 C8          3.5580   -1.9010    1.7910 cc        1 1G0      0.353800
      7 N9          2.5660   -2.7490    2.1990 nd        1 1G0     -0.549300
      8 C10         3.1390   -3.6710    3.0600 cd        1 1G0      0.101400
      9 C11         4.5330   -3.4010    3.1880 cc        1 1G0     -0.242600
     10 C12         5.6660   -4.0070    3.8870 cc        1 1G0      0.719200
     11 N13         5.4150   -5.0800    4.7210 nh        1 1G0     -0.944500
     12 N14         6.9140   -3.5020    3.7640 nd        1 1G0     -0.759000
     13 C15         7.0730   -2.3890    2.9810 cd        1 1G0      0.414200
     14 C16         6.0640   -1.7530    2.2820 cc        1 1G0     -0.260600
     15 N17         4.7780   -2.2630    2.3760 na        1 1G0     -0.014200
     16 C18         2.3780   -4.7320    3.7030 ca        1 1G0     -0.050800
     17 C19         1.6690   -5.6530    2.9170 ca        1 1G0     -0.089000
     18 C20         0.9220   -6.6630    3.5150 ca        1 1G0     -0.166500
     19 C21         0.8860   -6.7460    4.9160 ca        1 1G0      0.114100
     20 O22         0.2010   -7.8410    5.4320 os        1 1G0     -0.250200
     21 C23        -0.4090   -7.6730    6.6730 ca        1 1G0      0.099100
     22 C24        -1.0820   -6.5000    7.0360 ca        1 1G0     -0.154000
     23 C25        -1.7580   -6.4600    8.2550 ca        1 1G0     -0.109000
     24 C26        -1.7640   -7.5740    9.0940 ca        1 1G0     -0.146000
     25 C27        -1.0910   -8.7380    8.7200 ca        1 1G0     -0.109000
     26 C28        -0.4030   -8.7990    7.5100 ca        1 1G0     -0.154000
     27 C29         1.5770   -5.8260    5.7130 ca        1 1G0     -0.166500
     28 C30         2.3170   -4.8170    5.1000 ca        1 1G0     -0.089000
     29 H1          0.3430   -1.4760    0.7580 ho        1 1G0      0.418000
     30 H2          1.3020    0.7270   -0.7230 h1        1 1G0      0.083700
     31 H3          1.6980   -0.0690    2.2030 hc        1 1G0      0.067450
     32 H4          2.5640    1.2770    1.3400 hc        1 1G0      0.067450
     33 H5          4.3490   -0.2290    0.6840 hc        1 1G0      0.065700
     34 H6          3.1630   -0.7860   -1.3550 hc        1 1G0      0.067450
     35 H7          2.3020   -2.1550   -0.5240 hc        1 1G0      0.067450
     36 H8          6.1900   -5.5970    5.0650 hn        1 1G0      0.435300
     37 H9          4.5680   -5.5770    4.5670 hn        1 1G0      0.435300
     38 H10         8.1100   -2.0130    2.9310 h4        1 1G0      0.036100
     39 H11         6.2130   -0.8650    1.6520 h4        1 1G0      0.171000
     40 H12         1.6960   -5.5690    1.8200 ha        1 1G0      0.149000
     41 H13         0.3670   -7.3940    2.9100 ha        1 1G0      0.153500
     42 H14        -1.0720   -5.6280    6.3660 ha        1 1G0      0.150000
     43 H15        -2.2920   -5.5450    8.5500 ha        1 1G0      0.136500
     44 H16        -2.3010   -7.5360   10.0530 ha        1 1G0      0.135000
     45 H17        -1.0990   -9.6160    9.3840 ha        1 1G0      0.136500
     46 H18         0.1270   -9.7100    7.1990 ha        1 1G0      0.150000
     47 H19         1.5260   -5.8960    6.8090 ha        1 1G0      0.153500
     48 H20         2.8510   -4.0800    5.7190 ha        1 1G0      0.149000
@<TRIPOS>BOND
     1    1    2 1   
     2    1   29 1   
     3    2    3 1   
     4    2    5 1   
     5    2   30 1   
     6    3    4 1   
     7    3   31 1   
     8    3   32 1   
     9    4    5 1   
    10    4    6 1   
    11    4   33 1   
    12    5   34 1   
    13    5   35 1   
    14    6    7 2   
    15    6   15 1   
    16    7    8 1   
    17    8    9 2   
    18    8   16 1   
    19    9   10 1   
    20    9   15 1   
    21   10   11 1   
    22   10   12 2   
    23   11   36 1   
    24   11   37 1   
    25   12   13 1   
    26   13   14 2   
    27   13   38 1   
    28   14   15 1   
    29   14   39 1   
    30   16   17 ar  
    31   16   28 ar  
    32   17   18 ar  
    33   17   40 1   
    34   18   19 ar  
    35   18   41 1   
    36   19   20 1   
    37   19   27 ar  
    38   20   21 1   
    39   21   22 ar  
    40   21   26 ar  
    41   22   23 ar  
    42   22   42 1   
    43   23   24 ar  
    44   23   43 1   
    45   24   25 ar  
    46   24   44 1   
    47   25   26 ar  
    48   25   45 1   
    49   26   46 1   
    50   27   28 ar  
    51   27   47 1   
    52   28   48 1   
@<TRIPOS>SUBSTRUCTURE
     1 1G0         1 TEMP              0 ****  ****    0 ROOT
