@<TRIPOS>MOLECULE
1G0
   48    52     1     0     0
SMALL
bcc


@<TRIPOS>ATOM
      1 O1         -3.7300    4.1590    0.4120 oh        1 1G0     -0.585800
      2 C2         -4.7910    3.2900    0.1330 cy        1 1G0      0.139100
      3 C4         -4.5700    2.3400   -1.0760 cy        1 1G0     -0.120400
      4 C5         -4.6780    1.1120   -0.1350 cy        1 1G0     -0.088000
      5 C7         -4.9050    2.0580    1.0730 cy        1 1G0     -0.120400
      6 C8         -3.4380    0.3020   -0.0490 cc        1 1G0      0.353800
      7 N9         -2.1910    0.7910    0.2260 nd        1 1G0     -0.549300
      8 C10        -1.3130   -0.2820    0.2000 cd        1 1G0      0.101400
      9 C11        -2.0310   -1.4780   -0.0890 cc        1 1G0     -0.242600
     10 C12        -1.7080   -2.9000   -0.2120 cc        1 1G0      0.719200
     11 N13        -0.3820   -3.2740   -0.1090 nh        1 1G0     -0.944500
     12 N14        -2.6690   -3.8140   -0.4700 nd        1 1G0     -0.759000
     13 C15        -3.9500   -3.3580   -0.6370 cd        1 1G0      0.414200
     14 C16        -4.3480   -2.0380   -0.5350 cc        1 1G0     -0.260600
     15 N17        -3.3840   -1.0830   -0.2510 na        1 1G0     -0.014200
     16 C18         0.1150   -0.1390    0.4410 ca        1 1G0     -0.050800
     17 C19         0.5650    0.4180    1.6470 ca        1 1G0     -0.089000
     18 C20         1.9250    0.5770    1.8880 ca        1 1G0     -0.167000
     19 C21         2.8430    0.1750    0.9040 ca        1 1G0      0.114100
     20 O22         4.1830    0.2740    1.2620 os        1 1G0     -0.250200
     21 C23         5.0920    0.5150    0.2330 ca        1 1G0      0.099100
     22 C24         4.8320    1.4040   -0.8170 ca        1 1G0     -0.154000
     23 C25         5.8420    1.6680   -1.7410 ca        1 1G0     -0.109000
     24 C26         7.0900    1.0560   -1.6170 ca        1 1G0     -0.146000
     25 C27         7.3360    0.1740   -0.5640 ca        1 1G0     -0.109000
     26 C28         6.3410   -0.1100    0.3680 ca        1 1G0     -0.154000
     27 C29         2.4090   -0.3690   -0.3100 ca        1 1G0     -0.167000
     28 C30         1.0430   -0.5180   -0.5380 ca        1 1G0     -0.089000
     29 H1         -2.9230    3.6280    0.4610 ho        1 1G0      0.418000
     30 H2         -5.7020    3.9320    0.0750 h1        1 1G0      0.083700
     31 H3         -5.3780    2.3840   -1.8360 hc        1 1G0      0.067450
     32 H4         -3.5810    2.4620   -1.5660 hc        1 1G0      0.067450
     33 H5         -5.5650    0.4720   -0.3560 hc        1 1G0      0.065700
     34 H6         -4.1140    2.0160    1.8510 hc        1 1G0      0.067450
     35 H7         -5.9040    1.9420    1.5420 hc        1 1G0      0.067450
     36 H8          0.2290   -2.6360    0.3460 hn        1 1G0      0.435300
     37 H9         -0.1740   -4.2420   -0.0250 hn        1 1G0      0.435300
     38 H10        -4.6880   -4.1490   -0.8620 h4        1 1G0      0.036100
     39 H11        -5.3820   -1.6930   -0.6640 h4        1 1G0      0.171000
     40 H12        -0.1660    0.7410    2.4050 ha        1 1G0      0.149000
     41 H13         2.2900    1.0070    2.8320 ha        1 1G0      0.153500
     42 H14         3.8460    1.8820   -0.9040 ha        1 1G0      0.150000
     43 H15         5.6500    2.3660   -2.5690 ha        1 1G0      0.136500
     44 H16         7.8810    1.2720   -2.3490 ha        1 1G0      0.135000
     45 H17         8.3220   -0.3050   -0.4680 ha        1 1G0      0.136500
     46 H18         6.5210   -0.7980    1.2060 ha        1 1G0      0.150000
     47 H19         3.1400   -0.6660   -1.0760 ha        1 1G0      0.153500
     48 H20         0.6920   -0.9320   -1.4960 ha        1 1G0      0.149000
@<TRIPOS>BOND
     1    1    2 1   
     2    1   29 1   
     3    2    3 1   
     4    2    5 1   
     5    2   30 1   
     6    3    4 1   
     7    3   31 1   
     8    3   32 1   
     9    4    5 1   
    10    4    6 1   
    11    4   33 1   
    12    5   34 1   
    13    5   35 1   
    14    6    7 2   
    15    6   15 1   
    16    7    8 1   
    17    8    9 2   
    18    8   16 1   
    19    9   10 1   
    20    9   15 1   
    21   10   11 1   
    22   10   12 2   
    23   11   36 1   
    24   11   37 1   
    25   12   13 1   
    26   13   14 2   
    27   13   38 1   
    28   14   15 1   
    29   14   39 1   
    30   16   17 ar  
    31   16   28 ar  
    32   17   18 ar  
    33   17   40 1   
    34   18   19 ar  
    35   18   41 1   
    36   19   20 1   
    37   19   27 ar  
    38   20   21 1   
    39   21   22 ar  
    40   21   26 ar  
    41   22   23 ar  
    42   22   42 1   
    43   23   24 ar  
    44   23   43 1   
    45   24   25 ar  
    46   24   44 1   
    47   25   26 ar  
    48   25   45 1   
    49   26   46 1   
    50   27   28 ar  
    51   27   47 1   
    52   28   48 1   
@<TRIPOS>SUBSTRUCTURE
     1 1G0         1 TEMP              0 ****  ****    0 ROOT
