@<TRIPOS>MOLECULE
1G0
   49    53     1     0     0
SMALL
bcc


@<TRIPOS>ATOM
      1 O1          1.4960    1.1380    1.2800 oh        1 1G0     -0.585800
      2 C2          2.1220    0.5420    0.1730 cy        1 1G0      0.132100
      3 C4          3.5630    0.1120    0.5590 cy        1 1G0     -0.101400
      4 C5          3.1990   -1.3670    0.2690 cy        1 1G0     -0.113000
      5 C7          1.7410   -0.9480   -0.0540 cy        1 1G0     -0.101400
      6 C8          3.3560   -2.3130    1.4010 cc        1 1G0      0.437800
      7 N9          2.4560   -3.2500    1.8040 nd        1 1G0     -0.495300
      8 C10         3.0070   -3.9370    2.8790 cd        1 1G0      0.147400
      9 C11         4.2990   -3.4270    3.1520 cc        1 1G0     -0.256600
     10 C12         5.3700   -3.6940    4.0770 cc        1 1G0      0.499200
     11 N13         5.1620   -4.8030    5.0280 n4        1 1G0     -0.822300
     12 N14         6.5160   -3.0170    4.1050 nd        1 1G0     -0.604000
     13 C15         6.6660   -2.0120    3.1790 cd        1 1G0      0.329200
     14 C16         5.7050   -1.6780    2.2320 cc        1 1G0     -0.082600
     15 N17         4.5200   -2.3750    2.1990 na        1 1G0     -0.064200
     16 C18         2.3380   -5.0110    3.5990 ca        1 1G0     -0.125800
     17 C19         2.1040   -6.2410    2.9650 ca        1 1G0     -0.095500
     18 C20         1.4630   -7.2690    3.6420 ca        1 1G0     -0.176000
     19 C21         1.0320   -7.0590    4.9680 ca        1 1G0      0.156100
     20 O22         0.4560   -8.1560    5.5720 os        1 1G0     -0.234200
     21 C23        -0.2560   -7.9290    6.7570 ca        1 1G0      0.061100
     22 C24        -1.3660   -7.0760    6.7880 ca        1 1G0     -0.137000
     23 C25        -2.1200   -7.0020    7.9570 ca        1 1G0     -0.112000
     24 C26        -1.7700   -7.7680    9.0710 ca        1 1G0     -0.121000
     25 C27        -0.6640   -8.6170    9.0230 ca        1 1G0     -0.112000
     26 C28         0.1090   -8.7030    7.8650 ca        1 1G0     -0.137000
     27 C29         1.2360   -5.8230    5.5990 ca        1 1G0     -0.176000
     28 C30         1.8790   -4.8010    4.9070 ca        1 1G0     -0.095500
     29 H1          0.6160    1.4150    0.9930 ho        1 1G0      0.418000
     30 H2          2.0540    1.1820   -0.7380 h1        1 1G0      0.064700
     31 H3          3.8020    0.3380    1.6200 hc        1 1G0      0.076200
     32 H4          4.3460    0.5210   -0.1130 hc        1 1G0      0.076200
     33 H5          3.7340   -1.7820   -0.6230 hc        1 1G0      0.091700
     34 H6          0.9790   -1.3190    0.6630 hc        1 1G0      0.076200
     35 H7          1.4390   -1.1890   -1.0940 hc        1 1G0      0.076200
     36 H8          4.1440   -4.9440    5.1530 hn        1 1G0      0.476800
     37 H9          5.6020   -4.5940    5.9320 hn        1 1G0      0.476800
     38 H10         7.6290   -1.4710    3.2380 h4        1 1G0      0.077100
     39 H11         5.8390   -0.8670    1.4900 h4        1 1G0      0.208000
     40 H12         2.4160   -6.3860    1.9180 ha        1 1G0      0.152000
     41 H13         1.2690   -8.2390    3.1580 ha        1 1G0      0.170500
     42 H14        -1.6370   -6.4880    5.8990 ha        1 1G0      0.150500
     43 H15        -3.0000   -6.3410    7.9970 ha        1 1G0      0.148000
     44 H16        -2.3760   -7.7080    9.9890 ha        1 1G0      0.148000
     45 H17        -0.3990   -9.2270    9.9000 ha        1 1G0      0.148000
     46 H18         0.9730   -9.3800    7.8060 ha        1 1G0      0.150500
     47 H19         0.8590   -5.6560    6.6210 ha        1 1G0      0.170500
     48 H20         1.9790   -3.8080    5.3750 ha        1 1G0      0.152000
     49 H133        5.5790   -5.6570    4.6390 hn        1 1G0      0.476800
@<TRIPOS>BOND
     1    1    2 1   
     2    1   29 1   
     3    2    3 1   
     4    2    5 1   
     5    2   30 1   
     6    3    4 1   
     7    3   31 1   
     8    3   32 1   
     9    4    5 1   
    10    4    6 1   
    11    4   33 1   
    12    5   34 1   
    13    5   35 1   
    14    6    7 2   
    15    6   15 1   
    16    7    8 1   
    17    8    9 2   
    18    8   16 1   
    19    9   10 1   
    20    9   15 1   
    21   10   11 1   
    22   10   12 2   
    23   11   36 1   
    24   11   37 1   
    25   11   49 1   
    26   12   13 1   
    27   13   14 2   
    28   13   38 1   
    29   14   15 1   
    30   14   39 1   
    31   16   17 ar  
    32   16   28 ar  
    33   17   18 ar  
    34   17   40 1   
    35   18   19 ar  
    36   18   41 1   
    37   19   20 1   
    38   19   27 ar  
    39   20   21 1   
    40   21   22 ar  
    41   21   26 ar  
    42   22   23 ar  
    43   22   42 1   
    44   23   24 ar  
    45   23   43 1   
    46   24   25 ar  
    47   24   44 1   
    48   25   26 ar  
    49   25   45 1   
    50   26   46 1   
    51   27   28 ar  
    52   27   47 1   
    53   28   48 1   
@<TRIPOS>SUBSTRUCTURE
     1 1G0         1 TEMP              0 ****  ****    0 ROOT
