@<TRIPOS>MOLECULE
1G0
   48    44     1     0     0
SMALL
bcc


@<TRIPOS>ATOM
      1 O1          0.5920    3.4900   -3.4930 oh        1 1G0     -0.313000
      2 C2          1.8970    3.7910   -3.2140 cy        1 1G0      0.028000
      3 C4          2.1350    4.0270   -1.7800 cy        1 1G0     -0.199000
      4 C5          3.0080    2.8160   -1.7250 cy        1 1G0     -0.052000
      5 C7          2.7710    2.5810   -3.1600 cy        1 1G0     -0.199000
      6 C8          2.4530    1.7510   -0.8740 c2        1 1G0     -0.048000
      7 N9          1.2200    1.1930   -0.7730 n2        1 1G0     -0.122000
      8 C10         1.2690    0.2460    0.1730 c1        1 1G0     -0.051000
      9 C11         2.5640    0.2110    0.6770 c1        1 1G0     -0.153000
     10 C12         3.1570   -0.5570    1.6930 c1        1 1G0      0.199000
     11 N13         2.9850   -1.5720    2.6690 n3        1 1G0     -0.342000
     12 N14         4.4470   -0.3630    2.0160 n1        1 1G0     -0.233000
     13 C15         5.1700    0.5670    1.3670 c1        1 1G0     -0.051000
     14 C16         4.5850    1.3260    0.3630 c1        1 1G0     -0.171000
     15 N17         3.2780    1.1300    0.0350 n2        1 1G0     -0.024000
     16 C18         0.0850   -0.5850    0.6210 c1        1 1G0     -0.040000
     17 C19        -0.1520   -1.8220    0.0420 c2        1 1G0     -0.101000
     18 C20        -1.2190   -2.5970    0.4730 c1        1 1G0     -0.151000
     19 C21        -2.0480   -2.1340    1.4820 c1        1 1G0      0.070000
     20 O22        -3.0710   -2.9600    1.9850 os        1 1G0     -0.160000
     21 C23        -4.2610   -2.7170    1.2760 c2        1 1G0      0.054000
     22 C24        -4.4590   -3.3020    0.0350 c2        1 1G0     -0.168000
     23 C25        -5.6600   -3.1190   -0.6340 c1        1 1G0     -0.107000
     24 C26        -6.6620   -2.3500   -0.0610 c1        1 1G0     -0.128500
     25 C27        -6.4630   -1.7650    1.1790 c1        1 1G0     -0.128500
     26 C28        -5.2630   -1.9480    1.8480 c1        1 1G0     -0.139000
     27 C29        -1.8110   -0.8970    2.0620 c1        1 1G0     -0.183000
     28 C30        -0.7440   -0.1230    1.6310 c1        1 1G0     -0.077000
     29 H1          0.3760    3.8170   -4.2910 ho        1 1G0      0.217000
     30 H2          2.2660    4.4980   -3.7800 h1        1 1G0      0.123000
     31 H3          1.3240    3.9330   -1.2410 hc        1 1G0      0.106750
     32 H4          2.6260    4.8560   -1.6090 hc        1 1G0      0.106750
     33 H5          3.9390    3.0320   -1.5270 hc        1 1G0      0.105000
     34 H6          2.2810    1.7530   -3.3320 hc        1 1G0      0.106750
     35 H7          3.5830    2.6760   -3.6980 hc        1 1G0      0.106750
     36 H8          2.2290   -2.0860    2.6660 hn        1 1G0      0.230500
     37 H9          3.6310   -1.7130    3.3000 hn        1 1G0      0.230500
     38 H10         6.1070    0.7080    1.6010 ha        1 1G0      0.173000
     39 H11         5.1100    2.0010   -0.1080 ha        1 1G0      0.171000
     40 H12         0.4320   -2.1480   -0.6690 ha        1 1G0      0.150000
     41 H13        -1.3850   -3.4680    0.0650 ha        1 1G0      0.154000
     42 H14        -3.7540   -3.8430   -0.3680 ha        1 1G0      0.150000
     43 H15        -5.8000   -3.5310   -1.5070 ha        1 1G0      0.137000
     44 H16        -7.5070   -2.2210   -0.5320 ha        1 1G0      0.135500
     45 H17        -7.1690   -1.2240    1.5820 ha        1 1G0      0.135500
     46 H18        -5.1230   -1.5360    2.7220 ha        1 1G0      0.150000
     47 H19        -2.3950   -0.5710    2.7730 ha        1 1G0      0.152000
     48 H20        -0.5770    0.7480    2.0390 ha        1 1G0      0.149000
@<TRIPOS>BOND
     1    1    2 1   
     2    1   29 1   
     3    2    3 1   
     4    2    5 1   
     5    2   30 1   
     6    3    4 1   
     7    3   31 1   
     8    3   32 1   
     9    4    5 1   
    10    4    6 1   
    11    4   33 1   
    12    5   34 1   
    13    5   35 1   
    14    6    7 1   
    15    6   15 1   
    16    7    8 1   
    17    8    9 1   
    18    9   10 1   
    19   10   11 1   
    20   11   36 1   
    21   11   37 1   
    22   12   13 1   
    23   13   38 1   
    24   14   15 1   
    25   14   39 1   
    26   16   17 1   
    27   16   28 1   
    28   17   18 1   
    29   17   40 1   
    30   18   41 1   
    31   19   20 1   
    32   19   27 1   
    33   20   21 1   
    34   21   22 1   
    35   21   26 1   
    36   22   23 1   
    37   22   42 1   
    38   23   43 1   
    39   24   25 1   
    40   24   44 1   
    41   25   45 1   
    42   26   46 1   
    43   27   47 1   
    44   28   48 1   
@<TRIPOS>SUBSTRUCTURE
     1 1G0         1 TEMP              0 ****  ****    0 ROOT
