@<TRIPOS>MOLECULE
1G2
   22    22     1     0     0
SMALL
bcc


@<TRIPOS>ATOM
      1 C12         2.3710    1.1510   -0.1630 c         1 1G2      0.911600
      2 O13         3.2550    0.5350    0.4870 o         1 1G2     -0.823300
      3 C8          1.0270    0.4040   -0.4940 c3        1 1G2      0.045500
      4 N9          1.1220   -1.0110   -0.8030 n2        1 1G2     -0.449200
      5 N10         1.8190   -1.8020   -0.1360 n1        1 1G2      0.262000
      6 N11         2.3640   -2.6830    0.3330 n1        1 1G2     -0.149000
      7 C7          0.0530    0.7470    0.6430 c3        1 1G2     -0.053100
      8 C3         -1.3580    0.3880    0.3460 ca        1 1G2     -0.038300
      9 C2         -2.0190   -0.6020    1.0840 ca        1 1G2     -0.131000
     10 C1         -3.3490   -0.9190    0.8110 ca        1 1G2     -0.136500
     11 C4         -2.0560    1.0530   -0.6720 ca        1 1G2     -0.131000
     12 C5         -3.3840    0.7350   -0.9430 ca        1 1G2     -0.136500
     13 C6         -4.0350   -0.2520   -0.2010 ca        1 1G2     -0.156000
     14 H43         0.6280    0.8330   -1.4590 h1        1 1G2      0.076700
     15 H45         0.3940    0.2530    1.5900 hc        1 1G2      0.061700
     16 H46         0.1250    1.8600    0.7970 hc        1 1G2      0.061700
     17 H47        -1.4800   -1.1370    1.8810 ha        1 1G2      0.134500
     18 H48        -3.8550   -1.7010    1.3950 ha        1 1G2      0.114500
     19 H49        -1.5390    1.8270   -1.2600 ha        1 1G2      0.134500
     20 H50        -3.9210    1.2610   -1.7460 ha        1 1G2      0.114500
     21 H51        -5.0820   -0.5020   -0.4160 ha        1 1G2      0.112000
     22 OXT         2.4430    2.3440   -0.5610 o         1 1G2     -0.823300
@<TRIPOS>BOND
     1    1    2 1   
     2    1    3 1   
     3    1   22 1   
     4    3    4 1   
     5    3    7 1   
     6    3   14 1   
     7    4    5 1   
     8    5    6 3   
     9    7    8 1   
    10    7   15 1   
    11    7   16 1   
    12    8    9 ar  
    13    8   11 ar  
    14    9   10 ar  
    15    9   17 1   
    16   10   13 ar  
    17   10   18 1   
    18   11   12 ar  
    19   11   19 1   
    20   12   13 ar  
    21   12   20 1   
    22   13   21 1   
@<TRIPOS>SUBSTRUCTURE
     1 1G2         1 TEMP              0 ****  ****    0 ROOT
