@<TRIPOS>MOLECULE
1G2
   22    19     1     0     0
SMALL
bcc


@<TRIPOS>ATOM
      1 C12        -0.5050    2.8620   -0.7220 c1        1 1G2      0.331000
      2 O13         0.5230    3.7680   -0.4260 o         1 1G2     -0.558000
      3 C8         -0.5750    1.5610   -0.0610 c2        1 1G2     -0.102000
      4 N9         -1.8510    1.4560    0.4850 n2        1 1G2     -0.291000
      5 N10        -2.3440    2.5780    1.4040 n2        1 1G2      0.262000
      6 N11        -2.7800    3.5720    2.2180 n1        1 1G2     -0.149000
      7 C7         -0.3900    0.4450   -1.0230 c3        1 1G2     -0.139000
      8 C3          0.2440   -0.6620   -0.4340 c2        1 1G2     -0.031000
      9 C2         -0.5680   -1.7850   -0.0020 c2        1 1G2     -0.134000
     10 C1          0.0490   -2.9270    0.5380 c1        1 1G2     -0.137000
     11 C4          1.6000   -0.7280   -0.3120 c1        1 1G2     -0.128000
     12 C5          2.1790   -1.8310    0.2050 c1        1 1G2     -0.146000
     13 C6          1.3670   -2.9630    0.6420 c1        1 1G2     -0.146000
     14 H43         0.2170    1.5150    0.7990 h4        1 1G2      0.116000
     15 H45        -1.3050    0.1210   -1.3150 hc        1 1G2      0.101000
     16 H46         0.1280    0.7710   -1.7930 hc        1 1G2      0.101000
     17 H47        -1.3190   -1.7580   -0.0710 ha        1 1G2      0.128000
     18 H48        -0.4530   -3.5870    0.9400 ha        1 1G2      0.114000
     19 H49         2.2130    0.0120   -0.7760 ha        1 1G2      0.141000
     20 H50         3.2680   -1.9250    0.1900 ha        1 1G2      0.113500
     21 H51         1.7810   -3.7290    0.9040 ha        1 1G2      0.113500
     22 OXT        -1.4780    3.2340   -1.3880 o         1 1G2     -0.558000
@<TRIPOS>BOND
     1    1    2 1   
     2    1   22 1   
     3    3    4 1   
     4    3    7 1   
     5    3   14 1   
     6    4    5 1   
     7    5    6 1   
     8    7    8 1   
     9    7   15 1   
    10    7   16 1   
    11    8    9 1   
    12    8   11 1   
    13    9   10 1   
    14    9   17 1   
    15   10   18 1   
    16   11   19 1   
    17   12   13 1   
    18   12   20 1   
    19   13   21 1   
@<TRIPOS>SUBSTRUCTURE
     1 1G2         1 TEMP              0 ****  ****    0 ROOT
