@<TRIPOS>MOLECULE
1G3
   37    37     1     0     0
SMALL
bcc


@<TRIPOS>ATOM
      1 O50         5.0540   -0.5250   -0.6820 o         1 1G3     -0.650800
      2 S48         4.3830   -0.0240    0.4400 s6        1 1G3      1.339000
      3 O49         4.2150   -0.8800    1.5340 o         1 1G3     -0.650800
      4 C51         5.1230    1.4060    0.9510 c3        1 1G3     -0.371300
      5 C47         2.8730    0.6220   -0.0420 c3        1 1G3     -0.320600
      6 C46         1.8560   -0.4710   -0.2810 c3        1 1G3     -0.103400
      7 C36         0.4220    0.0760   -0.4180 c3        1 1G3      0.175500
      8 C37        -0.5280   -1.1340   -0.5200 c3        1 1G3     -0.031100
      9 C38        -1.9500   -0.7490   -0.3180 ca        1 1G3     -0.071300
     10 C43        -2.5360   -0.8580    0.9490 ca        1 1G3     -0.120500
     11 C42        -3.8720   -0.5150    1.1410 ca        1 1G3     -0.118500
     12 C41        -4.6420   -0.0540    0.0690 ca        1 1G3     -0.096300
     13 C44        -6.0910    0.2860    0.2580 c3        1 1G3      0.204100
     14 N45        -6.3480    1.1440    1.3930 n3        1 1G3     -0.916800
     15 C40        -4.0580    0.0580   -1.1970 ca        1 1G3     -0.118500
     16 C39        -2.7230   -0.2890   -1.3890 ca        1 1G3     -0.120500
     17 N35         0.2230    1.0200   -1.4980 n3        1 1G3     -0.899800
     18 H1          5.0240    2.2490    0.2240 h1        1 1G3      0.118033
     19 H2          4.7270    1.7760    1.9280 h1        1 1G3      0.118033
     20 H3          6.2240    1.2600    1.1000 h1        1 1G3      0.118033
     21 H4          2.4590    1.3270    0.7270 h1        1 1G3      0.107700
     22 H5          2.9890    1.2280   -0.9790 h1        1 1G3      0.107700
     23 H6          2.1300   -1.0450   -1.2050 hc        1 1G3      0.066200
     24 H7          1.8770   -1.1860    0.5870 hc        1 1G3      0.066200
     25 H8          0.1750    0.6290    0.5380 h1        1 1G3      0.065700
     26 H9         -0.4040   -1.6290   -1.5200 hc        1 1G3      0.051700
     27 H10        -0.2250   -1.8800    0.2630 hc        1 1G3      0.051700
     28 H11        -1.9390   -1.2200    1.7990 ha        1 1G3      0.131500
     29 H12        -4.3260   -0.6070    2.1400 ha        1 1G3      0.137500
     30 H13        -6.4870    0.7260   -0.7070 h1        1 1G3      0.033200
     31 H14        -6.6590   -0.6740    0.4360 h1        1 1G3      0.033200
     32 H15        -5.6760    1.8830    1.4500 hn        1 1G3      0.351300
     33 H16        -7.2660    1.5380    1.3270 hn        1 1G3      0.351300
     34 H18        -4.6530    0.4220   -2.0480 ha        1 1G3      0.137500
     35 H19        -2.2680   -0.1890   -2.3860 ha        1 1G3      0.131500
     36 H20         0.8720    1.7770   -1.4220 hn        1 1G3      0.346800
     37 H21         0.3370    0.5770   -2.3880 hn        1 1G3      0.346800
@<TRIPOS>BOND
     1    1    2 2   
     2    2    3 2   
     3    2    4 1   
     4    2    5 1   
     5    4   18 1   
     6    4   19 1   
     7    4   20 1   
     8    5    6 1   
     9    5   21 1   
    10    5   22 1   
    11    6    7 1   
    12    6   23 1   
    13    6   24 1   
    14    7    8 1   
    15    7   17 1   
    16    7   25 1   
    17    8    9 1   
    18    8   26 1   
    19    8   27 1   
    20    9   10 ar  
    21    9   16 ar  
    22   10   11 ar  
    23   10   28 1   
    24   11   12 ar  
    25   11   29 1   
    26   12   13 1   
    27   12   15 ar  
    28   13   14 1   
    29   13   30 1   
    30   13   31 1   
    31   14   32 1   
    32   14   33 1   
    33   15   16 ar  
    34   15   34 1   
    35   16   35 1   
    36   17   36 1   
    37   17   37 1   
@<TRIPOS>SUBSTRUCTURE
     1 1G3         1 TEMP              0 ****  ****    0 ROOT
