@<TRIPOS>MOLECULE
1G3
   37    33     1     0     0
SMALL
bcc


@<TRIPOS>ATOM
      1 O50        -1.1440   -5.4790    1.1070 o         1 1G3     -0.930000
      2 S48         0.1550   -5.0490    0.9170 ss        1 1G3      2.819000
      3 O49         0.6410   -4.9710    2.3270 o         1 1G3     -0.930000
      4 C51         1.0780   -6.2100   -0.0130 c2        1 1G3     -0.950000
      5 C47         0.2050   -3.4200    0.1070 c2        1 1G3     -0.860000
      6 C46        -0.2900   -2.3120    1.1180 c3        1 1G3     -0.182000
      7 C36        -0.4840   -0.9960    0.3740 c3        1 1G3     -0.022000
      8 C37         0.2280    0.1250    1.1240 c3        1 1G3     -0.117000
      9 C38         0.0920    1.4570    0.3190 c2        1 1G3     -0.065000
     10 C43        -0.8550    2.4280    0.7110 c1        1 1G3     -0.103000
     11 C42        -0.8840    3.6680    0.0720 c1        1 1G3     -0.131000
     12 C41         0.0180    3.9460   -0.9470 c1        1 1G3     -0.080000
     13 C44        -0.1160    5.2170   -1.7370 c3        1 1G3     -0.041000
     14 N45         0.5410    6.3090   -1.0140 n3        1 1G3     -0.345000
     15 C40         0.9520    2.9880   -1.3330 c1        1 1G3     -0.114000
     16 C39         0.9840    1.7360   -0.6910 c2        1 1G3     -0.128000
     17 N35        -1.8410   -0.7150    0.2940 n3        1 1G3     -0.332000
     18 H1          2.0470   -5.9150   -0.0570 ha        1 1G3      0.157333
     19 H2          0.7130   -6.2650   -0.9170 ha        1 1G3      0.157333
     20 H3          1.0250   -7.0440    0.3940 ha        1 1G3      0.157333
     21 H4         -0.4020   -3.4300   -0.7110 ha        1 1G3      0.147000
     22 H5          1.1780   -3.2100   -0.1880 ha        1 1G3      0.147000
     23 H6          0.4240   -2.1840    1.8810 hc        1 1G3      0.105500
     24 H7         -1.1690   -2.5980    1.5250 hc        1 1G3      0.105500
     25 H8         -0.0860   -1.0760   -0.5860 h1        1 1G3      0.105000
     26 H9          1.1940   -0.1070    1.2190 hc        1 1G3      0.091500
     27 H10        -0.1740    0.2360    2.0210 hc        1 1G3      0.091500
     28 H11        -1.5010    2.2290    1.4360 ha        1 1G3      0.135000
     29 H12        -1.5660    4.3710    0.3520 ha        1 1G3      0.126000
     30 H13        -1.0700    5.4270   -1.8570 h1        1 1G3      0.073500
     31 H14         0.3120    5.1010   -2.6250 h1        1 1G3      0.073500
     32 H15         1.1170    6.7860   -1.6100 hn        1 1G3      0.145000
     33 H16        -0.1230    6.9080   -0.6620 hn        1 1G3      0.145000
     34 H18         1.6130    3.1940   -2.0800 ha        1 1G3      0.135000
     35 H19         1.6770    1.0270   -0.9790 ha        1 1G3      0.130000
     36 H20        -2.2600   -0.9480    1.1220 hn        1 1G3      0.142000
     37 H21        -2.2280   -1.2240   -0.4110 hn        1 1G3      0.142000
@<TRIPOS>BOND
     1    1    2 1   
     2    2    3 1   
     3    4   18 1   
     4    4   19 1   
     5    4   20 1   
     6    5    6 1   
     7    5   21 1   
     8    5   22 1   
     9    6    7 1   
    10    6   23 1   
    11    6   24 1   
    12    7    8 1   
    13    7   17 1   
    14    7   25 1   
    15    8    9 1   
    16    8   26 1   
    17    8   27 1   
    18    9   10 1   
    19    9   16 1   
    20   10   28 1   
    21   11   12 1   
    22   11   29 1   
    23   12   13 1   
    24   13   14 1   
    25   13   30 1   
    26   13   31 1   
    27   14   32 1   
    28   14   33 1   
    29   15   16 1   
    30   15   34 1   
    31   16   35 1   
    32   17   36 1   
    33   17   37 1   
@<TRIPOS>SUBSTRUCTURE
     1 1G3         1 TEMP              0 ****  ****    0 ROOT
