@<TRIPOS>MOLECULE
1G4
   43    45     1     0     0
SMALL
bcc


@<TRIPOS>ATOM
      1 OB          0.0060    0.5270    0.0060 o         1 1G4     -0.644500
      2 CB          1.2400    0.3510    0.0270 c         1 1G4      0.688500
      3 CAB         2.0080    0.2670    1.3590 c3        1 1G4      0.114500
      4 CBB         1.2890    1.1290    2.4100 c3        1 1G4     -0.027100
      5 CGB         1.8330    0.8840    3.7720 ca        1 1G4     -0.125300
      6 CD4         2.8900    1.6590    4.2620 ca        1 1G4     -0.092000
      7 CE4         3.3970    1.4420    5.5410 ca        1 1G4     -0.185500
      8 CZB         2.8360    0.4350    6.3380 ca        1 1G4      0.123100
      9 OHB         3.2830    0.1580    7.6100 oh        1 1G4     -0.497100
     10 CE3         1.7730   -0.3500    5.8620 ca        1 1G4     -0.185500
     11 CD3         1.2820   -0.1170    4.5830 ca        1 1G4     -0.092000
     12 NB          3.4060    0.6500    1.2080 n7        1 1G4     -0.825200
     13 CA          4.0600   -0.0430    0.1210 c3        1 1G4      0.156800
     14 CAA         3.3600    0.2110   -1.2410 c3        1 1G4      0.104700
     15 NA          1.9220    0.1030   -1.1520 ns        1 1G4     -0.542900
     16 CBA         3.8460    1.5570   -1.8160 c3        1 1G4     -0.058100
     17 CGA         3.3010    1.8070   -3.1760 ca        1 1G4     -0.128300
     18 CD2         2.0900    2.4880   -3.3400 ca        1 1G4     -0.093000
     19 CE2         1.5760    2.7300   -4.6120 ca        1 1G4     -0.182000
     20 CZA         2.2870    2.2840   -5.7340 ca        1 1G4      0.125100
     21 OHA         1.8470    2.4840   -7.0220 oh        1 1G4     -0.496100
     22 CE1         3.5070    1.6020   -5.5880 ca        1 1G4     -0.182000
     23 CD1         4.0010    1.3700   -4.3100 ca        1 1G4     -0.093000
     24 H1          1.9080   -0.8200    1.6790 h1        1 1G4      0.048700
     25 H2          1.3860    2.2140    2.1410 hc        1 1G4      0.075200
     26 H3          0.1960    0.8690    2.3730 hc        1 1G4      0.075200
     27 H4          3.3230    2.4520    3.6320 ha        1 1G4      0.140000
     28 H5          4.2250    2.0560    5.9230 ha        1 1G4      0.143000
     29 H6          3.9920    0.7830    7.8200 ho        1 1G4      0.419000
     30 H7          1.3450   -1.1320    6.5060 ha        1 1G4      0.143000
     31 H8          0.4450   -0.7240    4.2040 ha        1 1G4      0.140000
     32 H9          3.8920    0.5140    2.0750 hn        1 1G4      0.381800
     33 H11         4.1010   -1.1610    0.2840 h1        1 1G4      0.042200
     34 H12         5.1170    0.3340    0.0560 h1        1 1G4      0.042200
     35 H13         3.7020   -0.6040   -1.9500 h1        1 1G4      0.059700
     36 H14         1.4300    0.2790   -2.0030 hn        1 1G4      0.317500
     37 H15         4.9680    1.5280   -1.8580 hc        1 1G4      0.062700
     38 H16         3.5560    2.3890   -1.1220 hc        1 1G4      0.062700
     39 H17         1.5360    2.8420   -2.4560 ha        1 1G4      0.137000
     40 H18         0.6230    3.2640   -4.7340 ha        1 1G4      0.145000
     41 H19         1.0040    2.9600   -6.9790 ho        1 1G4      0.421000
     42 H20         4.0500    1.2630   -6.4810 ha        1 1G4      0.145000
     43 H21         4.9570    0.8380   -4.1870 ha        1 1G4      0.137000
@<TRIPOS>BOND
     1    1    2 2   
     2    2    3 1   
     3    2   15 1   
     4    3    4 1   
     5    3   12 1   
     6    3   24 1   
     7    4    5 1   
     8    4   25 1   
     9    4   26 1   
    10    5    6 ar  
    11    5   11 ar  
    12    6    7 ar  
    13    6   27 1   
    14    7    8 ar  
    15    7   28 1   
    16    8    9 1   
    17    8   10 ar  
    18    9   29 1   
    19   10   11 ar  
    20   10   30 1   
    21   11   31 1   
    22   12   13 1   
    23   12   32 1   
    24   13   14 1   
    25   13   33 1   
    26   13   34 1   
    27   14   15 1   
    28   14   16 1   
    29   14   35 1   
    30   15   36 1   
    31   16   17 1   
    32   16   37 1   
    33   16   38 1   
    34   17   18 ar  
    35   17   23 ar  
    36   18   19 ar  
    37   18   39 1   
    38   19   20 ar  
    39   19   40 1   
    40   20   21 1   
    41   20   22 ar  
    42   21   41 1   
    43   22   23 ar  
    44   22   42 1   
    45   23   43 1   
@<TRIPOS>SUBSTRUCTURE
     1 1G4         1 TEMP              0 ****  ****    0 ROOT
