@<TRIPOS>MOLECULE
1G4
   43    45     1     0     0
SMALL
bcc


@<TRIPOS>ATOM
      1 OB          0.0860   -2.5350   -0.0000 o         1 1G4     -0.645500
      2 CB          0.0740   -1.3660    0.4360 c         1 1G4      0.652500
      3 CAB        -1.2360   -0.5540    0.5200 c3        1 1G4      0.110500
      4 CBB        -2.1180   -0.9390   -0.6800 c3        1 1G4     -0.028100
      5 CGB        -3.5230   -0.4880   -0.5010 ca        1 1G4     -0.112300
      6 CD4        -3.9280    0.7750   -0.9460 ca        1 1G4     -0.082500
      7 CE4        -5.2470    1.1930   -0.7920 ca        1 1G4     -0.184500
      8 CZB        -6.1720    0.3330   -0.1840 ca        1 1G4      0.124100
      9 OHB        -7.4930    0.6730    0.0020 oh        1 1G4     -0.498100
     10 CE3        -5.7820   -0.9380    0.2690 ca        1 1G4     -0.184500
     11 CD3        -4.4600   -1.3360    0.1060 ca        1 1G4     -0.082500
     12 NB         -1.0610    0.8840    0.6580 n3        1 1G4     -0.795200
     13 CA          0.0010    1.2340    1.5710 c3        1 1G4      0.148800
     14 CAA         1.3740    0.5770    1.2690 c3        1 1G4      0.066700
     15 NA          1.2400   -0.8210    0.9380 n         1 1G4     -0.555900
     16 CBA         2.1090    1.3980    0.1900 c3        1 1G4     -0.058100
     17 CGA         3.4830    0.8880   -0.0570 ca        1 1G4     -0.128300
     18 CD2         3.7090   -0.1110   -1.0100 ca        1 1G4     -0.091500
     19 CE2         4.9950   -0.5900   -1.2470 ca        1 1G4     -0.181500
     20 CZA         6.0690   -0.0580   -0.5190 ca        1 1G4      0.127100
     21 OHA         7.3670   -0.4770   -0.6950 oh        1 1G4     -0.495100
     22 CE1         5.8590    0.9480    0.4390 ca        1 1G4     -0.181500
     23 CD1         4.5680    1.4110    0.6600 ca        1 1G4     -0.091500
     24 H1         -1.7480   -0.9110    1.4660 h1        1 1G4      0.095700
     25 H2         -1.6910   -0.5060   -1.6230 hc        1 1G4      0.068200
     26 H3         -2.0830   -2.0590   -0.7810 hc        1 1G4      0.068200
     27 H4         -3.1960    1.4480   -1.4160 ha        1 1G4      0.133500
     28 H5         -5.5600    2.1860   -1.1420 ha        1 1G4      0.141000
     29 H6         -7.6210    1.5680   -0.3440 ho        1 1G4      0.418000
     30 H7         -6.5230   -1.5970    0.7430 ha        1 1G4      0.141000
     31 H8         -4.1460   -2.3320    0.4560 ha        1 1G4      0.133500
     32 H9         -0.9110    1.3050   -0.2420 hn        1 1G4      0.358800
     33 H11         0.1260    2.3510    1.5650 h1        1 1G4      0.066700
     34 H12        -0.3200    0.9220    2.6050 h1        1 1G4      0.066700
     35 H13         1.9970    0.6340    2.2130 h1        1 1G4      0.064700
     36 H14         2.0900   -1.3200    0.7880 hn        1 1G4      0.320500
     37 H15         1.5190    1.3870   -0.7640 hc        1 1G4      0.053700
     38 H16         2.1580    2.4630    0.5430 hc        1 1G4      0.053700
     39 H17         2.8650   -0.5230   -1.5840 ha        1 1G4      0.136500
     40 H18         5.1660   -1.3750   -1.9960 ha        1 1G4      0.145500
     41 H19         7.3690   -1.1680   -1.3740 ho        1 1G4      0.421000
     42 H20         6.7160    1.3530    0.9970 ha        1 1G4      0.145500
     43 H21         4.3970    2.2000    1.4090 ha        1 1G4      0.136500
@<TRIPOS>BOND
     1    1    2 2   
     2    2    3 1   
     3    2   15 1   
     4    3    4 1   
     5    3   12 1   
     6    3   24 1   
     7    4    5 1   
     8    4   25 1   
     9    4   26 1   
    10    5    6 ar  
    11    5   11 ar  
    12    6    7 ar  
    13    6   27 1   
    14    7    8 ar  
    15    7   28 1   
    16    8    9 1   
    17    8   10 ar  
    18    9   29 1   
    19   10   11 ar  
    20   10   30 1   
    21   11   31 1   
    22   12   13 1   
    23   12   32 1   
    24   13   14 1   
    25   13   33 1   
    26   13   34 1   
    27   14   15 1   
    28   14   16 1   
    29   14   35 1   
    30   15   36 1   
    31   16   17 1   
    32   16   37 1   
    33   16   38 1   
    34   17   18 ar  
    35   17   23 ar  
    36   18   19 ar  
    37   18   39 1   
    38   19   20 ar  
    39   19   40 1   
    40   20   21 1   
    41   20   22 ar  
    42   21   41 1   
    43   22   23 ar  
    44   22   42 1   
    45   23   43 1   
@<TRIPOS>SUBSTRUCTURE
     1 1G4         1 TEMP              0 ****  ****    0 ROOT
