@<TRIPOS>MOLECULE
1G4
   43    45     1     0     0
SMALL
bcc


@<TRIPOS>ATOM
      1 OB          0.0140    0.5860    0.0300 o         1 1G4     -0.644500
      2 CB          1.2410    0.3700    0.0280 c         1 1G4      0.688500
      3 CAB         2.0280    0.2430    1.3450 c3        1 1G4      0.114500
      4 CBB         1.3550    1.1160    2.4190 c3        1 1G4     -0.027100
      5 CGB         1.9140    0.8380    3.7690 ca        1 1G4     -0.125300
      6 CD4         3.0040    1.5710    4.2490 ca        1 1G4     -0.092000
      7 CE4         3.5250    1.3230    5.5170 ca        1 1G4     -0.185500
      8 CZB         2.9440    0.3260    6.3120 ca        1 1G4      0.123100
      9 OHB         3.4020    0.0190    7.5730 oh        1 1G4     -0.497100
     10 CE3         1.8480   -0.4190    5.8450 ca        1 1G4     -0.185500
     11 CD3         1.3430   -0.1550    4.5780 ca        1 1G4     -0.092000
     12 NB          3.4360    0.5830    1.1760 n3        1 1G4     -0.825200
     13 CA          4.0480   -0.1180    0.0700 c3        1 1G4      0.156800
     14 CAA         3.3350    0.1760   -1.2770 c3        1 1G4      0.104700
     15 NA          1.8960    0.1140   -1.1650 n         1 1G4     -0.542900
     16 CBA         3.8560    1.5120   -1.8440 c3        1 1G4     -0.058100
     17 CGA         3.2960    1.7980   -3.1920 ca        1 1G4     -0.128300
     18 CD2         2.1050    2.5200   -3.3260 ca        1 1G4     -0.093000
     19 CE2         1.5790    2.7940   -4.5860 ca        1 1G4     -0.182000
     20 CZA         2.2560    2.3410   -5.7260 ca        1 1G4      0.125100
     21 OHA         1.8010    2.5720   -7.0030 oh        1 1G4     -0.496100
     22 CE1         3.4550    1.6170   -5.6090 ca        1 1G4     -0.182000
     23 CD1         3.9620    1.3530   -4.3420 ca        1 1G4     -0.093000
     24 H1          1.8980   -0.8430    1.6550 h1        1 1G4      0.048700
     25 H2          1.4830    2.2000    2.1600 hc        1 1G4      0.075200
     26 H3          0.2540    0.8910    2.3970 hc        1 1G4      0.075200
     27 H4          3.4510    2.3570    3.6200 ha        1 1G4      0.140000
     28 H5          4.3780    1.9050    5.8910 ha        1 1G4      0.143000
     29 H6          4.1350    0.6180    7.7770 ho        1 1G4      0.419000
     30 H7          1.4050   -1.1940    6.4870 ha        1 1G4      0.143000
     31 H8          0.4800   -0.7300    4.2060 ha        1 1G4      0.140000
     32 H9          3.9310    0.4200    2.0330 hn        1 1G4      0.381800
     33 H11         4.0550   -1.2380    0.2180 h1        1 1G4      0.042200
     34 H12         5.1160    0.2260   -0.0080 h1        1 1G4      0.042200
     35 H13         3.6380   -0.6410   -2.0010 h1        1 1G4      0.059700
     36 H14         1.3960    0.3170   -2.0060 hn        1 1G4      0.317500
     37 H15         4.9740    1.4480   -1.9050 hc        1 1G4      0.062700
     38 H16         3.6040    2.3450   -1.1350 hc        1 1G4      0.062700
     39 H17         1.5780    2.8800   -2.4290 ha        1 1G4      0.137000
     40 H18         0.6420    3.3610   -4.6850 ha        1 1G4      0.145000
     41 H19         0.9760    3.0740   -6.9400 ho        1 1G4      0.421000
     42 H20         3.9720    1.2720   -6.5150 ha        1 1G4      0.145000
     43 H21         4.9020    0.7880   -4.2430 ha        1 1G4      0.137000
@<TRIPOS>BOND
     1    1    2 2   
     2    2    3 1   
     3    2   15 1   
     4    3    4 1   
     5    3   12 1   
     6    3   24 1   
     7    4    5 1   
     8    4   25 1   
     9    4   26 1   
    10    5    6 ar  
    11    5   11 ar  
    12    6    7 ar  
    13    6   27 1   
    14    7    8 ar  
    15    7   28 1   
    16    8    9 1   
    17    8   10 ar  
    18    9   29 1   
    19   10   11 ar  
    20   10   30 1   
    21   11   31 1   
    22   12   13 1   
    23   12   32 1   
    24   13   14 1   
    25   13   33 1   
    26   13   34 1   
    27   14   15 1   
    28   14   16 1   
    29   14   35 1   
    30   15   36 1   
    31   16   17 1   
    32   16   37 1   
    33   16   38 1   
    34   17   18 ar  
    35   17   23 ar  
    36   18   19 ar  
    37   18   39 1   
    38   19   20 ar  
    39   19   40 1   
    40   20   21 1   
    41   20   22 ar  
    42   21   41 1   
    43   22   23 ar  
    44   22   42 1   
    45   23   43 1   
@<TRIPOS>SUBSTRUCTURE
     1 1G4         1 TEMP              0 ****  ****    0 ROOT
