@<TRIPOS>MOLECULE
1G4
   43    45     1     0     0
SMALL
bcc


@<TRIPOS>ATOM
      1 OB          0.0040    0.5350    0.0130 o         1 1G4     -0.644500
      2 CB          1.2370    0.3560    0.0320 c         1 1G4      0.688500
      3 CAB         2.0070    0.2690    1.3630 c3        1 1G4      0.114500
      4 CBB         1.2920    1.1330    2.4150 c3        1 1G4     -0.027100
      5 CGB         1.8370    0.8880    3.7760 ca        1 1G4     -0.125300
      6 CD4         2.8970    1.6610    4.2640 ca        1 1G4     -0.092000
      7 CE4         3.4050    1.4430    5.5420 ca        1 1G4     -0.185500
      8 CZB         2.8430    0.4370    6.3410 ca        1 1G4      0.123100
      9 OHB         3.2920    0.1590    7.6120 oh        1 1G4     -0.497100
     10 CE3         1.7780   -0.3460    5.8670 ca        1 1G4     -0.185500
     11 CD3         1.2850   -0.1120    4.5880 ca        1 1G4     -0.092000
     12 NB          3.4060    0.6500    1.2100 n3        1 1G4     -0.825200
     13 CA          4.0560   -0.0450    0.1220 c3        1 1G4      0.156800
     14 CAA         3.3560    0.2110   -1.2390 c3        1 1G4      0.104700
     15 NA          1.9170    0.1060   -1.1480 n         1 1G4     -0.542900
     16 CBA         3.8440    1.5550   -1.8150 c3        1 1G4     -0.058100
     17 CGA         3.2970    1.8070   -3.1740 ca        1 1G4     -0.128300
     18 CD2         2.0870    2.4910   -3.3360 ca        1 1G4     -0.093000
     19 CE2         1.5720    2.7340   -4.6060 ca        1 1G4     -0.182000
     20 CZA         2.2800    2.2870   -5.7300 ca        1 1G4      0.125100
     21 OHA         1.8380    2.4880   -7.0180 oh        1 1G4     -0.496100
     22 CE1         3.4980    1.6010   -5.5860 ca        1 1G4     -0.182000
     23 CD1         3.9940    1.3690   -4.3090 ca        1 1G4     -0.093000
     24 H1          1.9050   -0.8170    1.6830 h1        1 1G4      0.048700
     25 H2          0.1980    0.8750    2.3790 hc        1 1G4      0.075200
     26 H3          1.3900    2.2180    2.1460 hc        1 1G4      0.075200
     27 H4          3.3300    2.4520    3.6330 ha        1 1G4      0.140000
     28 H5          4.2350    2.0550    5.9230 ha        1 1G4      0.143000
     29 H6          4.0020    0.7830    7.8200 ho        1 1G4      0.419000
     30 H7          1.3490   -1.1270    6.5110 ha        1 1G4      0.143000
     31 H8          0.4460   -0.7170    4.2100 ha        1 1G4      0.140000
     32 H9          3.8930    0.5120    2.0770 hn        1 1G4      0.381800
     33 H11         5.1150    0.3300    0.0560 h1        1 1G4      0.042200
     34 H12         4.0960   -1.1630    0.2850 h1        1 1G4      0.042200
     35 H13         3.6940   -0.6050   -1.9480 h1        1 1G4      0.059700
     36 H14         1.4250    0.2830   -1.9980 hn        1 1G4      0.317500
     37 H15         4.9650    1.5240   -1.8580 hc        1 1G4      0.062700
     38 H16         3.5570    2.3880   -1.1200 hc        1 1G4      0.062700
     39 H17         1.5360    2.8460   -2.4510 ha        1 1G4      0.137000
     40 H18         0.6200    3.2700   -4.7270 ha        1 1G4      0.145000
     41 H19         0.9970    2.9650   -6.9730 ho        1 1G4      0.421000
     42 H20         4.0390    1.2620   -6.4800 ha        1 1G4      0.145000
     43 H21         4.9490    0.8350   -4.1880 ha        1 1G4      0.137000
@<TRIPOS>BOND
     1    1    2 2   
     2    2    3 1   
     3    2   15 1   
     4    3    4 1   
     5    3   12 1   
     6    3   24 1   
     7    4    5 1   
     8    4   25 1   
     9    4   26 1   
    10    5    6 ar  
    11    5   11 ar  
    12    6    7 ar  
    13    6   27 1   
    14    7    8 ar  
    15    7   28 1   
    16    8    9 1   
    17    8   10 ar  
    18    9   29 1   
    19   10   11 ar  
    20   10   30 1   
    21   11   31 1   
    22   12   13 1   
    23   12   32 1   
    24   13   14 1   
    25   13   33 1   
    26   13   34 1   
    27   14   15 1   
    28   14   16 1   
    29   14   35 1   
    30   15   36 1   
    31   16   17 1   
    32   16   37 1   
    33   16   38 1   
    34   17   18 ar  
    35   17   23 ar  
    36   18   19 ar  
    37   18   39 1   
    38   19   20 ar  
    39   19   40 1   
    40   20   21 1   
    41   20   22 ar  
    42   21   41 1   
    43   22   23 ar  
    44   22   42 1   
    45   23   43 1   
@<TRIPOS>SUBSTRUCTURE
     1 1G4         1 TEMP              0 ****  ****    0 ROOT
