@<TRIPOS>MOLECULE
1G4
   43    37     1     0     0
SMALL
bcc


@<TRIPOS>ATOM
      1 OB         -2.5980   -0.3790    0.0660 o         1 1G4     -0.372000
      2 CB         -1.3660   -0.3550    0.1000 c1        1 1G4      0.271000
      3 CAB        -0.6760   -0.2990    1.3730 c2        1 1G4     -0.037000
      4 CBB        -0.6310    1.2260    1.9510 c3        1 1G4     -0.105000
      5 CGB        -1.1020    1.2330    3.4500 c1        1 1G4     -0.109000
      6 CD4        -0.1980    1.6030    4.4650 c1        1 1G4     -0.143500
      7 CE4        -0.5750    1.5240    5.7990 c1        1 1G4     -0.143500
      8 CZB        -1.8360    1.0810    6.1330 c1        1 1G4      0.080000
      9 OHB        -2.2350    1.0280    7.5140 o         1 1G4     -0.250500
     10 CE3        -2.7390    0.7110    5.1250 c1        1 1G4     -0.184500
     11 CD3        -2.3580    0.7920    3.7800 c1        1 1G4     -0.093000
     12 NB          0.5990   -0.8550    1.2590 n3        1 1G4     -0.277000
     13 CA          1.3820   -0.3310    0.1790 c3        1 1G4     -0.094000
     14 CAA         0.6880   -0.4250   -1.2360 c3        1 1G4     -0.001000
     15 NA         -0.6250    0.1790   -1.0110 n3        1 1G4     -0.380000
     16 CBA         1.4240    0.3190   -2.2280 c3        1 1G4     -0.132000
     17 CGA         1.3510   -0.4170   -3.5660 c2        1 1G4     -0.121000
     18 CD2         0.6200    0.1450   -4.6470 c2        1 1G4     -0.098000
     19 CE2         0.5980   -0.4990   -5.8790 c1        1 1G4     -0.152000
     20 CZA         1.2890   -1.6870   -6.0520 c1        1 1G4      0.080000
     21 OHA         1.1750   -2.3940   -7.2610 o         1 1G4     -0.250500
     22 CE1         2.0160   -2.2450   -4.9760 c1        1 1G4     -0.184500
     23 CD1         2.0410   -1.6040   -3.7420 c1        1 1G4     -0.086000
     24 H1         -1.1920   -0.7500    2.0760 h4        1 1G4      0.132000
     25 H2          0.3280    1.5830    1.8950 hc        1 1G4      0.102000
     26 H3         -1.2640    1.8360    1.3840 hc        1 1G4      0.102000
     27 H4          0.6990    1.9170    4.2290 ha        1 1G4      0.135500
     28 H5          0.0280    1.7700    6.4730 ha        1 1G4      0.135500
     29 H6         -2.5860    1.8130    7.7530 ho        1 1G4      0.218000
     30 H7         -3.6420    0.3950    5.3640 ha        1 1G4      0.143000
     31 H8         -2.9970    0.5300    3.0660 ha        1 1G4      0.139000
     32 H9          0.5340   -1.7270    1.1760 hn        1 1G4      0.162000
     33 H11         2.2580   -0.8420    0.1410 h1        1 1G4      0.102500
     34 H12         1.5850    0.6420    0.3710 h1        1 1G4      0.102500
     35 H13         0.5910   -1.3640   -1.5070 h1        1 1G4      0.085000
     36 H14        -1.0500    0.5710   -1.6800 hn        1 1G4      0.240000
     37 H15         2.3550    0.4020   -1.9540 hc        1 1G4      0.097500
     38 H16         1.0200    1.2390   -2.3270 hc        1 1G4      0.097500
     39 H17         0.1120    1.0150   -4.5190 ha        1 1G4      0.140000
     40 H18         0.0720   -0.0940   -6.6610 ha        1 1G4      0.155000
     41 H19         1.8650   -2.2220   -7.7610 ho        1 1G4      0.218000
     42 H20         2.5030   -3.0850   -5.1000 ha        1 1G4      0.143000
     43 H21         2.5350   -1.9820   -3.0150 ha        1 1G4      0.132000
@<TRIPOS>BOND
     1    1    2 1   
     2    2   15 1   
     3    3    4 1   
     4    3   12 1   
     5    3   24 1   
     6    4    5 1   
     7    4   25 1   
     8    4   26 1   
     9    5   11 1   
    10    6    7 1   
    11    6   27 1   
    12    7   28 1   
    13    8   10 1   
    14    9   29 1   
    15   10   30 1   
    16   11   31 1   
    17   12   13 1   
    18   12   32 1   
    19   13   14 1   
    20   13   33 1   
    21   13   34 1   
    22   14   15 1   
    23   14   16 1   
    24   14   35 1   
    25   15   36 1   
    26   16   17 1   
    27   16   37 1   
    28   16   38 1   
    29   17   18 1   
    30   17   23 1   
    31   18   19 1   
    32   18   39 1   
    33   19   40 1   
    34   20   22 1   
    35   21   41 1   
    36   22   42 1   
    37   23   43 1   
@<TRIPOS>SUBSTRUCTURE
     1 1G4         1 TEMP              0 ****  ****    0 ROOT
