@<TRIPOS>MOLECULE
1G5
   80    81     1     0     0
SMALL
bcc


@<TRIPOS>ATOM
      1 C1          8.1660    1.8170   -1.4520 ca        1 1G5     -0.137000
      2 C6          6.8620    2.0770   -1.8580 ca        1 1G5     -0.106000
      3 C5          5.8080    1.3030   -1.3760 ca        1 1G5     -0.141000
      4 C4          6.0560    0.2530   -0.4860 ca        1 1G5     -0.102600
      5 C3          7.3590   -0.0370   -0.0570 ca        1 1G5     -0.104300
      6 C2          8.4080    0.7650   -0.5540 ca        1 1G5      0.117100
      7 C7          7.6570   -1.1410    0.8850 c3        1 1G5     -0.068800
      8 C9          4.8930   -0.5650   -0.0240 c         1 1G5      0.672700
      9 O8          9.7260    0.5880   -0.2000 oh        1 1G5     -0.498100
     10 O32         4.8200   -1.7960   -0.1980 o         1 1G5     -0.597100
     11 N10         3.9010    0.1300    0.6560 n         1 1G5     -0.540900
     12 C11         2.6270   -0.4700    0.9500 c3        1 1G5      0.035700
     13 C15         1.5440   -0.0340   -0.0740 c         1 1G5      0.633100
     14 O16         1.5870    1.0740   -0.6450 o         1 1G5     -0.618100
     15 C12         2.0880   -0.1170    2.3580 c3        1 1G5     -0.069700
     16 C13         2.8940   -0.8300    3.4220 c3        1 1G5     -0.096100
     17 C14         2.0660    1.3740    2.6090 c3        1 1G5     -0.096100
     18 N17         0.5520   -0.9570   -0.3560 n         1 1G5     -0.533900
     19 C18        -0.6250   -0.5940   -1.1020 c3        1 1G5      0.024700
     20 C19        -1.8960   -0.5860   -0.2120 c         1 1G5      0.655100
     21 O33        -1.8740   -0.9970    0.9660 o         1 1G5     -0.624100
     22 C40        -0.8670   -1.5450   -2.2960 c3        1 1G5      0.124400
     23 O41        -1.3970   -2.7560   -1.7880 oh        1 1G5     -0.612800
     24 O38        -5.2360   -4.6100   -1.3390 o         1 1G5     -0.660800
     25 S36        -5.2220   -4.1150   -0.0270 s6        1 1G5      1.340000
     26 O37        -6.4640   -3.9260    0.5980 o         1 1G5     -0.660800
     27 C39        -4.2500   -5.1040    0.9390 c3        1 1G5     -0.368300
     28 C23        -5.0830   -1.4720   -0.4120 c3        1 1G5     -0.071400
     29 C21        -4.3270   -0.1600   -0.1310 c3        1 1G5      0.111700
     30 C22        -5.2510    1.0070   -0.5290 c3        1 1G5     -0.048100
     31 C24        -4.6580    2.3400   -0.2440 ca        1 1G5     -0.079300
     32 C25        -4.4000    2.7330    1.0750 ca        1 1G5     -0.128000
     33 C26        -3.8540    3.9860    1.3430 ca        1 1G5     -0.114000
     34 C27        -3.5650    4.8690    0.2970 ca        1 1G5     -0.092300
     35 C30        -3.0080    6.2290    0.6000 c3        1 1G5      0.203100
     36 N31        -1.8890    6.6030   -0.2360 n3        1 1G5     -0.917800
     37 C28        -3.8290    4.4820   -1.0200 ca        1 1G5     -0.114000
     38 C29        -4.3700    3.2260   -1.2880 ca        1 1G5     -0.128000
     39 N20        -3.0410   -0.0850   -0.7870 n         1 1G5     -0.551900
     40 H5          9.0110    2.4170   -1.8190 ha        1 1G5      0.154000
     41 H6          6.6620    2.8980   -2.5630 ha        1 1G5      0.141000
     42 H7          4.7790    1.5140   -1.7070 ha        1 1G5      0.147000
     43 H1          8.3580   -1.8750    0.4120 hc        1 1G5      0.055700
     44 H2          8.1330   -0.7410    1.8160 hc        1 1G5      0.055700
     45 H3          6.7310   -1.6980    1.1760 hc        1 1G5      0.055700
     46 H4          9.7930   -0.1900    0.3730 ho        1 1G5      0.424000
     47 H8          3.9110    1.1250    0.6190 hn        1 1G5      0.323500
     48 H9          2.7590   -1.5950    0.8960 h1        1 1G5      0.104700
     49 H10         1.0280   -0.5030    2.3980 hc        1 1G5      0.064700
     50 H11         2.4600   -0.6160    4.4290 hc        1 1G5      0.042367
     51 H12         2.8780   -1.9340    3.2550 hc        1 1G5      0.042367
     52 H13         3.9560   -0.4860    3.4160 hc        1 1G5      0.042367
     53 H14         1.6380    1.9130    1.7280 hc        1 1G5      0.042367
     54 H15         1.4380    1.5980    3.5050 hc        1 1G5      0.042367
     55 H16         3.0950    1.7650    2.8010 hc        1 1G5      0.042367
     56 H17         0.4480   -1.7450    0.2450 hn        1 1G5      0.328500
     57 H18        -0.4710    0.4480   -1.5240 h1        1 1G5      0.113700
     58 H19        -1.6070   -1.0750   -2.9990 h1        1 1G5      0.041700
     59 H20         0.0920   -1.7320   -2.8490 h1        1 1G5      0.041700
     60 H21        -1.3770   -3.3970   -2.5080 ho        1 1G5      0.416000
     61 H28        -3.1560   -4.9930    0.7390 h1        1 1G5      0.118033
     62 H29        -4.3930   -4.9150    2.0320 h1        1 1G5      0.118033
     63 H30        -4.4850   -6.1870    0.7760 h1        1 1G5      0.118033
     64 H26        -3.8970   -2.4760    1.0660 h1        1 1G5      0.134700
     65 H27        -3.3790   -2.7790   -0.6060 h1        1 1G5      0.134700
     66 H24        -5.3140   -1.5520   -1.5070 hc        1 1G5      0.063200
     67 H25        -6.0590   -1.4290    0.1440 hc        1 1G5      0.063200
     68 H23        -4.1330   -0.1000    0.9850 h1        1 1G5      0.085700
     69 H31        -5.5150    0.9230   -1.6170 hc        1 1G5      0.058200
     70 H32        -6.2040    0.8940    0.0570 hc        1 1G5      0.058200
     71 H33        -4.6270    2.0460    1.9040 ha        1 1G5      0.131000
     72 H34        -3.6520    4.2790    2.3840 ha        1 1G5      0.140500
     73 H35        -3.8240    6.9910    0.4220 h1        1 1G5      0.034200
     74 H36        -2.7520    6.2750    1.7020 h1        1 1G5      0.034200
     75 H37        -1.4310    7.4080    0.1420 hn        1 1G5      0.353300
     76 H38        -1.2310    5.8550   -0.3200 hn        1 1G5      0.353300
     77 H40        -3.6100    5.1740   -1.8480 ha        1 1G5      0.140500
     78 H41        -4.5770    2.9340   -2.3280 ha        1 1G5      0.131000
     79 H22        -3.0350    0.1700   -1.7450 hn        1 1G5      0.310500
     80 C35        -4.3030   -2.6850    0.0360 c3        1 1G5     -0.343600
@<TRIPOS>BOND
     1    1    2 ar  
     2    1    6 ar  
     3    1   40 1   
     4    2    3 ar  
     5    2   41 1   
     6    3    4 ar  
     7    3   42 1   
     8    4    5 ar  
     9    4    8 1   
    10    5    6 ar  
    11    5    7 1   
    12    6    9 1   
    13    7   43 1   
    14    7   44 1   
    15    7   45 1   
    16    8   10 2   
    17    8   11 1   
    18    9   46 1   
    19   11   12 1   
    20   11   47 1   
    21   12   13 1   
    22   12   15 1   
    23   12   48 1   
    24   13   14 2   
    25   13   18 1   
    26   15   16 1   
    27   15   17 1   
    28   15   49 1   
    29   16   50 1   
    30   16   51 1   
    31   16   52 1   
    32   17   53 1   
    33   17   54 1   
    34   17   55 1   
    35   18   19 1   
    36   18   56 1   
    37   19   20 1   
    38   19   22 1   
    39   19   57 1   
    40   20   21 2   
    41   20   39 1   
    42   22   23 1   
    43   22   58 1   
    44   22   59 1   
    45   23   60 1   
    46   24   25 2   
    47   25   26 2   
    48   25   27 1   
    49   25   80 1   
    50   27   61 1   
    51   27   62 1   
    52   27   63 1   
    53   28   29 1   
    54   28   66 1   
    55   28   67 1   
    56   28   80 1   
    57   29   30 1   
    58   29   39 1   
    59   29   68 1   
    60   30   31 1   
    61   30   69 1   
    62   30   70 1   
    63   31   32 ar  
    64   31   38 ar  
    65   32   33 ar  
    66   32   71 1   
    67   33   34 ar  
    68   33   72 1   
    69   34   35 1   
    70   34   37 ar  
    71   35   36 1   
    72   35   73 1   
    73   35   74 1   
    74   36   75 1   
    75   36   76 1   
    76   37   38 ar  
    77   37   77 1   
    78   38   78 1   
    79   39   79 1   
    80   64   80 1   
    81   65   80 1   
@<TRIPOS>SUBSTRUCTURE
     1 1G5         1 TEMP              0 ****  ****    0 ROOT
