@<TRIPOS>MOLECULE
1G5
   80    70     1     0     0
SMALL
bcc


@<TRIPOS>ATOM
      1 C1         -5.5520    5.3880   -3.8910 c1        1 1G5     -0.190000
      2 C6         -5.0290    4.3660   -4.6650 c1        1 1G5     -0.117500
      3 C5         -4.7220    3.1370   -4.0820 c1        1 1G5     -0.117500
      4 C4         -4.9410    2.9400   -2.7290 c1        1 1G5     -0.097000
      5 C3         -5.4660    3.9680   -1.9530 c1        1 1G5     -0.038000
      6 C2         -5.7710    5.1890   -2.5330 c2        1 1G5      0.071000
      7 C7         -5.7340    3.7440   -0.5090 c2        1 1G5     -0.568000
      8 C9         -4.6880    1.5410   -2.0930 c1        1 1G5      0.363000
      9 O8         -6.3710    6.2110   -1.7550 oh        1 1G5     -0.247000
     10 O32        -4.8860    1.3710   -0.9200 o         1 1G5     -0.395000
     11 N10        -4.2270    0.4540   -2.9050 n2        1 1G5     -0.369000
     12 C11        -3.6500   -0.7230   -2.2740 c3        1 1G5      0.021000
     13 C15        -2.1930   -0.8220   -2.6290 c1        1 1G5      0.283000
     14 O16        -1.8590   -0.9560   -3.7880 o         1 1G5     -0.386000
     15 C12        -4.3880   -1.9850   -2.7610 c3        1 1G5     -0.102000
     16 C13        -5.4710   -2.4010   -1.7020 c3        1 1G5     -0.218000
     17 C14        -5.0650   -1.6940   -4.0900 c3        1 1G5     -0.218000
     18 N17        -1.1790   -0.9120   -1.5540 n2        1 1G5     -0.366000
     19 C18         0.1460   -0.4840   -1.7910 c3        1 1G5     -0.034000
     20 C19         1.0530   -1.0070   -0.6820 c1        1 1G5      0.294000
     21 O33         0.7330   -2.0050   -0.0510 o         1 1G5     -0.386000
     22 C40         0.1950    1.0330   -1.8110 c3        1 1G5     -0.019000
     23 O41        -0.5490    1.5180   -2.9200 oh        1 1G5     -0.327000
     24 O38         5.7080   -5.2560    1.2940 o         1 1G5     -0.936500
     25 S36         4.5340   -4.5070    1.6560 ss        1 1G5      2.816000
     26 O37         3.5320   -5.1590    0.8630 o         1 1G5     -0.936500
     27 C39         4.1770   -4.6610    3.4080 c2        1 1G5     -0.568000
     28 C35         4.6970   -2.7960    1.2080 c2        1 1G5     -0.868000
     29 C23         3.4570   -2.3540    0.3840 c3        1 1G5     -0.149000
     30 C21         3.2110   -0.8680    0.5960 c3        1 1G5      0.054000
     31 C22         2.5550   -0.6480    1.9460 c3        1 1G5     -0.142000
     32 C24         3.6720   -0.2900    3.0290 c2        1 1G5     -0.070000
     33 C25         3.8640    1.0360    3.4190 c2        1 1G5     -0.138000
     34 C26         4.7650    1.3380    4.4350 c1        1 1G5     -0.103000
     35 C27         5.4730    0.3200    5.0600 c1        1 1G5     -0.087000
     36 C30         6.5040    0.6570    6.1450 c3        1 1G5     -0.040000
     37 N31         7.6650    1.1960    5.5410 n3        1 1G5     -0.349000
     38 C28         5.2800   -1.0070    4.6700 c1        1 1G5     -0.121000
     39 C29         4.3820   -1.3090    3.6570 c1        1 1G5     -0.141000
     40 N20         2.3510   -0.3730   -0.4410 n2        1 1G5     -0.378000
     41 H5         -5.7670    6.2520   -4.3010 ha        1 1G5      0.139000
     42 H6         -4.8760    4.5050   -5.6160 ha        1 1G5      0.143000
     43 H7         -4.3550    2.4210   -4.6230 ha        1 1G5      0.143000
     44 H1         -6.0510    4.5550   -0.1160 ha        1 1G5      0.129000
     45 H2         -6.4140    3.0430   -0.4070 ha        1 1G5      0.129000
     46 H3         -4.8970    3.4620   -0.0580 ha        1 1G5      0.129000
     47 H4         -5.8070    6.9160   -1.6970 ho        1 1G5      0.221000
     48 H8         -4.3930    0.4550   -3.8170 hn        1 1G5      0.244000
     49 H9         -3.7420   -0.6480   -1.3080 h1        1 1G5      0.124000
     50 H10        -3.7510   -2.7110   -2.8740 hc        1 1G5      0.113000
     51 H11        -6.2600   -1.8180   -1.7930 hc        1 1G5      0.082833
     52 H12        -5.7350   -3.3360   -1.8530 hc        1 1G5      0.082833
     53 H13        -5.0920   -2.3070   -0.7860 hc        1 1G5      0.082833
     54 H14        -5.3460   -2.5400   -4.5080 hc        1 1G5      0.082833
     55 H15        -5.8500   -1.1290   -3.9400 hc        1 1G5      0.082833
     56 H16        -4.4380   -1.2310   -4.6800 hc        1 1G5      0.082833
     57 H17        -1.4210   -1.2240   -0.7150 hn        1 1G5      0.254000
     58 H18         0.4480   -0.8280   -2.6460 h1        1 1G5      0.130000
     59 H19        -0.1940    1.3860   -0.9740 h1        1 1G5      0.111000
     60 H20         1.1330    1.3290   -1.8900 h1        1 1G5      0.111000
     61 H21        -0.4200    2.3980   -3.0030 ho        1 1G5      0.214000
     62 H28         4.0390   -3.7670    3.7950 ha        1 1G5      0.129000
     63 H29         4.9320   -5.0990    3.8570 ha        1 1G5      0.129000
     64 H30         3.3700   -5.1970    3.5300 ha        1 1G5      0.129000
     65 H26         5.5070   -2.6760    0.6690 ha        1 1G5      0.162000
     66 H27         4.7610   -2.2550    2.0120 ha        1 1G5      0.162000
     67 H24         2.6730   -2.8600    0.6780 hc        1 1G5      0.107000
     68 H25         3.6220   -2.5280   -0.5820 hc        1 1G5      0.107000
     69 H23         4.0620   -0.3920    0.5670 h1        1 1G5      0.099000
     70 H31         1.9100    0.0950    1.8810 hc        1 1G5      0.107000
     71 H32         2.0840   -1.4660    2.2190 hc        1 1G5      0.107000
     72 H33         3.3660    1.7510    2.9790 ha        1 1G5      0.133000
     73 H34         4.8990    2.2690    4.7100 ha        1 1G5      0.150000
     74 H35         6.1230    1.3140    6.7660 h1        1 1G5      0.073500
     75 H36         6.7420   -0.1640    6.6380 h1        1 1G5      0.073500
     76 H37         8.3080    0.5450    5.4780 hn        1 1G5      0.148500
     77 H38         7.9840    1.8970    6.0560 hn        1 1G5      0.148500
     78 H40         5.7810   -1.7260    5.1130 ha        1 1G5      0.133000
     79 H41         4.2490   -2.2320    3.3860 ha        1 1G5      0.131000
     80 H22         2.5990    0.3540   -0.9290 hn        1 1G5      0.257000
@<TRIPOS>BOND
     1    1    6 1   
     2    1   41 1   
     3    2    3 1   
     4    2   42 1   
     5    3   43 1   
     6    4    5 1   
     7    5    6 1   
     8    6    9 1   
     9    7   44 1   
    10    7   45 1   
    11    7   46 1   
    12    8   10 1   
    13    9   47 1   
    14   11   12 1   
    15   11   48 1   
    16   12   13 1   
    17   12   15 1   
    18   12   49 1   
    19   13   14 1   
    20   15   16 1   
    21   15   17 1   
    22   15   50 1   
    23   16   51 1   
    24   16   52 1   
    25   16   53 1   
    26   17   54 1   
    27   17   55 1   
    28   17   56 1   
    29   18   19 1   
    30   18   57 1   
    31   19   20 1   
    32   19   22 1   
    33   19   58 1   
    34   20   21 1   
    35   22   23 1   
    36   22   59 1   
    37   22   60 1   
    38   23   61 1   
    39   24   25 1   
    40   25   26 1   
    41   27   62 1   
    42   27   63 1   
    43   27   64 1   
    44   28   29 1   
    45   28   65 1   
    46   28   66 1   
    47   29   30 1   
    48   29   67 1   
    49   29   68 1   
    50   30   31 1   
    51   30   40 1   
    52   30   69 1   
    53   31   32 1   
    54   31   70 1   
    55   31   71 1   
    56   32   33 1   
    57   32   39 1   
    58   33   34 1   
    59   33   72 1   
    60   34   73 1   
    61   35   36 1   
    62   35   38 1   
    63   36   37 1   
    64   36   74 1   
    65   36   75 1   
    66   37   76 1   
    67   37   77 1   
    68   38   78 1   
    69   39   79 1   
    70   40   80 1   
@<TRIPOS>SUBSTRUCTURE
     1 1G5         1 TEMP              0 ****  ****    0 ROOT
