@<TRIPOS>MOLECULE
1G7
   43    45     1     0     0
SMALL
bcc


@<TRIPOS>ATOM
      1 OB          0.0280    0.7620    0.2700 o         1 1G7     -0.637500
      2 CB          1.2530    0.5600    0.1480 c         1 1G7      0.688500
      3 CAB         2.1230    0.3770    1.4020 c3        1 1G7      0.042700
      4 CBB         1.9740    1.6510    2.2620 c3        1 1G7     -0.055100
      5 CGB         2.5300    1.4460    3.6260 ca        1 1G7     -0.091300
      6 CD4         3.8690    1.7560    3.8900 ca        1 1G7     -0.139000
      7 CE4         4.3850    1.5690    5.1780 ca        1 1G7      0.115100
      8 OH4         5.7050    1.8910    5.3810 oh        1 1G7     -0.491100
      9 CZB         3.5510    1.0670    6.2010 ca        1 1G7      0.043100
     10 OHB         4.1370    0.9110    7.4410 oh        1 1G7     -0.515100
     11 CE3         2.2160    0.7590    5.9320 ca        1 1G7     -0.167000
     12 CD3         1.7120    0.9500    4.6470 ca        1 1G7     -0.122000
     13 NB          3.4900    0.0130    1.1420 ns        1 1G7     -0.558900
     14 CA          4.0860    0.1010   -0.0940 c         1 1G7      0.689500
     15 OA          5.3090   -0.1030   -0.2170 o         1 1G7     -0.634500
     16 NA          1.8150    0.4450   -1.1010 ns        1 1G7     -0.556900
     17 CAA         3.2340    0.3960   -1.3380 c3        1 1G7      0.040700
     18 CBA         3.7970    1.6760   -1.9940 c3        1 1G7     -0.052100
     19 CGA         3.2120    1.8930   -3.3420 ca        1 1G7     -0.133300
     20 CD1         2.0480    2.6590   -3.4970 ca        1 1G7     -0.090500
     21 CE1         1.4980    2.8730   -4.7550 ca        1 1G7     -0.182500
     22 CZA         2.1260    2.3120   -5.8800 ca        1 1G7      0.129100
     23 OHA         1.5370    2.5570   -7.0980 oh        1 1G7     -0.494100
     24 CE2         3.2930    1.5460   -5.7410 ca        1 1G7     -0.182500
     25 CD2         3.8270    1.3430   -4.4720 ca        1 1G7     -0.090500
     26 H1          1.6500   -0.4810    1.9780 h1        1 1G7      0.090700
     27 H2          0.8770    1.8890    2.3230 hc        1 1G7      0.074700
     28 H3          2.4840    2.5150    1.7620 hc        1 1G7      0.074700
     29 H4          4.5260    2.1560    3.1040 ha        1 1G7      0.156000
     30 H5          5.9170    1.7140    6.3110 ho        1 1G7      0.439000
     31 H6          3.4610    0.5800    8.0480 ho        1 1G7      0.431000
     32 H7          1.5680    0.3710    6.7310 ha        1 1G7      0.139000
     33 H8          0.6580    0.7110    4.4360 ha        1 1G7      0.143000
     34 H9          4.0740   -0.0950    1.9440 hn        1 1G7      0.335500
     35 H10         1.2460    0.6450   -1.8960 hn        1 1G7      0.333500
     36 H11         3.4240   -0.4660   -2.0530 h1        1 1G7      0.090700
     37 H12         3.5970    2.5630   -1.3370 hc        1 1G7      0.072700
     38 H13         4.9120    1.5510   -2.0680 hc        1 1G7      0.072700
     39 H14         1.5640    3.1030   -2.6130 ha        1 1G7      0.139000
     40 H15         0.5860    3.4730   -4.8860 ha        1 1G7      0.146000
     41 H16         2.0700    2.1230   -7.7800 ho        1 1G7      0.421000
     42 H17         3.7800    1.1120   -6.6260 ha        1 1G7      0.146000
     43 H18         4.7450    0.7450   -4.3580 ha        1 1G7      0.139000
@<TRIPOS>BOND
     1    1    2 2   
     2    2    3 1   
     3    2   16 1   
     4    3    4 1   
     5    3   13 1   
     6    3   26 1   
     7    4    5 1   
     8    4   27 1   
     9    4   28 1   
    10    5    6 ar  
    11    5   12 ar  
    12    6    7 ar  
    13    6   29 1   
    14    7    8 1   
    15    7    9 ar  
    16    8   30 1   
    17    9   10 1   
    18    9   11 ar  
    19   10   31 1   
    20   11   12 ar  
    21   11   32 1   
    22   12   33 1   
    23   13   14 1   
    24   13   34 1   
    25   14   15 2   
    26   14   17 1   
    27   16   17 1   
    28   16   35 1   
    29   17   18 1   
    30   17   36 1   
    31   18   19 1   
    32   18   37 1   
    33   18   38 1   
    34   19   20 ar  
    35   19   25 ar  
    36   20   21 ar  
    37   20   39 1   
    38   21   22 ar  
    39   21   40 1   
    40   22   23 1   
    41   22   24 ar  
    42   23   41 1   
    43   24   25 ar  
    44   24   42 1   
    45   25   43 1   
@<TRIPOS>SUBSTRUCTURE
     1 1G7         1 TEMP              0 ****  ****    0 ROOT
