@<TRIPOS>MOLECULE
1G7
   43    45     1     0     0
SMALL
bcc


@<TRIPOS>ATOM
      1 OB          0.4600   -2.9220    0.6360 o         1 1G7     -0.635500
      2 CB          0.3650   -1.6900    0.8050 c         1 1G7      0.688500
      3 CAB        -1.0220   -1.0280    0.8380 c3        1 1G7      0.040700
      4 CBB        -1.6830   -1.2750   -0.5360 c3        1 1G7     -0.054100
      5 CGB        -3.1140   -0.8720   -0.5270 ca        1 1G7     -0.098300
      6 CD4        -3.4760    0.4400   -0.8530 ca        1 1G7     -0.174000
      7 CE4        -4.8230    0.8070   -0.8480 ca        1 1G7      0.043100
      8 OH4        -5.2670    2.0770   -1.1570 oh        1 1G7     -0.515100
      9 CZB        -5.8210   -0.1360   -0.5180 ca        1 1G7      0.117100
     10 OHB        -7.1590    0.1700   -0.4970 oh        1 1G7     -0.491100
     11 CE3        -5.4510   -1.4480   -0.1950 ca        1 1G7     -0.132000
     12 CD3        -4.1050   -1.8050   -0.2010 ca        1 1G7     -0.117000
     13 NB         -1.0170    0.3540    1.2380 n         1 1G7     -0.556900
     14 CA          0.1050    1.1490    1.2120 c         1 1G7      0.687500
     15 OA          0.0070    2.3800    1.3870 o         1 1G7     -0.637500
     16 NA          1.4920   -0.9290    1.0090 n         1 1G7     -0.556900
     17 CAA         1.4900    0.5100    1.0260 c3        1 1G7      0.041700
     18 CBA         2.1310    1.1460   -0.2270 c3        1 1G7     -0.051100
     19 CGA         3.5650    0.7750   -0.3470 ca        1 1G7     -0.134300
     20 CD1         3.9460   -0.3640   -1.0640 ca        1 1G7     -0.090000
     21 CE1         5.2890   -0.7120   -1.1840 ca        1 1G7     -0.182500
     22 CZA         6.2620    0.0950   -0.5780 ca        1 1G7      0.130100
     23 OHA         7.6070   -0.1800   -0.6500 oh        1 1G7     -0.494100
     24 CE2         5.8950    1.2450    0.1430 ca        1 1G7     -0.182500
     25 CD2         4.5500    1.5730    0.2510 ca        1 1G7     -0.090000
     26 H1         -1.6200   -1.6010    1.6150 h1        1 1G7      0.094700
     27 H2         -1.1290   -0.7150   -1.3340 hc        1 1G7      0.072200
     28 H3         -1.5890   -2.3730   -0.7600 hc        1 1G7      0.072200
     29 H4         -2.7070    1.1790   -1.1210 ha        1 1G7      0.139000
     30 H5         -4.4930    2.6220   -1.3580 ho        1 1G7      0.432000
     31 H6         -7.2580    1.1030   -0.7430 ho        1 1G7      0.439000
     32 H7         -6.2330   -2.1790    0.0590 ha        1 1G7      0.157000
     33 H8         -3.8200   -2.8380    0.0510 ha        1 1G7      0.143000
     34 H9         -1.9100    0.7950    1.2930 hn        1 1G7      0.332500
     35 H10         2.3840   -1.3630    0.9050 hn        1 1G7      0.333500
     36 H11         2.1030    0.8360    1.9260 h1        1 1G7      0.093700
     37 H12         1.5710    0.8300   -1.1460 hc        1 1G7      0.070700
     38 H13         2.0240    2.2610   -0.1290 hc        1 1G7      0.070700
     39 H14         3.1800   -0.9920   -1.5450 ha        1 1G7      0.138500
     40 H15         5.5830   -1.6080   -1.7490 ha        1 1G7      0.146500
     41 H16         7.7200   -0.9880   -1.1730 ho        1 1G7      0.422000
     42 H17         6.6750    1.8650    0.6080 ha        1 1G7      0.146500
     43 H18         4.2540    2.4740    0.8110 ha        1 1G7      0.138500
@<TRIPOS>BOND
     1    1    2 2   
     2    2    3 1   
     3    2   16 1   
     4    3    4 1   
     5    3   13 1   
     6    3   26 1   
     7    4    5 1   
     8    4   27 1   
     9    4   28 1   
    10    5    6 ar  
    11    5   12 ar  
    12    6    7 ar  
    13    6   29 1   
    14    7    8 1   
    15    7    9 ar  
    16    8   30 1   
    17    9   10 1   
    18    9   11 ar  
    19   10   31 1   
    20   11   12 ar  
    21   11   32 1   
    22   12   33 1   
    23   13   14 1   
    24   13   34 1   
    25   14   15 2   
    26   14   17 1   
    27   16   17 1   
    28   16   35 1   
    29   17   18 1   
    30   17   36 1   
    31   18   19 1   
    32   18   37 1   
    33   18   38 1   
    34   19   20 ar  
    35   19   25 ar  
    36   20   21 ar  
    37   20   39 1   
    38   21   22 ar  
    39   21   40 1   
    40   22   23 1   
    41   22   24 ar  
    42   23   41 1   
    43   24   25 ar  
    44   24   42 1   
    45   25   43 1   
@<TRIPOS>SUBSTRUCTURE
     1 1G7         1 TEMP              0 ****  ****    0 ROOT
