@<TRIPOS>MOLECULE
1G7
   43    45     1     0     0
SMALL
bcc


@<TRIPOS>ATOM
      1 OB          0.0420    0.6870    0.2570 o         1 1G7     -0.637500
      2 CB          1.2690    0.5040    0.1320 c         1 1G7      0.688500
      3 CAB         2.1420    0.3100    1.3820 c3        1 1G7      0.042700
      4 CBB         1.9790    1.5680    2.2630 c3        1 1G7     -0.056100
      5 CGB         2.5380    1.3470    3.6230 ca        1 1G7     -0.091300
      6 CD4         3.8730    1.6680    3.8910 ca        1 1G7     -0.139000
      7 CE4         4.3920    1.4670    5.1750 ca        1 1G7      0.115100
      8 OH4         5.7080    1.8000    5.3830 oh        1 1G7     -0.491100
      9 CZB         3.5650    0.9390    6.1910 ca        1 1G7      0.043100
     10 OHB         4.1540    0.7690    7.4280 oh        1 1G7     -0.515100
     11 CE3         2.2330    0.6200    5.9180 ca        1 1G7     -0.167000
     12 CD3         1.7260    0.8260    4.6370 ca        1 1G7     -0.122000
     13 NB          3.5130   -0.0330    1.1150 n         1 1G7     -0.558900
     14 CA          4.1070    0.0850   -0.1190 c         1 1G7      0.689500
     15 OA          5.3330   -0.1020   -0.2460 o         1 1G7     -0.634500
     16 NA          1.8330    0.4190   -1.1190 n         1 1G7     -0.555900
     17 CAA         3.2520    0.3940   -1.3570 c3        1 1G7      0.040700
     18 CBA         3.7980    1.6940   -1.9870 c3        1 1G7     -0.052100
     19 CGA         3.2100    1.9310   -3.3310 ca        1 1G7     -0.133300
     20 CD1         2.0350    2.6830   -3.4700 ca        1 1G7     -0.090500
     21 CE1         1.4820    2.9160   -4.7240 ca        1 1G7     -0.182500
     22 CZA         2.1190    2.3860   -5.8590 ca        1 1G7      0.129100
     23 OHA         1.5270    2.6480   -7.0720 oh        1 1G7     -0.494100
     24 CE2         3.2960    1.6340   -5.7360 ca        1 1G7     -0.182500
     25 CD2         3.8330    1.4120   -4.4710 ca        1 1G7     -0.090500
     26 H1          1.6790   -0.5620    1.9440 h1        1 1G7      0.090700
     27 H2          0.8790    1.7920    2.3280 hc        1 1G7      0.074700
     28 H3          2.4780    2.4460    1.7770 hc        1 1G7      0.074700
     29 H4          4.5260    2.0880    3.1110 ha        1 1G7      0.156000
     30 H5          5.9240    1.6110    6.3100 ho        1 1G7      0.439000
     31 H6          3.4820    0.4200    8.0300 ho        1 1G7      0.431000
     32 H7          1.5900    0.2120    6.7110 ha        1 1G7      0.139000
     33 H8          0.6750    0.5780    4.4220 ha        1 1G7      0.143000
     34 H9          4.0990   -0.1490    1.9150 hn        1 1G7      0.335500
     35 H10         1.2610    0.6260   -1.9110 hn        1 1G7      0.333500
     36 H11         3.4540   -0.4510   -2.0890 h1        1 1G7      0.091700
     37 H12         3.5860    2.5650   -1.3120 hc        1 1G7      0.072700
     38 H13         4.9140    1.5850   -2.0630 hc        1 1G7      0.072700
     39 H14         1.5460    3.1030   -2.5770 ha        1 1G7      0.139000
     40 H15         0.5620    3.5050   -4.8430 ha        1 1G7      0.146000
     41 H16         2.0660    2.2360   -7.7640 ho        1 1G7      0.421000
     42 H17         3.7900    1.2250   -6.6290 ha        1 1G7      0.146000
     43 H18         4.7590    0.8250   -4.3690 ha        1 1G7      0.139000
@<TRIPOS>BOND
     1    1    2 2   
     2    2    3 1   
     3    2   16 1   
     4    3    4 1   
     5    3   13 1   
     6    3   26 1   
     7    4    5 1   
     8    4   27 1   
     9    4   28 1   
    10    5    6 ar  
    11    5   12 ar  
    12    6    7 ar  
    13    6   29 1   
    14    7    8 1   
    15    7    9 ar  
    16    8   30 1   
    17    9   10 1   
    18    9   11 ar  
    19   10   31 1   
    20   11   12 ar  
    21   11   32 1   
    22   12   33 1   
    23   13   14 1   
    24   13   34 1   
    25   14   15 2   
    26   14   17 1   
    27   16   17 1   
    28   16   35 1   
    29   17   18 1   
    30   17   36 1   
    31   18   19 1   
    32   18   37 1   
    33   18   38 1   
    34   19   20 ar  
    35   19   25 ar  
    36   20   21 ar  
    37   20   39 1   
    38   21   22 ar  
    39   21   40 1   
    40   22   23 1   
    41   22   24 ar  
    42   23   41 1   
    43   24   25 ar  
    44   24   42 1   
    45   25   43 1   
@<TRIPOS>SUBSTRUCTURE
     1 1G7         1 TEMP              0 ****  ****    0 ROOT
