@<TRIPOS>MOLECULE
1G7
   43    45     1     0     0
SMALL
bcc


@<TRIPOS>ATOM
      1 OB          0.0580    0.6310    0.2300 o         1 1G7     -0.639500
      2 CB          1.2850    0.4410    0.1190 c         1 1G7      0.688500
      3 CAB         2.1480    0.2800    1.3800 c3        1 1G7      0.043700
      4 CBB         1.9780    1.5600    2.2280 c3        1 1G7     -0.055100
      5 CGB         2.5280    1.3740    3.5970 ca        1 1G7     -0.091300
      6 CD4         3.8600    1.7060    3.8660 ca        1 1G7     -0.139000
      7 CE4         4.3710    1.5380    5.1580 ca        1 1G7      0.115100
      8 OH4         5.6850    1.8810    5.3660 oh        1 1G7     -0.491100
      9 CZB         3.5390    1.0330    6.1820 ca        1 1G7      0.043100
     10 OHB         4.1200    0.8970    7.4260 oh        1 1G7     -0.514100
     11 CE3         2.2100    0.7040    5.9070 ca        1 1G7     -0.167000
     12 CD3         1.7110    0.8760    4.6180 ca        1 1G7     -0.123000
     13 NB          3.5220   -0.0680    1.1330 n         1 1G7     -0.559900
     14 CA          4.1250    0.0150   -0.1000 c         1 1G7      0.689500
     15 OA          5.3520   -0.1730   -0.2130 o         1 1G7     -0.633500
     16 NA          1.8570    0.3180   -1.1250 n         1 1G7     -0.555900
     17 CAA         3.2780    0.2860   -1.3520 c3        1 1G7      0.039700
     18 CBA         3.8280    1.5670   -2.0160 c3        1 1G7     -0.052100
     19 CGA         3.2340    1.7740   -3.3630 ca        1 1G7     -0.133300
     20 CD1         2.0680    2.5310   -3.5160 ca        1 1G7     -0.090500
     21 CE1         1.5120    2.7320   -4.7770 ca        1 1G7     -0.182500
     22 CZA         2.1360    2.1690   -5.8990 ca        1 1G7      0.129100
     23 OHA         1.6500    2.3210   -7.1760 oh        1 1G7     -0.494100
     24 CE2         3.3110    1.4080   -5.7620 ca        1 1G7     -0.182500
     25 CD2         3.8480    1.2190   -4.4950 ca        1 1G7     -0.090500
     26 H1          1.6830   -0.5790    1.9610 h1        1 1G7      0.090700
     27 H2          0.8770    1.7840    2.2810 hc        1 1G7      0.074200
     28 H3          2.4790    2.4260    1.7230 hc        1 1G7      0.074200
     29 H4          4.5170    2.1080    3.0800 ha        1 1G7      0.157000
     30 H5          5.8950    1.7140    6.2980 ho        1 1G7      0.439000
     31 H6          3.4450    0.5580    8.0320 ho        1 1G7      0.431000
     32 H7          1.5620    0.3140    6.7060 ha        1 1G7      0.139000
     33 H8          0.6620    0.6200    4.4020 ha        1 1G7      0.143000
     34 H9          4.1030   -0.1610    1.9400 hn        1 1G7      0.335500
     35 H10         1.2920    0.5010   -1.9260 hn        1 1G7      0.333500
     36 H11         3.4850   -0.5800   -2.0580 h1        1 1G7      0.091700
     37 H12         4.9430    1.4510   -2.0950 hc        1 1G7      0.072700
     38 H13         3.6240    2.4550   -1.3620 hc        1 1G7      0.072700
     39 H14         1.5840    2.9790   -2.6340 ha        1 1G7      0.138500
     40 H15         0.5960    3.3280   -4.8920 ha        1 1G7      0.146000
     41 H16         0.8500    2.8650   -7.1290 ho        1 1G7      0.421000
     42 H17         3.7860    0.9780   -6.6550 ha        1 1G7      0.146000
     43 H18         4.7700    0.6280   -4.3780 ha        1 1G7      0.138500
@<TRIPOS>BOND
     1    1    2 2   
     2    2    3 1   
     3    2   16 1   
     4    3    4 1   
     5    3   13 1   
     6    3   26 1   
     7    4    5 1   
     8    4   27 1   
     9    4   28 1   
    10    5    6 ar  
    11    5   12 ar  
    12    6    7 ar  
    13    6   29 1   
    14    7    8 1   
    15    7    9 ar  
    16    8   30 1   
    17    9   10 1   
    18    9   11 ar  
    19   10   31 1   
    20   11   12 ar  
    21   11   32 1   
    22   12   33 1   
    23   13   14 1   
    24   13   34 1   
    25   14   15 2   
    26   14   17 1   
    27   16   17 1   
    28   16   35 1   
    29   17   18 1   
    30   17   36 1   
    31   18   19 1   
    32   18   37 1   
    33   18   38 1   
    34   19   20 ar  
    35   19   25 ar  
    36   20   21 ar  
    37   20   39 1   
    38   21   22 ar  
    39   21   40 1   
    40   22   23 1   
    41   22   24 ar  
    42   23   41 1   
    43   24   25 ar  
    44   24   42 1   
    45   25   43 1   
@<TRIPOS>SUBSTRUCTURE
     1 1G7         1 TEMP              0 ****  ****    0 ROOT
