@<TRIPOS>MOLECULE
1G7
   43    36     1     0     0
SMALL
bcc


@<TRIPOS>ATOM
      1 OB         -2.1250   -2.8000   -1.7520 o         1 1G7     -0.360000
      2 CB         -0.9850   -2.3830   -1.7060 c1        1 1G7      0.296000
      3 CAB        -0.2600   -2.2810   -0.3640 c2        1 1G7      0.014000
      4 CBB        -0.7300   -1.0200    0.4450 c3        1 1G7     -0.140000
      5 CGB        -0.7750   -1.3710    1.9830 c1        1 1G7     -0.091000
      6 CD4         0.3450   -1.1810    2.7630 c1        1 1G7     -0.153000
      7 CE4         0.3140   -1.5050    4.1160 c1        1 1G7      0.035000
      8 OH4         1.4830   -1.4410    4.8710 o         1 1G7     -0.254000
      9 CZB        -0.8500   -2.0230    4.6820 c1        1 1G7      0.035000
     10 OHB        -0.8590   -2.4250    6.0220 o         1 1G7     -0.254000
     11 CE3        -1.9740   -2.2130    3.8980 c1        1 1G7     -0.153000
     12 CD3        -1.9420   -1.8890    2.5500 c1        1 1G7     -0.117000
     13 NB          1.1780   -2.3040   -0.5740 n         1 1G7     -0.366000
     14 CA          1.6360   -1.3590   -1.5540 c2        1 1G7      0.295000
     15 OA          2.7450   -0.8860   -1.4670 o         1 1G7     -0.362000
     16 NA         -0.5250   -1.4340   -2.6860 n3        1 1G7     -0.366000
     17 CAA         0.5120   -0.5490   -2.1990 c3        1 1G7      0.015000
     18 CBA        -0.0360    0.5140   -1.2290 c3        1 1G7     -0.137000
     19 CGA         0.2880    1.9380   -1.7830 c1        1 1G7     -0.127000
     20 CD1         1.4770    2.5550   -1.4530 c1        1 1G7     -0.121000
     21 CE1         1.7940    3.7960   -2.0040 c1        1 1G7     -0.121000
     22 CZA         0.9160    4.4100   -2.8820 c1        1 1G7      0.085000
     23 OHA         1.2490    5.6560   -3.4570 o         1 1G7     -0.254000
     24 CE2        -0.2750    3.7910   -3.2120 c1        1 1G7     -0.211000
     25 CD2        -0.5930    2.5560   -2.6650 c1        1 1G7     -0.092000
     26 H1         -0.5290   -2.9980    0.2380 h4        1 1G7      0.134000
     27 H2         -0.1010   -0.2840    0.2980 hc        1 1G7      0.111500
     28 H3         -1.6170   -0.7540    0.1470 hc        1 1G7      0.111500
     29 H4          1.1380   -0.7380    2.3820 ha        1 1G7      0.148000
     30 H5          1.7050   -0.6050    4.9930 ho        1 1G7      0.230000
     31 H6         -1.1060   -1.7500    6.5300 ho        1 1G7      0.230000
     32 H7         -2.8100   -2.5840    4.3040 ha        1 1G7      0.148000
     33 H8         -2.7410   -2.0240    1.9940 ha        1 1G7      0.143000
     34 H9          1.7350   -2.5730    0.0970 hn        1 1G7      0.246000
     35 H10        -1.0890   -1.1560   -3.3540 hn        1 1G7      0.247000
     36 H11         0.8530    0.0170   -2.9260 h1        1 1G7      0.133000
     37 H12         0.3780    0.4010   -0.3540 hc        1 1G7      0.110000
     38 H13        -1.0010    0.4110   -1.1470 hc        1 1G7      0.110000
     39 H14         2.0920    2.1280   -0.8400 ha        1 1G7      0.148000
     40 H15         2.6270    4.2280   -1.7730 ha        1 1G7      0.148000
     41 H16         0.7740    5.7790   -4.2020 ho        1 1G7      0.230000
     42 H17        -0.8940    4.2250   -3.8320 ha        1 1G7      0.138000
     43 H18        -1.4230    2.1260   -2.8970 ha        1 1G7      0.136000
@<TRIPOS>BOND
     1    1    2 1   
     2    2   16 1   
     3    3    4 1   
     4    3   13 1   
     5    3   26 1   
     6    4    5 1   
     7    4   27 1   
     8    4   28 1   
     9    5   12 1   
    10    6    7 1   
    11    6   29 1   
    12    7    9 1   
    13    8   30 1   
    14    9   11 1   
    15   10   31 1   
    16   11   32 1   
    17   12   33 1   
    18   13   14 1   
    19   13   34 1   
    20   14   15 1   
    21   14   17 1   
    22   16   17 1   
    23   16   35 1   
    24   17   18 1   
    25   17   36 1   
    26   18   19 1   
    27   18   37 1   
    28   18   38 1   
    29   19   25 1   
    30   20   21 1   
    31   20   39 1   
    32   21   40 1   
    33   22   24 1   
    34   23   41 1   
    35   24   42 1   
    36   25   43 1   
@<TRIPOS>SUBSTRUCTURE
     1 1G7         1 TEMP              0 ****  ****    0 ROOT
