@<TRIPOS>MOLECULE
1G8
   27    27     1     0     0
SMALL
bcc


@<TRIPOS>ATOM
      1 C25         3.5390    0.2900   -0.1300 c         1 1G8      0.886600
      2 O26         4.5180   -0.4690    0.1200 o         1 1G8     -0.840300
      3 C15         2.1170   -0.1650    0.3460 c3        1 1G8      0.023500
      4 C16         1.1550   -0.0250   -0.8400 c3        1 1G8     -0.040100
      5 C17        -0.2740   -0.0080   -0.4340 ca        1 1G8     -0.019300
      6 C22        -0.7980    1.0950    0.2560 ca        1 1G8     -0.132500
      7 C21        -2.1410    1.1330    0.6190 ca        1 1G8     -0.127500
      8 C20        -2.9900    0.0680    0.3010 ca        1 1G8     -0.164300
      9 C23        -4.4380    0.0980    0.6940 c3        1 1G8      0.198100
     10 N24        -5.3910    0.1050   -0.3920 n3        1 1G8     -0.903800
     11 C19        -2.4710   -1.0380   -0.3800 ca        1 1G8     -0.127500
     12 C18        -1.1280   -1.0750   -0.7440 ca        1 1G8     -0.132500
     13 N14         2.0790   -1.4850    0.9620 n3        1 1G8     -0.886800
     14 H32         1.8000    0.5710    1.1420 h1        1 1G8      0.043700
     15 H33         1.4120    0.9480   -1.3480 hc        1 1G8      0.061700
     16 H34         1.3380   -0.8500   -1.5790 hc        1 1G8      0.061700
     17 H35        -0.1290    1.9310    0.5140 ha        1 1G8      0.136000
     18 H36        -2.5360    2.0040    1.1610 ha        1 1G8      0.113500
     19 H37        -4.6540   -0.8100    1.3280 h1        1 1G8      0.049200
     20 H38        -4.6360    1.0090    1.3280 h1        1 1G8      0.049200
     21 H39        -5.2740    0.9280   -0.9520 hn        1 1G8      0.339300
     22 H40        -5.2480   -0.6920   -0.9830 hn        1 1G8      0.339300
     23 H42        -3.1270   -1.8870   -0.6200 ha        1 1G8      0.113500
     24 H43        -0.7260   -1.9540   -1.2690 ha        1 1G8      0.136000
     25 H44         2.2590   -2.1720    0.2510 hn        1 1G8      0.330800
     26 OXT         3.6250    1.4030   -0.7180 o         1 1G8     -0.840300
     27 H2          2.8570   -1.5350    1.6000 hn        1 1G8      0.330800
@<TRIPOS>BOND
     1    1    2 1   
     2    1    3 1   
     3    1   26 1   
     4    3    4 1   
     5    3   13 1   
     6    3   14 1   
     7    4    5 1   
     8    4   15 1   
     9    4   16 1   
    10    5    6 ar  
    11    5   12 ar  
    12    6    7 ar  
    13    6   17 1   
    14    7    8 ar  
    15    7   18 1   
    16    8    9 1   
    17    8   11 ar  
    18    9   10 1   
    19    9   19 1   
    20    9   20 1   
    21   10   21 1   
    22   10   22 1   
    23   11   12 ar  
    24   11   23 1   
    25   12   24 1   
    26   13   25 1   
    27   13   27 1   
@<TRIPOS>SUBSTRUCTURE
     1 1G8         1 TEMP              0 ****  ****    0 ROOT
