@<TRIPOS>MOLECULE
1G8
   27    24     1     0     0
SMALL
bcc


@<TRIPOS>ATOM
      1 C25         2.6540    2.8580   -0.8360 c1        1 1G8      0.307000
      2 O26         3.5440    3.3450   -1.5710 o         1 1G8     -0.575000
      3 C15         2.1280    1.4700   -1.1060 c2        1 1G8     -0.125000
      4 C16         0.6480    1.5470   -1.4560 c3        1 1G8     -0.126000
      5 C17        -0.1300    0.5630   -0.5870 c2        1 1G8     -0.012000
      6 C22        -0.4070    0.8750    0.7280 c2        1 1G8     -0.130000
      7 C21        -1.1650    0.0080    1.5020 c1        1 1G8     -0.131000
      8 C20        -1.6470   -1.1750    0.9520 c1        1 1G8     -0.157000
      9 C23        -2.5570   -2.0960    1.7890 c3        1 1G8     -0.044000
     10 N24        -1.7520   -3.0830    2.4660 n3        1 1G8     -0.336000
     11 C19        -1.3710   -1.4880   -0.3650 c1        1 1G8     -0.123000
     12 C18        -0.6120   -0.6210   -1.1380 c1        1 1G8     -0.135000
     13 N14         2.8380    0.8980   -2.1840 n3        1 1G8     -0.319000
     14 H32         2.2440    0.9190   -0.3110 h4        1 1G8      0.083000
     15 H33         0.5230    1.3210   -2.3980 hc        1 1G8      0.101000
     16 H34         0.3200    2.4560   -1.2930 hc        1 1G8      0.101000
     17 H35        -0.0650    1.7110    1.1180 ha        1 1G8      0.143000
     18 H36        -1.3400    0.2170    2.4350 ha        1 1G8      0.114000
     19 H37        -3.0400   -1.5640    2.4490 h1        1 1G8      0.085000
     20 H38        -3.2020   -2.5490    1.1960 h1        1 1G8      0.085000
     21 H39        -1.8190   -2.9620    3.3730 hn        1 1G8      0.137000
     22 H40        -2.0520   -3.9300    2.2450 hn        1 1G8      0.137000
     23 H42        -1.7880   -2.2720   -0.7770 ha        1 1G8      0.114000
     24 H43        -0.4170   -0.8410   -2.0640 ha        1 1G8      0.128000
     25 H44         3.7280    0.8170   -1.9570 hn        1 1G8      0.126000
     26 OXT         2.2400    3.5030    0.1600 o         1 1G8     -0.575000
     27 H2          2.4970    0.0740   -2.3680 hn        1 1G8      0.126000
@<TRIPOS>BOND
     1    1    2 1   
     2    1   26 1   
     3    3    4 1   
     4    3   13 1   
     5    3   14 1   
     6    4    5 1   
     7    4   15 1   
     8    4   16 1   
     9    5    6 1   
    10    5   12 1   
    11    6    7 1   
    12    6   17 1   
    13    7   18 1   
    14    8    9 1   
    15    8   11 1   
    16    9   10 1   
    17    9   19 1   
    18    9   20 1   
    19   10   21 1   
    20   10   22 1   
    21   11   23 1   
    22   12   24 1   
    23   13   25 1   
    24   13   27 1   
@<TRIPOS>SUBSTRUCTURE
     1 1G8         1 TEMP              0 ****  ****    0 ROOT
