@<TRIPOS>MOLECULE
1G9
   31    32     1     0     0
SMALL
bcc


@<TRIPOS>ATOM
      1 OB         -0.0270   -0.1570   -0.0190 o         1 1G9     -0.633500
      2 CB          1.2140   -0.0550    0.0060 c         1 1G9      0.691500
      3 NA          1.8800    0.0750    1.2030 n         1 1G9     -0.562900
      4 CAA         3.3160    0.0290    1.3130 c3        1 1G9      0.040700
      5 CBA         3.8620   -1.3210    1.7860 c3        1 1G9     -0.120100
      6 CAB         2.0120   -0.0330   -1.3090 c3        1 1G9      0.040700
      7 NB          3.3620    0.4470   -1.1710 n         1 1G9     -0.555900
      8 CA          4.0580    0.3950    0.0150 c         1 1G9      0.688500
      9 OA          5.2720    0.6720    0.0510 o         1 1G9     -0.633500
     10 CBB         1.9040   -1.4390   -1.9370 c3        1 1G9     -0.053100
     11 CGB         2.4290   -1.4520   -3.3260 ca        1 1G9     -0.133300
     12 CD4         3.7790   -1.7250   -3.5740 ca        1 1G9     -0.089500
     13 CE4         4.2730   -1.7430   -4.8750 ca        1 1G9     -0.182500
     14 CZB         3.4010   -1.4850   -5.9420 ca        1 1G9      0.129100
     15 OHB         3.8120   -1.4840   -7.2550 oh        1 1G9     -0.494100
     16 CE3         2.0420   -1.2110   -5.7110 ca        1 1G9     -0.182500
     17 CD3         1.5700   -1.1980   -4.4050 ca        1 1G9     -0.089500
     18 H1          1.3610   -0.0020    2.0480 hn        1 1G9      0.328500
     19 H2          3.6180    0.8150    2.0740 h1        1 1G9      0.089700
     20 H3          3.4500   -1.5770    2.7910 hc        1 1G9      0.055033
     21 H4          3.5970   -2.1380    1.0730 hc        1 1G9      0.055033
     22 H5          4.9750   -1.2520    1.8580 hc        1 1G9      0.055033
     23 H6          1.4670    0.6920   -1.9920 h1        1 1G9      0.095700
     24 H7          3.8720    0.5750   -2.0180 hn        1 1G9      0.332500
     25 H8          0.8170   -1.7280   -1.9280 hc        1 1G9      0.069700
     26 H9          2.4590   -2.1830   -1.3060 hc        1 1G9      0.069700
     27 H10         4.4590   -1.9340   -2.7330 ha        1 1G9      0.139000
     28 H11         5.3340   -1.9590   -5.0640 ha        1 1G9      0.146000
     29 H12         4.7590   -1.6890   -7.2720 ho        1 1G9      0.421000
     30 H13         1.3760   -1.0140   -6.5630 ha        1 1G9      0.146000
     31 H14         0.5050   -0.9870   -4.2150 ha        1 1G9      0.139000
@<TRIPOS>BOND
     1    1    2 2   
     2    2    3 1   
     3    2    6 1   
     4    3    4 1   
     5    3   18 1   
     6    4    5 1   
     7    4    8 1   
     8    4   19 1   
     9    5   20 1   
    10    5   21 1   
    11    5   22 1   
    12    6    7 1   
    13    6   10 1   
    14    6   23 1   
    15    7    8 1   
    16    7   24 1   
    17    8    9 2   
    18   10   11 1   
    19   10   25 1   
    20   10   26 1   
    21   11   12 ar  
    22   11   17 ar  
    23   12   13 ar  
    24   12   27 1   
    25   13   14 ar  
    26   13   28 1   
    27   14   15 1   
    28   14   16 ar  
    29   15   29 1   
    30   16   17 ar  
    31   16   30 1   
    32   17   31 1   
@<TRIPOS>SUBSTRUCTURE
     1 1G9         1 TEMP              0 ****  ****    0 ROOT
