@<TRIPOS>MOLECULE
1G9
   31    32     1     0     0
SMALL
bcc


@<TRIPOS>ATOM
      1 OB          2.2950   -2.7200   -0.0050 o         1 1G9     -0.633500
      2 CB          2.2390   -1.4800    0.1070 c         1 1G9      0.691500
      3 NA          3.3710   -0.7130   -0.0440 n         1 1G9     -0.562900
      4 CAA         3.3450    0.7270   -0.0940 c3        1 1G9      0.040700
      5 CBA         3.4330    1.3030   -1.5100 c3        1 1G9     -0.120100
      6 CAB         0.9050   -0.7980    0.4540 c3        1 1G9      0.040700
      7 NB          1.0380    0.5610    0.9070 n         1 1G9     -0.555900
      8 CA          2.1140    1.3560    0.5830 c         1 1G9      0.688500
      9 OA          2.1120    2.5710    0.8610 o         1 1G9     -0.633500
     10 CBB        -0.0300   -0.9690   -0.7630 c3        1 1G9     -0.053100
     11 CGB        -1.4220   -0.5650   -0.4350 ca        1 1G9     -0.133300
     12 CD4        -1.8410    0.7570   -0.6220 ca        1 1G9     -0.089500
     13 CE4        -3.1460    1.1370   -0.3220 ca        1 1G9     -0.182500
     14 CZB        -4.0430    0.1790    0.1720 ca        1 1G9      0.129100
     15 OHB        -5.3460    0.4760    0.4920 oh        1 1G9     -0.494100
     16 CE3        -3.6380   -1.1530    0.3620 ca        1 1G9     -0.182500
     17 CD3        -2.3310   -1.5120    0.0570 ca        1 1G9     -0.089500
     18 H1          4.2140   -1.1580   -0.3280 hn        1 1G9      0.328500
     19 H2          4.2440    1.0980    0.4920 h1        1 1G9      0.089700
     20 H3          2.5700    0.9720   -2.1360 hc        1 1G9      0.055033
     21 H4          3.4240    2.4190   -1.4430 hc        1 1G9      0.055033
     22 H5          4.3790    0.9770   -2.0040 hc        1 1G9      0.055033
     23 H6          0.4630   -1.3960    1.3130 h1        1 1G9      0.095700
     24 H7          0.2060    0.9980    1.2410 hn        1 1G9      0.332500
     25 H8          0.3550   -0.3660   -1.6270 hc        1 1G9      0.069700
     26 H9          0.0010   -2.0520   -1.0610 hc        1 1G9      0.069700
     27 H10        -1.1360    1.5060   -1.0160 ha        1 1G9      0.139000
     28 H11        -3.4700    2.1770   -0.4710 ha        1 1G9      0.146000
     29 H12        -5.4930    1.4160    0.3110 ho        1 1G9      0.421000
     30 H13        -4.3580   -1.8890    0.7470 ha        1 1G9      0.146000
     31 H14        -2.0060   -2.5540    0.2000 ha        1 1G9      0.139000
@<TRIPOS>BOND
     1    1    2 2   
     2    2    3 1   
     3    2    6 1   
     4    3    4 1   
     5    3   18 1   
     6    4    5 1   
     7    4    8 1   
     8    4   19 1   
     9    5   20 1   
    10    5   21 1   
    11    5   22 1   
    12    6    7 1   
    13    6   10 1   
    14    6   23 1   
    15    7    8 1   
    16    7   24 1   
    17    8    9 2   
    18   10   11 1   
    19   10   25 1   
    20   10   26 1   
    21   11   12 ar  
    22   11   17 ar  
    23   12   13 ar  
    24   12   27 1   
    25   13   14 ar  
    26   13   28 1   
    27   14   15 1   
    28   14   16 ar  
    29   15   29 1   
    30   16   17 ar  
    31   16   30 1   
    32   17   31 1   
@<TRIPOS>SUBSTRUCTURE
     1 1G9         1 TEMP              0 ****  ****    0 ROOT
