@<TRIPOS>MOLECULE
1G9
   31    32     1     0     0
SMALL
bcc


@<TRIPOS>ATOM
      1 OB         -0.0350   -0.1560   -0.0240 o         1 1G9     -0.633500
      2 CB          1.2060   -0.0510    0.0040 c         1 1G9      0.691500
      3 NA          1.8690    0.0800    1.2030 n         1 1G9     -0.562900
      4 CAA         3.3050    0.0370    1.3170 c3        1 1G9      0.040700
      5 CBA         3.8530   -1.3120    1.7910 c3        1 1G9     -0.120100
      6 CAB         2.0070   -0.0270   -1.3090 c3        1 1G9      0.040700
      7 NB          3.3560    0.4560   -1.1680 n         1 1G9     -0.555900
      8 CA          4.0490    0.4050    0.0210 c         1 1G9      0.688500
      9 OA          5.2620    0.6850    0.0590 o         1 1G9     -0.633500
     10 CBB         1.9040   -1.4350   -1.9360 c3        1 1G9     -0.053100
     11 CGB         2.4330   -1.4460   -3.3250 ca        1 1G9     -0.133300
     12 CD4         3.7840   -1.7130   -3.5680 ca        1 1G9     -0.089500
     13 CE4         4.2810   -1.7300   -4.8690 ca        1 1G9     -0.182500
     14 CZB         3.4110   -1.4780   -5.9390 ca        1 1G9      0.129100
     15 OHB         3.8250   -1.4770   -7.2500 oh        1 1G9     -0.494100
     16 CE3         2.0500   -1.2100   -5.7100 ca        1 1G9     -0.182500
     17 CD3         1.5750   -1.1970   -4.4050 ca        1 1G9     -0.089500
     18 H1          1.3480    0.0020    2.0460 hn        1 1G9      0.328500
     19 H2          3.6040    0.8250    2.0790 h1        1 1G9      0.089700
     20 H3          3.5910   -2.1280    1.0770 hc        1 1G9      0.055033
     21 H4          3.4380   -1.5680    2.7950 hc        1 1G9      0.055033
     22 H5          4.9650   -1.2400    1.8650 hc        1 1G9      0.055033
     23 H6          1.4620    0.6960   -1.9940 h1        1 1G9      0.095700
     24 H7          3.8680    0.5850   -2.0130 hn        1 1G9      0.332500
     25 H8          2.4610   -2.1760   -1.3030 hc        1 1G9      0.069700
     26 H9          0.8190   -1.7260   -1.9300 hc        1 1G9      0.069700
     27 H10         4.4640   -1.9170   -2.7270 ha        1 1G9      0.139000
     28 H11         5.3440   -1.9410   -5.0550 ha        1 1G9      0.146000
     29 H12         4.7720   -1.6760   -7.2650 ho        1 1G9      0.421000
     30 H13         1.3850   -1.0180   -6.5640 ha        1 1G9      0.146000
     31 H14         0.5090   -0.9920   -4.2180 ha        1 1G9      0.139000
@<TRIPOS>BOND
     1    1    2 2   
     2    2    3 1   
     3    2    6 1   
     4    3    4 1   
     5    3   18 1   
     6    4    5 1   
     7    4    8 1   
     8    4   19 1   
     9    5   20 1   
    10    5   21 1   
    11    5   22 1   
    12    6    7 1   
    13    6   10 1   
    14    6   23 1   
    15    7    8 1   
    16    7   24 1   
    17    8    9 2   
    18   10   11 1   
    19   10   25 1   
    20   10   26 1   
    21   11   12 ar  
    22   11   17 ar  
    23   12   13 ar  
    24   12   27 1   
    25   13   14 ar  
    26   13   28 1   
    27   14   15 1   
    28   14   16 ar  
    29   15   29 1   
    30   16   17 ar  
    31   16   30 1   
    32   17   31 1   
@<TRIPOS>SUBSTRUCTURE
     1 1G9         1 TEMP              0 ****  ****    0 ROOT
