@<TRIPOS>MOLECULE
1G9
   31    27     1     0     0
SMALL
bcc


@<TRIPOS>ATOM
      1 OB         -2.5320   -0.6310    1.6940 o         1 1G9     -0.359000
      2 CB         -1.6970    0.2170    1.9420 c1        1 1G9      0.299000
      3 NA         -1.0170    0.1980    3.1860 n3        1 1G9     -0.372000
      4 CAA         0.2960    0.7300    3.1270 c3        1 1G9      0.013000
      5 CBA         1.2680   -0.2630    2.4260 c3        1 1G9     -0.238000
      6 CAB        -0.8790    0.8690    0.7890 c2        1 1G9      0.014000
      7 NB         -0.3980    2.1490    1.1940 n         1 1G9     -0.365000
      8 CA          0.2770    2.1360    2.4370 c2        1 1G9      0.296000
      9 OA          1.1730    2.9390    2.6580 o         1 1G9     -0.357000
     10 CBB         0.2650   -0.0710    0.3130 c3        1 1G9     -0.139000
     11 CGB         0.0800   -0.3850   -1.1910 c1        1 1G9     -0.126000
     12 CD4         0.7630    0.3780   -2.1600 c1        1 1G9     -0.125500
     13 CE4         0.6440    0.0550   -3.5130 c1        1 1G9     -0.125500
     14 CZB        -0.1480   -1.0180   -3.9040 c1        1 1G9      0.084000
     15 OHB        -0.2790   -1.3380   -5.2750 o         1 1G9     -0.248000
     16 CE3        -0.8270   -1.7770   -2.9390 c1        1 1G9     -0.211000
     17 CD3        -0.7080   -1.4530   -1.5810 c1        1 1G9     -0.082000
     18 H1         -1.2280   -0.4530    3.8220 hn        1 1G9      0.242000
     19 H2          0.6890    0.7880    4.0010 h1        1 1G9      0.129000
     20 H3          1.7020    0.1820    1.6760 hc        1 1G9      0.094333
     21 H4          1.9380   -0.5580    3.0570 hc        1 1G9      0.094333
     22 H5          0.7680   -1.0320    2.1010 hc        1 1G9      0.094333
     23 H6         -1.4200    0.9470   -0.0410 h4        1 1G9      0.134000
     24 H7         -0.1910    2.7820    0.5650 hn        1 1G9      0.247000
     25 H8          0.2370   -0.9170    0.8330 hc        1 1G9      0.108500
     26 H9          1.1130    0.3610    0.4480 hc        1 1G9      0.108500
     27 H10         1.3210    1.1350   -1.8840 ha        1 1G9      0.146500
     28 H11         1.1250    0.5910   -4.1940 ha        1 1G9      0.146500
     29 H12         0.2220   -2.0550   -5.4640 ho        1 1G9      0.220000
     30 H13        -1.3800   -2.5260   -3.2130 ha        1 1G9      0.137000
     31 H14        -1.1800   -1.9810   -0.9110 ha        1 1G9      0.140000
@<TRIPOS>BOND
     1    1    2 1   
     2    2    3 1   
     3    3    4 1   
     4    3   18 1   
     5    4    5 1   
     6    4    8 1   
     7    4   19 1   
     8    5   20 1   
     9    5   21 1   
    10    5   22 1   
    11    6    7 1   
    12    6   10 1   
    13    6   23 1   
    14    7    8 1   
    15    7   24 1   
    16    8    9 1   
    17   10   11 1   
    18   10   25 1   
    19   10   26 1   
    20   11   17 1   
    21   12   13 1   
    22   12   27 1   
    23   13   28 1   
    24   14   16 1   
    25   15   29 1   
    26   16   30 1   
    27   17   31 1   
@<TRIPOS>SUBSTRUCTURE
     1 1G9         1 TEMP              0 ****  ****    0 ROOT
