@<TRIPOS>MOLECULE
1G9
   31    32     1     0     0
SMALL
bcc


@<TRIPOS>ATOM
      1 OB         -0.0560   -0.3090    0.0000 o         1 1G9     -0.633500
      2 CB          1.1770   -0.1400    0.0310 c         1 1G9      0.691500
      3 NA          1.8350   -0.0080    1.2320 ns        1 1G9     -0.562900
      4 CAA         3.2710    0.0220    1.3430 c3        1 1G9      0.040700
      5 CBA         3.8910   -1.3090    1.7780 c3        1 1G9     -0.120100
      6 CAB         1.9730   -0.0360   -1.2820 c3        1 1G9      0.040700
      7 NB          3.2940    0.5140   -1.1280 ns        1 1G9     -0.555900
      8 CA          3.9920    0.4670    0.0580 c         1 1G9      0.688500
      9 OA          5.1890    0.8090    0.1030 o         1 1G9     -0.633500
     10 CBB         1.9430   -1.4280   -1.9490 c3        1 1G9     -0.053100
     11 CGB         2.4690   -1.3720   -3.3380 ca        1 1G9     -0.133300
     12 CD4         3.8320   -1.5620   -3.5900 ca        1 1G9     -0.089500
     13 CE4         4.3260   -1.5160   -4.8910 ca        1 1G9     -0.182500
     14 CZB         3.4420   -1.2770   -5.9520 ca        1 1G9      0.129100
     15 OHB         3.8530   -1.2160   -7.2630 oh        1 1G9     -0.494100
     16 CE3         2.0700   -1.0860   -5.7160 ca        1 1G9     -0.182500
     17 CD3         1.5970   -1.1360   -4.4100 ca        1 1G9     -0.089500
     18 H1          1.3210   -0.1380    2.0730 hn        1 1G9      0.328500
     19 H2          3.5300    0.8010    2.1270 h1        1 1G9      0.089700
     20 H3          3.4930   -1.6160    2.7740 hc        1 1G9      0.055033
     21 H4          4.9990   -1.1800    1.8530 hc        1 1G9      0.055033
     22 H5          3.6710   -2.1180    1.0400 hc        1 1G9      0.055033
     23 H6          1.3890    0.6760   -1.9450 h1        1 1G9      0.095700
     24 H7          3.7970    0.6940   -1.9700 hn        1 1G9      0.332500
     25 H8          0.8750   -1.7760   -1.9510 hc        1 1G9      0.069700
     26 H9          2.5390   -2.1570   -1.3390 hc        1 1G9      0.069700
     27 H10         4.5220   -1.7560   -2.7550 ha        1 1G9      0.139000
     28 H11         5.3980   -1.6670   -5.0840 ha        1 1G9      0.146000
     29 H12         4.8090   -1.3670   -7.2850 ho        1 1G9      0.421000
     30 H13         1.3930   -0.9030   -6.5620 ha        1 1G9      0.146000
     31 H14         0.5220   -0.9900   -4.2160 ha        1 1G9      0.139000
@<TRIPOS>BOND
     1    1    2 2   
     2    2    3 1   
     3    2    6 1   
     4    3    4 1   
     5    3   18 1   
     6    4    5 1   
     7    4    8 1   
     8    4   19 1   
     9    5   20 1   
    10    5   21 1   
    11    5   22 1   
    12    6    7 1   
    13    6   10 1   
    14    6   23 1   
    15    7    8 1   
    16    7   24 1   
    17    8    9 2   
    18   10   11 1   
    19   10   25 1   
    20   10   26 1   
    21   11   12 ar  
    22   11   17 ar  
    23   12   13 ar  
    24   12   27 1   
    25   13   14 ar  
    26   13   28 1   
    27   14   15 1   
    28   14   16 ar  
    29   15   29 1   
    30   16   17 ar  
    31   16   30 1   
    32   17   31 1   
@<TRIPOS>SUBSTRUCTURE
     1 1G9         1 TEMP              0 ****  ****    0 ROOT
