@<TRIPOS>MOLECULE
1GA
   39    40     1     0     0
SMALL
bcc


@<TRIPOS>ATOM
      1 C01        -0.0270   -0.5130    0.0740 c3        1 1GA     -0.069900
      2 C02         1.3950   -0.1030   -0.0080 c2        1 1GA     -0.095400
      3 C03         2.1480    0.1740    1.0700 c2        1 1GA     -0.191200
      4 C04         1.6040    0.4170    2.4430 c3        1 1GA     -0.009900
      5 C05         1.1430    1.8420    2.3790 ca        1 1GA     -0.005300
      6 C06        -0.1980    2.1390    2.1000 ca        1 1GA     -0.113000
      7 C07        -0.5240    3.3270    1.4530 ca        1 1GA     -0.094500
      8 C08         0.5090    4.2220    1.1200 ca        1 1GA     -0.076400
      9 N09         0.2890    5.2370    0.0890 n4        1 1GA     -0.629400
     10 C10         1.0600    4.9010   -1.1690 c3        1 1GA      0.176000
     11 C11         0.6990    3.5690   -1.7450 c2        1 1GA     -0.217400
     12 C12         1.5110    2.5070   -1.5740 c2        1 1GA     -0.052200
     13 C13         1.2700    1.1630   -2.1510 c3        1 1GA     -0.065200
     14 C14         1.9540    0.0360   -1.3860 c3        1 1GA     -0.048200
     15 C15        -0.5490    3.5180   -2.5400 c3        1 1GA     -0.064900
     16 C16         1.7970    4.0600    1.6670 ca        1 1GA     -0.094500
     17 C17         2.1030    2.8650    2.3050 ca        1 1GA     -0.113000
     18 H1         -0.3650   -0.9860   -0.8810 hc        1 1GA      0.049700
     19 H2         -0.6790    0.3750    0.2760 hc        1 1GA      0.049700
     20 H3         -0.1800   -1.2530    0.9000 hc        1 1GA      0.049700
     21 H5          3.2290    0.3660    0.9660 ha        1 1GA      0.132000
     22 H7          2.4010    0.2790    3.2200 hc        1 1GA      0.078700
     23 H8          0.7570   -0.2750    2.6900 hc        1 1GA      0.078700
     24 H9         -0.9870    1.4040    2.3280 ha        1 1GA      0.170000
     25 H10        -1.5690    3.5180    1.1580 ha        1 1GA      0.153500
     26 H11         0.5930    6.1530    0.4340 hn        1 1GA      0.449800
     27 H12         0.8320    5.7210   -1.9100 hx        1 1GA      0.099700
     28 H13         2.1550    4.9380   -0.8970 hx        1 1GA      0.099700
     29 H15         2.4350    2.6000   -0.9740 ha        1 1GA      0.133000
     30 H17         1.6570    1.1630   -3.2100 hc        1 1GA      0.074700
     31 H18         0.1650    0.9570   -2.2040 hc        1 1GA      0.074700
     32 H19         3.0600    0.2240   -1.3490 hc        1 1GA      0.065700
     33 H20         1.7970   -0.9220   -1.9540 hc        1 1GA      0.065700
     34 H21        -1.2420    2.7350   -2.1390 hc        1 1GA      0.055367
     35 H22        -1.0850    4.4980   -2.5370 hc        1 1GA      0.055367
     36 H23        -0.3180    3.2540   -3.6050 hc        1 1GA      0.055367
     37 H24         2.5720    4.8340    1.5490 ha        1 1GA      0.153500
     38 H25         3.1210    2.6920    2.6920 ha        1 1GA      0.170000
     39 H092       -0.7130    5.2780   -0.1330 hn        1 1GA      0.449800
@<TRIPOS>BOND
     1    1    2 1   
     2    1   18 1   
     3    1   19 1   
     4    1   20 1   
     5    2    3 2   
     6    2   14 1   
     7    3    4 1   
     8    3   21 1   
     9    4    5 1   
    10    4   22 1   
    11    4   23 1   
    12    5    6 ar  
    13    5   17 ar  
    14    6    7 ar  
    15    6   24 1   
    16    7    8 ar  
    17    7   25 1   
    18    8    9 1   
    19    8   16 ar  
    20    9   10 1   
    21    9   26 1   
    22    9   39 1   
    23   10   11 1   
    24   10   27 1   
    25   10   28 1   
    26   11   12 2   
    27   11   15 1   
    28   12   13 1   
    29   12   29 1   
    30   13   14 1   
    31   13   30 1   
    32   13   31 1   
    33   14   32 1   
    34   14   33 1   
    35   15   34 1   
    36   15   35 1   
    37   15   36 1   
    38   16   17 ar  
    39   16   37 1   
    40   17   38 1   
@<TRIPOS>SUBSTRUCTURE
     1 1GA         1 TEMP              0 ****  ****    0 ROOT
