@<TRIPOS>MOLECULE
1GA
   38    31     1     0     0
SMALL
bcc


@<TRIPOS>ATOM
      1 C01        -1.4890   -2.3410   -0.5600 c3        1 1GA     -0.184000
      2 C02         0.0430   -2.3410   -0.5600 c1        1 1GA     -0.094000
      3 C03         0.8190   -2.3410    0.7950 c1        1 1GA     -0.178000
      4 C04         0.0400   -2.3400    2.1320 c2        1 1GA     -0.081000
      5 C05        -0.2540   -0.8860    2.5460 c1        1 1GA     -0.078000
      6 C06        -1.4620   -0.1940    2.2770 c1        1 1GA     -0.114000
      7 C07        -1.4240    1.0740    1.6540 c1        1 1GA     -0.114000
      8 C08        -0.2340    1.7760    1.5890 c1        1 1GA     -0.012000
      9 N09        -0.0250    2.7590    0.5180 n2        1 1GA     -0.247000
     10 C10         0.9050    2.1900   -0.5080 c3        1 1GA     -0.038000
     11 C11         0.0890    1.7840   -1.8000 c1        1 1GA     -0.111000
     12 C12         0.3600    0.3740   -2.5080 c1        1 1GA     -0.153000
     13 C13         1.4160   -0.6250   -1.8970 c2        1 1GA     -0.124000
     14 C14         0.8130   -2.1000   -1.8920 c2        1 1GA     -0.124000
     15 C15        -0.9390    2.7560   -2.3940 c2        1 1GA     -0.178000
     16 C16         0.8090    1.4080    2.3820 c1        1 1GA     -0.165000
     17 C17         0.8260    0.1640    2.9480 c1        1 1GA     -0.120000
     18 H1         -1.8150   -2.5920   -1.4450 hc        1 1GA      0.083000
     19 H2         -1.8150   -2.9830    0.1000 hc        1 1GA      0.083000
     20 H3         -1.8150   -1.4490   -0.3340 hc        1 1GA      0.083000
     21 H5          1.7950   -2.3410    0.7990 ha        1 1GA      0.119000
     22 H7         -0.8000   -2.8240    2.0210 ha        1 1GA      0.092500
     23 H8          0.5770   -2.7730    2.8230 ha        1 1GA      0.092500
     24 H9         -2.3150   -0.5650    2.5750 ha        1 1GA      0.139000
     25 H10        -2.2490    1.4810    1.3260 ha        1 1GA      0.139000
     26 H11         0.3360    3.5190    0.8690 hn        1 1GA      0.159000
     27 H12         1.5750    2.8590   -0.7440 h1        1 1GA      0.076000
     28 H13         1.3480    1.4010   -0.1420 h1        1 1GA      0.076000
     29 H15        -0.1440    0.1240   -3.3050 ha        1 1GA      0.119000
     30 H17         1.6270   -0.3570   -0.9830 ha        1 1GA      0.088000
     31 H18         2.2290   -0.6080   -2.4370 ha        1 1GA      0.088000
     32 H19         0.2010   -2.2050   -2.6450 ha        1 1GA      0.088000
     33 H20         1.5390   -2.7490   -1.9700 ha        1 1GA      0.088000
     34 H21        -1.8310    2.5230   -2.0740 ha        1 1GA      0.081333
     35 H22        -0.9180    2.6970   -3.3680 ha        1 1GA      0.081333
     36 H23        -0.7230    3.6670   -2.1190 ha        1 1GA      0.081333
     37 H24         1.5010    2.0580    2.6110 ha        1 1GA      0.128000
     38 H25         1.4040    0.0030    3.7180 ha        1 1GA      0.132000
@<TRIPOS>BOND
     1    1    2 1   
     2    1   18 1   
     3    1   19 1   
     4    1   20 1   
     5    2    3 1   
     6    3   21 1   
     7    4    5 1   
     8    4   22 1   
     9    4   23 1   
    10    5   17 1   
    11    6    7 1   
    12    6   24 1   
    13    7   25 1   
    14    8   16 1   
    15    9   10 1   
    16    9   26 1   
    17   10   11 1   
    18   10   27 1   
    19   10   28 1   
    20   11   12 1   
    21   12   29 1   
    22   13   14 1   
    23   13   30 1   
    24   13   31 1   
    25   14   32 1   
    26   14   33 1   
    27   15   34 1   
    28   15   35 1   
    29   15   36 1   
    30   16   37 1   
    31   17   38 1   
@<TRIPOS>SUBSTRUCTURE
     1 1GA         1 TEMP              0 ****  ****    0 ROOT
