@<TRIPOS>MOLECULE
1GA
   38    39     1     0     0
SMALL
bcc


@<TRIPOS>ATOM
      1 C01        -2.2390    0.9070    1.6820 c3        1 1GA     -0.060900
      2 C02        -2.1920    1.0700    0.2090 c2        1 1GA     -0.107400
      3 C03        -2.5710    0.1050   -0.6460 c2        1 1GA     -0.178200
      4 C04        -2.7650   -1.3320   -0.2720 c3        1 1GA      0.009100
      5 C05        -1.3670   -1.8670   -0.2200 ca        1 1GA     -0.103300
      6 C06        -0.6990   -2.0030    1.0020 ca        1 1GA     -0.109500
      7 C07         0.6860   -1.8840    1.0530 ca        1 1GA     -0.159000
      8 C08         1.4110   -1.6180   -0.1290 ca        1 1GA      0.100600
      9 N09         2.7410   -1.1150   -0.1000 nh        1 1GA     -0.690600
     10 C10         2.8590    0.2120   -0.6930 c3        1 1GA      0.204000
     11 C11         2.0250    1.3100   -0.0730 c2        1 1GA     -0.181400
     12 C12         0.7450    1.4940   -0.4330 c2        1 1GA     -0.136200
     13 C13        -0.1640    2.5270    0.1210 c3        1 1GA     -0.044200
     14 C14        -1.6230    2.3570   -0.2890 c3        1 1GA     -0.039200
     15 C15         2.7390    2.1400    0.9230 c3        1 1GA     -0.054900
     16 C16         0.7580   -1.7980   -1.3710 ca        1 1GA     -0.159000
     17 C17        -0.6240   -1.9170   -1.4080 ca        1 1GA     -0.109500
     18 H1         -3.2010    0.4310    1.9980 hc        1 1GA      0.043033
     19 H2         -1.3970    0.2490    2.0230 hc        1 1GA      0.043033
     20 H3         -2.1490    1.8930    2.2000 hc        1 1GA      0.043033
     21 H5         -2.5980    0.3000   -1.7300 ha        1 1GA      0.120000
     22 H7         -3.2790   -1.4410    0.7170 hc        1 1GA      0.052700
     23 H8         -3.3800   -1.8630   -1.0430 hc        1 1GA      0.052700
     24 H9         -1.2730   -2.1240    1.9320 ha        1 1GA      0.132000
     25 H10         1.2000   -1.9250    2.0240 ha        1 1GA      0.136500
     26 H11         3.0970   -1.1160    0.8390 hn        1 1GA      0.368800
     27 H12         3.9480    0.4970   -0.6300 h1        1 1GA      0.058200
     28 H13         2.5880    0.1190   -1.7840 h1        1 1GA      0.058200
     29 H15         0.2880    0.8220   -1.1840 ha        1 1GA      0.133000
     30 H17        -0.1040    2.5180    1.2450 hc        1 1GA      0.050200
     31 H18         0.1820    3.5410   -0.2210 hc        1 1GA      0.050200
     32 H19        -1.7020    2.4130   -1.4070 hc        1 1GA      0.045700
     33 H20        -2.2120    3.2160    0.1330 hc        1 1GA      0.045700
     34 H21         3.2530    1.4870    1.6730 hc        1 1GA      0.039367
     35 H22         3.5180    2.7620    0.4130 hc        1 1GA      0.039367
     36 H23         2.0470    2.8260    1.4690 hc        1 1GA      0.039367
     37 H24         1.3350   -1.7720   -2.3070 ha        1 1GA      0.136500
     38 H25        -1.1460   -1.9720   -2.3750 ha        1 1GA      0.132000
@<TRIPOS>BOND
     1    1    2 1   
     2    1   18 1   
     3    1   19 1   
     4    1   20 1   
     5    2    3 2   
     6    2   14 1   
     7    3    4 1   
     8    3   21 1   
     9    4    5 1   
    10    4   22 1   
    11    4   23 1   
    12    5    6 ar  
    13    5   17 ar  
    14    6    7 ar  
    15    6   24 1   
    16    7    8 ar  
    17    7   25 1   
    18    8    9 1   
    19    8   16 ar  
    20    9   10 1   
    21    9   26 1   
    22   10   11 1   
    23   10   27 1   
    24   10   28 1   
    25   11   12 2   
    26   11   15 1   
    27   12   13 1   
    28   12   29 1   
    29   13   14 1   
    30   13   30 1   
    31   13   31 1   
    32   14   32 1   
    33   14   33 1   
    34   15   34 1   
    35   15   35 1   
    36   15   36 1   
    37   16   17 ar  
    38   16   37 1   
    39   17   38 1   
@<TRIPOS>SUBSTRUCTURE
     1 1GA         1 TEMP              0 ****  ****    0 ROOT
