@<TRIPOS>MOLECULE
1GA
   38    39     1     0     0
SMALL
bcc


@<TRIPOS>ATOM
      1 C01        -0.0460   -0.3760   -0.0070 c3        1 1GA     -0.061900
      2 C02         1.4030   -0.0620   -0.0050 c2        1 1GA     -0.102400
      3 C03         2.1130    0.1500    1.1150 c2        1 1GA     -0.179200
      4 C04         1.5190    0.4160    2.4630 c3        1 1GA      0.007100
      5 C05         1.0890    1.8490    2.3840 ca        1 1GA     -0.082300
      6 C06        -0.2270    2.1700    2.0330 ca        1 1GA     -0.123500
      7 C07        -0.5010    3.3720    1.3870 ca        1 1GA     -0.131000
      8 C08         0.5510    4.2600    1.0890 ca        1 1GA      0.069600
      9 N09         0.3500    5.2640    0.0890 nu        1 1GA     -0.693600
     10 C10         1.0270    4.9230   -1.1640 c3        1 1GA      0.204000
     11 C11         0.7050    3.5510   -1.7000 c2        1 1GA     -0.121400
     12 C12         1.5980    2.5500   -1.6310 c2        1 1GA     -0.154200
     13 C13         1.3790    1.1850   -2.1730 c3        1 1GA     -0.043200
     14 C14         2.0330    0.0790   -1.3520 c3        1 1GA     -0.037200
     15 C15        -0.6380    3.3980   -2.3090 c3        1 1GA     -0.052900
     16 C16         1.8040    4.0540    1.7080 ca        1 1GA     -0.131000
     17 C17         2.0690    2.8510    2.3490 ca        1 1GA     -0.123500
     18 H1         -0.3280   -0.9440   -0.9270 hc        1 1GA      0.043033
     19 H2         -0.3280   -0.9890    0.8850 hc        1 1GA      0.043033
     20 H3         -0.6430    0.5730    0.0190 hc        1 1GA      0.043033
     21 H5          3.2030    0.3020    1.0620 ha        1 1GA      0.120000
     22 H7          2.2820    0.2630    3.2690 hc        1 1GA      0.052700
     23 H8          0.6490   -0.2570    2.6790 hc        1 1GA      0.052700
     24 H9         -1.0320    1.4380    2.1950 ha        1 1GA      0.131500
     25 H10        -1.5220    3.5880    1.0360 ha        1 1GA      0.136000
     26 H11         0.6970    6.1500    0.4150 hn        1 1GA      0.362800
     27 H12         0.6910    5.6920   -1.9180 h1        1 1GA      0.034200
     28 H13         2.1500    5.0130   -1.0600 h1        1 1GA      0.034200
     29 H15         2.5780    2.7090   -1.1520 ha        1 1GA      0.123000
     30 H17         1.8080    1.1490   -3.2130 hc        1 1GA      0.048700
     31 H18         0.2790    0.9720   -2.2600 hc        1 1GA      0.048700
     32 H19         1.9270   -0.8870   -1.9150 hc        1 1GA      0.044200
     33 H20         3.1300    0.2900   -1.2510 hc        1 1GA      0.044200
     34 H21        -1.2470    2.6680   -1.7160 hc        1 1GA      0.041700
     35 H22        -1.1880    4.3700   -2.3330 hc        1 1GA      0.041700
     36 H23        -0.5530    3.0120   -3.3560 hc        1 1GA      0.041700
     37 H24         2.5960    4.8120    1.6200 ha        1 1GA      0.136000
     38 H25         3.0700    2.6510    2.7580 ha        1 1GA      0.131500
@<TRIPOS>BOND
     1    1    2 1   
     2    1   18 1   
     3    1   19 1   
     4    1   20 1   
     5    2    3 2   
     6    2   14 1   
     7    3    4 1   
     8    3   21 1   
     9    4    5 1   
    10    4   22 1   
    11    4   23 1   
    12    5    6 ar  
    13    5   17 ar  
    14    6    7 ar  
    15    6   24 1   
    16    7    8 ar  
    17    7   25 1   
    18    8    9 1   
    19    8   16 ar  
    20    9   10 1   
    21    9   26 1   
    22   10   11 1   
    23   10   27 1   
    24   10   28 1   
    25   11   12 2   
    26   11   15 1   
    27   12   13 1   
    28   12   29 1   
    29   13   14 1   
    30   13   30 1   
    31   13   31 1   
    32   14   32 1   
    33   14   33 1   
    34   15   34 1   
    35   15   35 1   
    36   15   36 1   
    37   16   17 ar  
    38   16   37 1   
    39   17   38 1   
@<TRIPOS>SUBSTRUCTURE
     1 1GA         1 TEMP              0 ****  ****    0 ROOT
