@<TRIPOS>MOLECULE
1GA
   38    39     1     0     0
SMALL
bcc


@<TRIPOS>ATOM
      1 C01        -0.0520   -0.3780    0.0020 c3        1 1GA     -0.061900
      2 C02         1.3970   -0.0670   -0.0080 c2        1 1GA     -0.102400
      3 C03         2.1150    0.1480    1.1070 c2        1 1GA     -0.179200
      4 C04         1.5310    0.4210    2.4580 c3        1 1GA      0.007100
      5 C05         1.1050    1.8540    2.3760 ca        1 1GA     -0.082300
      6 C06        -0.2130    2.1780    2.0330 ca        1 1GA     -0.123500
      7 C07        -0.4890    3.3780    1.3840 ca        1 1GA     -0.131000
      8 C08         0.5640    4.2630    1.0760 ca        1 1GA      0.069600
      9 N09         0.3590    5.2630    0.0730 nh        1 1GA     -0.693600
     10 C10         1.0270    4.9150   -1.1830 c3        1 1GA      0.204000
     11 C11         0.6980    3.5430   -1.7120 c2        1 1GA     -0.121400
     12 C12         1.5880    2.5390   -1.6440 c2        1 1GA     -0.154200
     13 C13         1.3620    1.1730   -2.1790 c3        1 1GA     -0.043200
     14 C14         2.0180    0.0680   -1.3590 c3        1 1GA     -0.037200
     15 C15        -0.6480    3.3920   -2.3130 c3        1 1GA     -0.052900
     16 C16         1.8210    4.0550    1.6870 ca        1 1GA     -0.131000
     17 C17         2.0860    2.8540    2.3300 ca        1 1GA     -0.123500
     18 H1         -0.6470    0.5730    0.0290 hc        1 1GA      0.043033
     19 H2         -0.3290   -0.9870    0.8970 hc        1 1GA      0.043033
     20 H3         -0.3420   -0.9480   -0.9150 hc        1 1GA      0.043033
     21 H5          3.2060    0.2980    1.0460 ha        1 1GA      0.120000
     22 H7          2.2990    0.2680    3.2590 hc        1 1GA      0.052700
     23 H8          0.6610   -0.2490    2.6820 hc        1 1GA      0.052700
     24 H9         -1.0190    1.4490    2.2030 ha        1 1GA      0.131500
     25 H10        -1.5110    3.5950    1.0390 ha        1 1GA      0.136000
     26 H11         0.7100    6.1490    0.3940 hn        1 1GA      0.362800
     27 H12         2.1510    5.0030   -1.0860 h1        1 1GA      0.034200
     28 H13         0.6890    5.6830   -1.9370 h1        1 1GA      0.034200
     29 H15         2.5710    2.6970   -1.1710 ha        1 1GA      0.123000
     30 H17         0.2610    0.9620   -2.2580 hc        1 1GA      0.048700
     31 H18         1.7830    1.1320   -3.2230 hc        1 1GA      0.048700
     32 H19         1.9060   -0.9000   -1.9190 hc        1 1GA      0.044200
     33 H20         3.1170    0.2770   -1.2670 hc        1 1GA      0.044200
     34 H21        -1.2570    2.6670   -1.7140 hc        1 1GA      0.041700
     35 H22        -1.1960    4.3650   -2.3390 hc        1 1GA      0.041700
     36 H23        -0.5710    3.0010   -3.3590 hc        1 1GA      0.041700
     37 H24         2.6150    4.8110    1.5910 ha        1 1GA      0.136000
     38 H25         3.0900    2.6520    2.7330 ha        1 1GA      0.131500
@<TRIPOS>BOND
     1    1    2 1   
     2    1   18 1   
     3    1   19 1   
     4    1   20 1   
     5    2    3 2   
     6    2   14 1   
     7    3    4 1   
     8    3   21 1   
     9    4    5 1   
    10    4   22 1   
    11    4   23 1   
    12    5    6 ar  
    13    5   17 ar  
    14    6    7 ar  
    15    6   24 1   
    16    7    8 ar  
    17    7   25 1   
    18    8    9 1   
    19    8   16 ar  
    20    9   10 1   
    21    9   26 1   
    22   10   11 1   
    23   10   27 1   
    24   10   28 1   
    25   11   12 2   
    26   11   15 1   
    27   12   13 1   
    28   12   29 1   
    29   13   14 1   
    30   13   30 1   
    31   13   31 1   
    32   14   32 1   
    33   14   33 1   
    34   15   34 1   
    35   15   35 1   
    36   15   36 1   
    37   16   17 ar  
    38   16   37 1   
    39   17   38 1   
@<TRIPOS>SUBSTRUCTURE
     1 1GA         1 TEMP              0 ****  ****    0 ROOT
