@<TRIPOS>MOLECULE
1GB
   45    48     1     0     0
SMALL
bcc


@<TRIPOS>ATOM
      1 OB          0.0020   -1.9400    1.7530 o         1 1GB     -0.639500
      2 CB         -0.1130   -0.7770    1.3150 c         1 1GB      0.686500
      3 CAB        -1.5110   -0.2160    1.0140 c3        1 1GB      0.040700
      4 CBB        -2.1850   -1.1650   -0.0020 c3        1 1GB     -0.052100
      5 CGB        -3.6250   -0.8420   -0.1710 ca        1 1GB     -0.132300
      6 CD4        -4.0410    0.0510   -1.1630 ca        1 1GB     -0.090500
      7 CE4        -5.3910    0.3520   -1.3280 ca        1 1GB     -0.182500
      8 CZB        -6.3350   -0.2530   -0.4880 ca        1 1GB      0.128100
      9 OHB        -7.6850   -0.0090   -0.5870 oh        1 1GB     -0.495100
     10 CE3        -5.9340   -1.1550    0.5130 ca        1 1GB     -0.182500
     11 CD3        -4.5820   -1.4410    0.6610 ca        1 1GB     -0.090500
     12 NB         -1.5350    1.1650    0.6110 n         1 1GB     -0.557900
     13 CA         -0.4180    1.8750    0.2390 c         1 1GB      0.687500
     14 OA         -0.5370    3.0150   -0.2520 o         1 1GB     -0.642500
     15 NA          0.9970    0.0180    1.1610 n         1 1GB     -0.553900
     16 CAA         0.9810    1.2920    0.4900 c3        1 1GB      0.040700
     17 CBA         1.7400    1.2890   -0.8580 c3        1 1GB     -0.024200
     18 CGA         3.1780    1.0730   -0.6650 cc        1 1GB     -0.163400
     19 CD2         3.8610   -0.2000   -0.5500 ca        1 1GB     -0.094800
     20 CE2         3.4520   -1.5350   -0.5730 ca        1 1GB     -0.094000
     21 CZ3         4.4050   -2.5320   -0.4310 ca        1 1GB     -0.147000
     22 CH2         5.7680   -2.2250   -0.2690 ca        1 1GB     -0.112000
     23 CZ2         6.2200   -0.9150   -0.2450 ca        1 1GB     -0.142000
     24 CE1         5.2660    0.1060   -0.3880 ca        1 1GB     -0.047200
     25 NE1         5.4120    1.4960   -0.4060 na        1 1GB     -0.189400
     26 CD1         4.1540    2.0690   -0.5780 cd        1 1GB     -0.088100
     27 H1         -2.0900   -0.2920    1.9880 h1        1 1GB      0.089700
     28 H2         -1.6560   -1.1070   -0.9890 hc        1 1GB      0.072700
     29 H3         -2.0630   -2.2130    0.3890 hc        1 1GB      0.072700
     30 H4         -3.2980    0.5190   -1.8270 ha        1 1GB      0.139000
     31 H5         -5.7120    1.0540   -2.1100 ha        1 1GB      0.145500
     32 H6         -7.8220    0.6200   -1.3110 ho        1 1GB      0.421000
     33 H7         -6.6910   -1.6210    1.1590 ha        1 1GB      0.145500
     34 H8         -4.2590   -2.1490    1.4400 ha        1 1GB      0.139000
     35 H9         -2.4310    1.5350    0.3750 hn        1 1GB      0.332500
     36 H10         1.8980   -0.4010    1.2690 hn        1 1GB      0.339500
     37 H11         1.5010    2.0350    1.1740 h1        1 1GB      0.089700
     38 H12         1.3200    0.4950   -1.5310 hc        1 1GB      0.070700
     39 H13         1.5590    2.2860   -1.3460 hc        1 1GB      0.070700
     40 H14         2.3900   -1.7860   -0.7060 ha        1 1GB      0.137000
     41 H15         4.0940   -3.5880   -0.4440 ha        1 1GB      0.135000
     42 H16         6.4910   -3.0480   -0.1590 ha        1 1GB      0.132000
     43 H17         7.2850   -0.6820   -0.1210 ha        1 1GB      0.134000
     44 H18         6.2660    1.9820   -0.3350 hn        1 1GB      0.301700
     45 H19         4.0350    3.1540   -0.6290 h4        1 1GB      0.171000
@<TRIPOS>BOND
     1    1    2 2   
     2    2    3 1   
     3    2   15 1   
     4    3    4 1   
     5    3   12 1   
     6    3   27 1   
     7    4    5 1   
     8    4   28 1   
     9    4   29 1   
    10    5    6 ar  
    11    5   11 ar  
    12    6    7 ar  
    13    6   30 1   
    14    7    8 ar  
    15    7   31 1   
    16    8    9 1   
    17    8   10 ar  
    18    9   32 1   
    19   10   11 ar  
    20   10   33 1   
    21   11   34 1   
    22   12   13 1   
    23   12   35 1   
    24   13   14 2   
    25   13   16 1   
    26   15   16 1   
    27   15   36 1   
    28   16   17 1   
    29   16   37 1   
    30   17   18 1   
    31   17   38 1   
    32   17   39 1   
    33   18   19 1   
    34   18   26 2   
    35   19   20 ar  
    36   19   24 ar  
    37   20   21 ar  
    38   20   40 1   
    39   21   22 ar  
    40   21   41 1   
    41   22   23 ar  
    42   22   42 1   
    43   23   24 ar  
    44   23   43 1   
    45   24   25 1   
    46   25   26 1   
    47   25   44 1   
    48   26   45 1   
@<TRIPOS>SUBSTRUCTURE
     1 1GB         1 TEMP              0 ****  ****    0 ROOT
