@<TRIPOS>MOLECULE
1GB
   45    48     1     0     0
SMALL
bcc


@<TRIPOS>ATOM
      1 OB         -0.0620    0.6870    0.4060 o         1 1GB     -0.639500
      2 CB          1.1600    0.4790    0.2690 c         1 1GB      0.686500
      3 CAB         2.0310    0.2350    1.5110 c3        1 1GB      0.040700
      4 CBB         1.8700    1.4580    2.4400 c3        1 1GB     -0.052100
      5 CGB         2.4810    1.2090    3.7720 ca        1 1GB     -0.132300
      6 CD4         3.8140    1.5560    4.0180 ca        1 1GB     -0.090500
      7 CE4         4.3870    1.3300    5.2660 ca        1 1GB     -0.182500
      8 CZB         3.6140    0.7500    6.2810 ca        1 1GB      0.128100
      9 OHB         4.1070    0.4950    7.5390 oh        1 1GB     -0.495100
     10 CE3         2.2720    0.3990    6.0510 ca        1 1GB     -0.182500
     11 CD3         1.7190    0.6320    4.7980 ca        1 1GB     -0.090500
     12 NB          3.4040   -0.0970    1.2320 n         1 1GB     -0.557900
     13 CA          3.9960    0.0610    0.0020 c         1 1GB      0.687500
     14 OA          5.2270   -0.0920   -0.1240 o         1 1GB     -0.642500
     15 NA          1.7150    0.4080   -0.9870 n         1 1GB     -0.553900
     16 CAA         3.1330    0.3630   -1.2330 c3        1 1GB      0.040700
     17 CBA         3.6850    1.6480   -1.8920 c3        1 1GB     -0.024200
     18 CGA         3.1550    1.8290   -3.2480 cc        1 1GB     -0.163400
     19 CD2         1.9040    2.4610   -3.6180 ca        1 1GB     -0.094800
     20 CE2         0.8630    3.0590   -2.9060 ca        1 1GB     -0.094000
     21 CZ3        -0.2160    3.5810   -3.6030 ca        1 1GB     -0.147000
     22 CH2        -0.2780    3.5220   -5.0080 ca        1 1GB     -0.112000
     23 CZ2         0.7350    2.9420   -5.7550 ca        1 1GB     -0.142000
     24 CE1         1.8340    2.4100   -5.0620 ca        1 1GB     -0.047200
     25 NE1         2.9880    1.7760   -5.5300 na        1 1GB     -0.189400
     26 CD1         3.7790    1.4350   -4.4340 cd        1 1GB     -0.088100
     27 H1          1.5700   -0.6590    2.0390 h1        1 1GB      0.089700
     28 H2          0.7680    1.6530    2.5470 hc        1 1GB      0.072700
     29 H3          2.3320    2.3630    1.9650 hc        1 1GB      0.072700
     30 H4          4.4170    2.0180    3.2210 ha        1 1GB      0.139000
     31 H5          5.4350    1.6050    5.4550 ha        1 1GB      0.145500
     32 H6          5.0300    0.7860    7.5630 ho        1 1GB      0.421000
     33 H7          1.6830   -0.0520    6.8620 ha        1 1GB      0.145500
     34 H8          0.6680    0.3630    4.6090 ha        1 1GB      0.139000
     35 H9          3.9910   -0.2240    2.0280 hn        1 1GB      0.331500
     36 H10         1.1490    0.6680   -1.7690 hn        1 1GB      0.338500
     37 H11         3.3190   -0.4980   -1.9510 h1        1 1GB      0.089700
     38 H12         4.8060    1.5530   -1.9240 hc        1 1GB      0.070700
     39 H13         3.4330    2.5410   -1.2600 hc        1 1GB      0.070700
     40 H14         0.9040    3.1180   -1.8080 ha        1 1GB      0.137000
     41 H15        -1.0450    4.0520   -3.0530 ha        1 1GB      0.135000
     42 H16        -1.1530    3.9470   -5.5210 ha        1 1GB      0.132000
     43 H17         0.6820    2.9010   -6.8510 ha        1 1GB      0.134000
     44 H18         3.2130    1.6220   -6.4760 hn        1 1GB      0.301700
     45 H19         4.7400    0.9330   -4.5710 h4        1 1GB      0.171000
@<TRIPOS>BOND
     1    1    2 2   
     2    2    3 1   
     3    2   15 1   
     4    3    4 1   
     5    3   12 1   
     6    3   27 1   
     7    4    5 1   
     8    4   28 1   
     9    4   29 1   
    10    5    6 ar  
    11    5   11 ar  
    12    6    7 ar  
    13    6   30 1   
    14    7    8 ar  
    15    7   31 1   
    16    8    9 1   
    17    8   10 ar  
    18    9   32 1   
    19   10   11 ar  
    20   10   33 1   
    21   11   34 1   
    22   12   13 1   
    23   12   35 1   
    24   13   14 2   
    25   13   16 1   
    26   15   16 1   
    27   15   36 1   
    28   16   17 1   
    29   16   37 1   
    30   17   18 1   
    31   17   38 1   
    32   17   39 1   
    33   18   19 1   
    34   18   26 2   
    35   19   20 ar  
    36   19   24 ar  
    37   20   21 ar  
    38   20   40 1   
    39   21   22 ar  
    40   21   41 1   
    41   22   23 ar  
    42   22   42 1   
    43   23   24 ar  
    44   23   43 1   
    45   24   25 1   
    46   25   26 1   
    47   25   44 1   
    48   26   45 1   
@<TRIPOS>SUBSTRUCTURE
     1 1GB         1 TEMP              0 ****  ****    0 ROOT
