@<TRIPOS>MOLECULE
1GB
   45    37     1     0     0
SMALL
bcc


@<TRIPOS>ATOM
      1 OB         -3.2550   -1.0490   -0.3360 o         1 1GB     -0.364000
      2 CB         -2.4450   -0.1850   -0.0700 c1        1 1GB      0.294000
      3 CAB        -1.7200   -0.2070    1.2700 c2        1 1GB      0.014000
      4 CBB        -2.6340   -0.8240    2.3970 c3        1 1GB     -0.139000
      5 CGB        -2.6410   -2.3410    2.2740 c1        1 1GB     -0.125000
      6 CD4        -3.8220   -3.0080    1.9460 c1        1 1GB     -0.122333
      7 CE4        -3.8520   -4.3960    1.9230 c1        1 1GB     -0.122333
      8 CZB        -2.7090   -5.1190    2.2250 c1        1 1GB      0.084000
      9 OHB        -2.7320   -6.5310    2.1710 o         1 1GB     -0.249000
     10 CE3        -1.5300   -4.4540    2.5520 c1        1 1GB     -0.211000
     11 CD3        -1.4990   -3.0650    2.5750 c1        1 1GB     -0.092000
     12 NB         -1.2580    1.1100    1.6020 n         1 1GB     -0.366000
     13 CA         -0.5130    1.7410    0.5550 c2        1 1GB      0.296000
     14 OA          0.3520    2.5450    0.8260 o         1 1GB     -0.361000
     15 NA         -1.6970    0.4420   -1.1180 n3        1 1GB     -0.359000
     16 CAA        -0.3990    0.8960   -0.7100 c3        1 1GB      0.010000
     17 CBA         0.3530    1.6900   -1.8630 c3        1 1GB     -0.107000
     18 CGA         1.8850    1.5690   -1.6630 c2        1 1GB     -0.170000
     19 CD2         2.7380    2.5780   -2.1120 c1        1 1GB     -0.078000
     20 CE2         2.4880    3.8310   -2.7010 c1        1 1GB     -0.122333
     21 CZ3         3.5500    4.6550   -3.0580 c1        1 1GB     -0.122333
     22 CH2         4.8560    4.2420   -2.8340 c1        1 1GB     -0.122333
     23 CZ2         5.1040    3.0070   -2.2540 c1        1 1GB     -0.122333
     24 CE1         4.0280    2.1700   -1.8910 c1        1 1GB     -0.002000
     25 NE1         3.9860    0.9090   -1.3050 n1        1 1GB     -0.212000
     26 CD1         2.6640    0.5450   -1.1680 c1        1 1GB     -0.068000
     27 H1         -0.9770   -0.8410    1.2620 h4        1 1GB      0.133000
     28 H2         -2.2850   -0.5690    3.2770 hc        1 1GB      0.108500
     29 H3         -3.5510   -0.4840    2.2980 hc        1 1GB      0.108500
     30 H4         -4.6280   -2.4990    1.7340 ha        1 1GB      0.138833
     31 H5         -4.6770   -4.8620    1.6950 ha        1 1GB      0.138833
     32 H6         -2.8620   -6.8580    2.9900 ho        1 1GB      0.220000
     33 H7         -0.7220   -4.9650    2.7650 ha        1 1GB      0.138000
     34 H8         -0.6720   -2.5980    2.8050 ha        1 1GB      0.137000
     35 H9         -1.0980    1.3310    2.4720 hn        1 1GB      0.245000
     36 H10        -1.8470    0.2110   -1.9850 hn        1 1GB      0.247000
     37 H11         0.2060    0.1350   -0.5780 h1        1 1GB      0.137000
     38 H12         0.0940    2.6330   -1.8310 hc        1 1GB      0.106500
     39 H13         0.1070    1.3150   -2.7290 hc        1 1GB      0.106500
     40 H14         1.5660    4.1230   -2.8590 ha        1 1GB      0.138833
     41 H15         3.3740    5.5340   -3.4700 ha        1 1GB      0.138833
     42 H16         5.6080    4.8270   -3.0880 ha        1 1GB      0.138833
     43 H17         6.0230    2.7170   -2.0970 ha        1 1GB      0.138833
     44 H18         4.7050    0.4120   -1.0570 DU        1 1GB      0.210500
     45 H19         2.3370   -0.3150   -0.8360 DU        1 1GB      0.210500
@<TRIPOS>BOND
     1    1    2 1   
     2    2   15 1   
     3    3    4 1   
     4    3   12 1   
     5    3   27 1   
     6    4    5 1   
     7    4   28 1   
     8    4   29 1   
     9    5   11 1   
    10    6    7 1   
    11    6   30 1   
    12    7   31 1   
    13    8   10 1   
    14    9   32 1   
    15   10   33 1   
    16   11   34 1   
    17   12   13 1   
    18   12   35 1   
    19   13   14 1   
    20   13   16 1   
    21   15   16 1   
    22   15   36 1   
    23   16   17 1   
    24   16   37 1   
    25   17   18 1   
    26   17   38 1   
    27   17   39 1   
    28   18   19 1   
    29   18   26 1   
    30   19   24 1   
    31   20   21 1   
    32   20   40 1   
    33   21   41 1   
    34   22   23 1   
    35   22   42 1   
    36   23   43 1   
    37   25   26 1   
@<TRIPOS>SUBSTRUCTURE
     1 1GB         1 TEMP              0 ****  ****    0 ROOT
