@<TRIPOS>MOLECULE
1GB
   45    48     1     0     0
SMALL
bcc


@<TRIPOS>ATOM
      1 OB         -0.0610    0.7020    0.4110 o         1 1GB     -0.639500
      2 CB          1.1610    0.4910    0.2730 c         1 1GB      0.686500
      3 CAB         2.0330    0.2440    1.5130 c3        1 1GB      0.040700
      4 CBB         1.8740    1.4670    2.4440 c3        1 1GB     -0.052100
      5 CGB         2.4860    1.2160    3.7750 ca        1 1GB     -0.132300
      6 CD4         3.8190    1.5620    4.0210 ca        1 1GB     -0.090500
      7 CE4         4.3930    1.3340    5.2690 ca        1 1GB     -0.182500
      8 CZB         3.6200    0.7530    6.2830 ca        1 1GB      0.128100
      9 OHB         4.1140    0.4950    7.5400 oh        1 1GB     -0.495100
     10 CE3         2.2790    0.4020    6.0530 ca        1 1GB     -0.182500
     11 CD3         1.7250    0.6370    4.8010 ca        1 1GB     -0.090500
     12 NB          3.4050   -0.0880    1.2330 n         1 1GB     -0.557900
     13 CA          3.9950    0.0690    0.0010 c         1 1GB      0.687500
     14 OA          5.2260   -0.0860   -0.1260 o         1 1GB     -0.642500
     15 NA          1.7140    0.4190   -0.9840 n         1 1GB     -0.553900
     16 CAA         3.1310    0.3700   -1.2320 c3        1 1GB      0.040700
     17 CBA         3.6850    1.6520   -1.8960 c3        1 1GB     -0.024200
     18 CGA         3.1520    1.8310   -3.2510 cc        1 1GB     -0.163400
     19 CD2         1.9030    2.4650   -3.6200 ca        1 1GB     -0.094800
     20 CE2         0.8640    3.0680   -2.9080 ca        1 1GB     -0.094000
     21 CZ3        -0.2150    3.5910   -3.6040 ca        1 1GB     -0.147000
     22 CH2        -0.2800    3.5280   -5.0090 ca        1 1GB     -0.112000
     23 CZ2         0.7300    2.9440   -5.7560 ca        1 1GB     -0.142000
     24 CE1         1.8290    2.4100   -5.0640 ca        1 1GB     -0.047200
     25 NE1         2.9810    1.7720   -5.5330 na        1 1GB     -0.189400
     26 CD1         3.7730    1.4320   -4.4370 cd        1 1GB     -0.088100
     27 H1          1.5710   -0.6490    2.0410 h1        1 1GB      0.089700
     28 H2          0.7720    1.6630    2.5520 hc        1 1GB      0.072700
     29 H3          2.3360    2.3720    1.9700 hc        1 1GB      0.072700
     30 H4          4.4210    2.0260    3.2240 ha        1 1GB      0.139000
     31 H5          5.4410    1.6090    5.4560 ha        1 1GB      0.145500
     32 H6          5.0380    0.7860    7.5640 ho        1 1GB      0.421000
     33 H7          1.6900   -0.0500    6.8630 ha        1 1GB      0.145500
     34 H8          0.6730    0.3680    4.6120 ha        1 1GB      0.139000
     35 H9          3.9940   -0.2150    2.0280 hn        1 1GB      0.332500
     36 H10         1.1470    0.6790   -1.7650 hn        1 1GB      0.339500
     37 H11         3.3140   -0.4930   -1.9480 h1        1 1GB      0.089700
     38 H12         4.8050    1.5540   -1.9290 hc        1 1GB      0.070700
     39 H13         3.4360    2.5470   -1.2660 hc        1 1GB      0.070700
     40 H14         0.9080    3.1290   -1.8100 ha        1 1GB      0.137000
     41 H15        -1.0410    4.0660   -3.0540 ha        1 1GB      0.135000
     42 H16        -1.1550    3.9540   -5.5220 ha        1 1GB      0.132000
     43 H17         0.6750    2.9000   -6.8520 ha        1 1GB      0.134000
     44 H18         3.2030    1.6160   -6.4790 hn        1 1GB      0.301700
     45 H19         4.7320    0.9270   -4.5750 h4        1 1GB      0.171000
@<TRIPOS>BOND
     1    1    2 2   
     2    2    3 1   
     3    2   15 1   
     4    3    4 1   
     5    3   12 1   
     6    3   27 1   
     7    4    5 1   
     8    4   28 1   
     9    4   29 1   
    10    5    6 ar  
    11    5   11 ar  
    12    6    7 ar  
    13    6   30 1   
    14    7    8 ar  
    15    7   31 1   
    16    8    9 1   
    17    8   10 ar  
    18    9   32 1   
    19   10   11 ar  
    20   10   33 1   
    21   11   34 1   
    22   12   13 1   
    23   12   35 1   
    24   13   14 2   
    25   13   16 1   
    26   15   16 1   
    27   15   36 1   
    28   16   17 1   
    29   16   37 1   
    30   17   18 1   
    31   17   38 1   
    32   17   39 1   
    33   18   19 1   
    34   18   26 2   
    35   19   20 ar  
    36   19   24 ar  
    37   20   21 ar  
    38   20   40 1   
    39   21   22 ar  
    40   21   41 1   
    41   22   23 ar  
    42   22   42 1   
    43   23   24 ar  
    44   23   43 1   
    45   24   25 1   
    46   25   26 1   
    47   25   44 1   
    48   26   45 1   
@<TRIPOS>SUBSTRUCTURE
     1 1GB         1 TEMP              0 ****  ****    0 ROOT
