@<TRIPOS>MOLECULE
1GB
   45    48     1     0     0
SMALL
bcc


@<TRIPOS>ATOM
      1 OB         -0.0610    0.6910    0.4090 o         1 1GB     -0.639500
      2 CB          1.1610    0.4820    0.2700 c         1 1GB      0.686500
      3 CAB         2.0340    0.2350    1.5100 c3        1 1GB      0.040700
      4 CBB         1.8730    1.4560    2.4430 c3        1 1GB     -0.052100
      5 CGB         2.4850    1.2040    3.7730 ca        1 1GB     -0.132300
      6 CD4         3.8180    1.5510    4.0190 ca        1 1GB     -0.090500
      7 CE4         4.3930    1.3230    5.2670 ca        1 1GB     -0.182500
      8 CZB         3.6200    0.7400    6.2810 ca        1 1GB      0.128100
      9 OHB         4.1140    0.4820    7.5380 oh        1 1GB     -0.495100
     10 CE3         2.2790    0.3880    6.0510 ca        1 1GB     -0.182500
     11 CD3         1.7250    0.6240    4.7980 ca        1 1GB     -0.090500
     12 NB          3.4060   -0.0960    1.2300 ns        1 1GB     -0.557900
     13 CA          3.9960    0.0640   -0.0020 c         1 1GB      0.687500
     14 OA          5.2270   -0.0900   -0.1290 o         1 1GB     -0.642500
     15 NA          1.7140    0.4130   -0.9860 ns        1 1GB     -0.553900
     16 CAA         3.1310    0.3660   -1.2350 c3        1 1GB      0.040700
     17 CBA         3.6830    1.6510   -1.8950 c3        1 1GB     -0.024200
     18 CGA         3.1510    1.8320   -3.2490 cc        1 1GB     -0.163400
     19 CD2         1.9000    2.4660   -3.6180 ca        1 1GB     -0.094800
     20 CE2         0.8600    3.0650   -2.9040 ca        1 1GB     -0.094000
     21 CZ3        -0.2190    3.5870   -3.6000 ca        1 1GB     -0.147000
     22 CH2        -0.2830    3.5280   -5.0040 ca        1 1GB     -0.112000
     23 CZ2         0.7280    2.9470   -5.7530 ca        1 1GB     -0.142000
     24 CE1         1.8280    2.4140   -5.0620 ca        1 1GB     -0.047200
     25 NE1         2.9810    1.7790   -5.5320 na        1 1GB     -0.189400
     26 CD1         3.7730    1.4380   -4.4370 cd        1 1GB     -0.088100
     27 H1          1.5730   -0.6600    2.0380 h1        1 1GB      0.089700
     28 H2          2.3350    2.3620    1.9690 hc        1 1GB      0.072700
     29 H3          0.7710    1.6510    2.5510 hc        1 1GB      0.072700
     30 H4          4.4200    2.0160    3.2230 ha        1 1GB      0.139000
     31 H5          5.4400    1.5980    5.4550 ha        1 1GB      0.145500
     32 H6          5.0370    0.7740    7.5620 ho        1 1GB      0.421000
     33 H7          1.6900   -0.0650    6.8610 ha        1 1GB      0.145500
     34 H8          0.6730    0.3550    4.6100 ha        1 1GB      0.139000
     35 H9          3.9950   -0.2240    2.0240 hn        1 1GB      0.332500
     36 H10         1.1470    0.6730   -1.7670 hn        1 1GB      0.338500
     37 H11         3.3160   -0.4950   -1.9530 h1        1 1GB      0.089700
     38 H12         4.8040    1.5550   -1.9280 hc        1 1GB      0.070700
     39 H13         3.4330    2.5440   -1.2630 hc        1 1GB      0.070700
     40 H14         0.9030    3.1230   -1.8070 ha        1 1GB      0.137000
     41 H15        -1.0460    4.0590   -3.0490 ha        1 1GB      0.135000
     42 H16        -1.1590    3.9540   -5.5170 ha        1 1GB      0.132000
     43 H17         0.6730    2.9060   -6.8490 ha        1 1GB      0.134000
     44 H18         3.2040    1.6250   -6.4780 hn        1 1GB      0.301700
     45 H19         4.7330    0.9350   -4.5760 h4        1 1GB      0.171000
@<TRIPOS>BOND
     1    1    2 2   
     2    2    3 1   
     3    2   15 1   
     4    3    4 1   
     5    3   12 1   
     6    3   27 1   
     7    4    5 1   
     8    4   28 1   
     9    4   29 1   
    10    5    6 ar  
    11    5   11 ar  
    12    6    7 ar  
    13    6   30 1   
    14    7    8 ar  
    15    7   31 1   
    16    8    9 1   
    17    8   10 ar  
    18    9   32 1   
    19   10   11 ar  
    20   10   33 1   
    21   11   34 1   
    22   12   13 1   
    23   12   35 1   
    24   13   14 2   
    25   13   16 1   
    26   15   16 1   
    27   15   36 1   
    28   16   17 1   
    29   16   37 1   
    30   17   18 1   
    31   17   38 1   
    32   17   39 1   
    33   18   19 1   
    34   18   26 2   
    35   19   20 ar  
    36   19   24 ar  
    37   20   21 ar  
    38   20   40 1   
    39   21   22 ar  
    40   21   41 1   
    41   22   23 ar  
    42   22   42 1   
    43   23   24 ar  
    44   23   43 1   
    45   24   25 1   
    46   25   26 1   
    47   25   44 1   
    48   26   45 1   
@<TRIPOS>SUBSTRUCTURE
     1 1GB         1 TEMP              0 ****  ****    0 ROOT
