@<TRIPOS>MOLECULE
1GC
   46    48     1     0     0
SMALL
bcc


@<TRIPOS>ATOM
      1 N1          0.0000    0.0000    0.0000 ns        1 1GC     -0.185400
      2 C2          1.3630    0.0000    0.0000 cc        1 1GC      0.404800
      3 N2          2.0300    0.0020   -1.1990 nz        1 1GC     -0.717600
      4 N3          2.0580    0.0000    1.1160 nd        1 1GC     -0.709100
      5 C4          1.4510   -0.0020    2.3080 cd        1 1GC     -0.071200
      6 C5          0.0530   -0.0020    2.3750 cc        1 1GC      0.121800
      7 C6         -0.6820   -0.0010    1.1670 c         1 1GC      0.543000
      8 O6         -1.9010    0.0030    1.1770 o         1 1GC     -0.778500
      9 N7         -0.2870   -0.0030    3.6870 nc        1 1GC     -0.572000
     10 C8          0.7940   -0.0020    4.4120 cd        1 1GC      0.212400
     11 N9          1.8930   -0.0010    3.6040 na        1 1GC      0.249100
     12 PA          4.7440   -1.9080    9.3900 p5        1 1GC      0.649600
     13 PB          4.6760   -4.2160   11.2710 p5        1 1GC      0.789600
     14 PG          4.5740   -6.8570   12.6120 p5        1 1GC      0.862900
     15 C1'         3.2910   -0.0020    4.0420 c3        1 1GC      0.156800
     16 O1A         6.1110   -1.3960   10.0680 o         1 1GC     -0.649000
     17 O1B         6.0450   -3.7040   11.9480 o         1 1GC     -0.460500
     18 O1G         3.0930   -6.9190   13.2410 o         1 1GC     -0.494500
     19 C2'         3.8180    1.4450    4.1600 c3        1 1GC     -0.109400
     20 O2A         3.5890   -1.3040   10.0920 o         1 1GC     -0.649000
     21 O2B         3.5220   -3.6110   11.9720 o         1 1GC     -0.460500
     22 O2G         4.9950   -8.3200   12.0880 o         1 1GC     -0.494500
     23 C3'         4.7390    1.4090    5.4010 c3        1 1GC      0.150100
     24 O3'         6.0800    1.7440    5.0390 oh        1 1GC     -0.583800
     25 C3A         4.6470   -3.7250    9.5160 c3        1 1GC     -0.016800
     26 O3B         4.5910   -5.8200   11.3810 os        1 1GC     -0.492800
     27 O3G         5.5310   -6.4090   13.6490 o         1 1GC     -0.494500
     28 C4'         4.6590   -0.0550    5.8850 c3        1 1GC      0.148100
     29 O4'         3.3980   -0.5440    5.3780 os        1 1GC     -0.370600
     30 C5'         4.6750   -0.1110    7.4140 c3        1 1GC      0.308400
     31 O5'         4.7170   -1.4740    7.8400 os        1 1GC     -0.502200
     32 HN1        -0.4980    0.0010   -0.8680 hn        1 1GC      0.131500
     33 HN2         1.8360    0.8540   -1.6870 hn        1 1GC      0.168467
     34 HN2A        3.0140   -0.0710   -1.0340 hn        1 1GC      0.168467
     35 H8          0.8170   -0.0030    5.4950 h5        1 1GC      0.034100
     36 H1'         3.9070   -0.5710    3.3570 h2        1 1GC      0.040700
     37 H2'         4.3850    1.7140    3.2770 hc        1 1GC      0.030200
     38 H2'A        2.9980    2.1350    4.3180 hc        1 1GC      0.030200
     39 H3'         4.3670    2.0800    6.1660 h1        1 1GC      0.012700
     40 HO3'        6.2620    2.6330    5.2960 ho        1 1GC      0.373000
     41 H3A         3.7270   -4.0700    9.0590 hc        1 1GC      0.027200
     42 H3AA        5.4930   -4.1670    9.0030 hc        1 1GC      0.027200
     43 H4'         5.4780   -0.6320    5.4730 h1        1 1GC      0.030700
     44 H5'         3.7800    0.3610    7.8020 h1        1 1GC     -0.013800
     45 H5'A        5.5480    0.4110    7.7860 h1        1 1GC     -0.013800
     46 H23         1.7260   -0.7760   -1.7510 hn        1 1GC      0.168467
@<TRIPOS>BOND
     1    1    2 1   
     2    1    7 1   
     3    1   32 1   
     4    2    3 1   
     5    2    4 2   
     6    3   33 1   
     7    3   34 1   
     8    3   46 1   
     9    4    5 1   
    10    5    6 2   
    11    5   11 1   
    12    6    7 1   
    13    6    9 1   
    14    7    8 2   
    15    9   10 2   
    16   10   11 1   
    17   10   35 1   
    18   11   15 1   
    19   12   16 1   
    20   12   20 1   
    21   12   25 1   
    22   12   31 1   
    23   13   17 1   
    24   13   21 1   
    25   13   25 1   
    26   13   26 1   
    27   14   18 1   
    28   14   22 1   
    29   14   26 1   
    30   14   27 1   
    31   15   19 1   
    32   15   29 1   
    33   15   36 1   
    34   19   23 1   
    35   19   37 1   
    36   19   38 1   
    37   23   24 1   
    38   23   28 1   
    39   23   39 1   
    40   24   40 1   
    41   25   41 1   
    42   25   42 1   
    43   28   29 1   
    44   28   30 1   
    45   28   43 1   
    46   30   31 1   
    47   30   44 1   
    48   30   45 1   
@<TRIPOS>SUBSTRUCTURE
     1 1GC         1 TEMP              0 ****  ****    0 ROOT
