@<TRIPOS>MOLECULE
1GD
   37    38     1     0     0
SMALL
bcc


@<TRIPOS>ATOM
      1 C13         3.3530    1.5340   -1.0140 c3        1 1GD     -0.110100
      2 C15         4.1000   -0.8540   -1.1280 ca        1 1GD     -0.126500
      3 C17         6.1480   -1.5730   -0.0680 ca        1 1GD     -0.124000
      4 C20        -1.2390    1.2670    0.1560 ca        1 1GD     -0.146500
      5 C21        -2.4910    0.9810   -0.3780 ca        1 1GD     -0.021500
      6 N1         -4.3640   -1.2720   -2.0680 n3        1 1GD     -1.026700
      7 O3         -5.3390    0.6900   -0.9570 o         1 1GD     -0.658300
      8 O4         -5.3440   -1.4420    0.1790 o         1 1GD     -0.658300
      9 C5         -3.1610   -0.2040   -0.0510 ca        1 1GD     -0.383500
     10 C6         -2.5490   -1.0950    0.8380 ca        1 1GD     -0.021500
     11 C7         -1.2960   -0.8190    1.3790 ca        1 1GD     -0.146500
     12 C8         -0.6340    0.3640    1.0380 ca        1 1GD     -0.056300
     13 C9          0.7060    0.6940    1.6390 c3        1 1GD      0.127300
     14 N10         1.8070    0.6300    0.7200 n         1 1GD     -0.564900
     15 C11         2.2300    1.7240   -0.0070 c         1 1GD      0.660100
     16 O12         1.7090    2.8480    0.1500 o         1 1GD     -0.615100
     17 C14         4.3150    0.4540   -0.6750 ca        1 1GD     -0.094300
     18 C16         5.0130   -1.8620   -0.8260 ca        1 1GD     -0.126000
     19 C18         6.3680   -0.2720    0.3850 ca        1 1GD     -0.126000
     20 C19         5.4570    0.7390    0.0830 ca        1 1GD     -0.126500
     21 H1          2.8690    1.3270   -2.0080 hc        1 1GD      0.084700
     22 H2          3.8890    2.5190   -1.0980 hc        1 1GD      0.084700
     23 H3          3.2110   -1.0840   -1.7360 ha        1 1GD      0.135500
     24 H4          6.8690   -2.3690    0.1700 ha        1 1GD      0.136000
     25 H5         -0.7160    2.2040   -0.1010 ha        1 1GD      0.152000
     26 H6         -2.9780    1.7080   -1.0530 ha        1 1GD      0.153500
     27 H7         -4.2690   -0.7980   -2.9310 hn        1 1GD      0.446800
     28 H8         -4.2660   -2.2510   -2.1570 hn        1 1GD      0.446800
     29 H9         -3.0800   -2.0190    1.1270 ha        1 1GD      0.153500
     30 H10        -0.8340   -1.5300    2.0810 ha        1 1GD      0.152000
     31 H11         0.6520    1.7420    2.0600 h1        1 1GD      0.073200
     32 H12         0.9210   -0.0200    2.4860 h1        1 1GD      0.073200
     33 H13         2.1720   -0.2650    0.4950 hn        1 1GD      0.318500
     34 H14         4.8400   -2.8860   -1.1880 ha        1 1GD      0.136000
     35 H15         7.2630   -0.0410    0.9810 ha        1 1GD      0.136000
     36 H16         5.6350    1.7640    0.4400 ha        1 1GD      0.135500
     37 S02        -4.6930   -0.5340   -0.6840 sy        1 1GD      1.527200
@<TRIPOS>BOND
     1    1   15 1   
     2    1   17 1   
     3    1   21 1   
     4    1   22 1   
     5    2   17 ar  
     6    2   18 ar  
     7    2   23 1   
     8    3   18 ar  
     9    3   19 ar  
    10    3   24 1   
    11    4    5 ar  
    12    4   12 ar  
    13    4   25 1   
    14    5    9 ar  
    15    5   26 1   
    16    6   27 1   
    17    6   28 1   
    18    6   37 1   
    19    7   37 2   
    20    8   37 2   
    21    9   10 ar  
    22    9   37 1   
    23   10   11 ar  
    24   10   29 1   
    25   11   12 ar  
    26   11   30 1   
    27   12   13 1   
    28   13   14 1   
    29   13   31 1   
    30   13   32 1   
    31   14   15 1   
    32   14   33 1   
    33   15   16 2   
    34   17   20 ar  
    35   18   34 1   
    36   19   20 ar  
    37   19   35 1   
    38   20   36 1   
@<TRIPOS>SUBSTRUCTURE
     1 1GD         1 TEMP              0 ****  ****    0 ROOT
