@<TRIPOS>MOLECULE
1GD
   37    37     1     0     0
SMALL
bcc


@<TRIPOS>ATOM
      1 C13         0.1910   -1.2170   -0.0670 c3        1 1GD     -0.147000
      2 C15        -0.6180    1.0720    0.6340 c3        1 1GD     -0.220000
      3 C17        -1.6680   -0.6470    4.4600 c1        1 1GD      0.240000
      4 C20         4.1340   -1.0050   -2.6910 ca        1 1GD     -0.145500
      5 C21         4.5720   -1.1540   -4.0030 ca        1 1GD     -0.021500
      6 N1          4.1290   -0.1890   -7.2270 n3        1 1GD     -0.954000
      7 O3          6.0640   -1.5060   -6.4820 o         1 1GD     -0.936000
      8 O4          6.2690    0.8930   -6.6910 o         1 1GD     -0.936000
      9 C5          4.9220   -0.0400   -4.7760 ca        1 1GD     -0.825000
     10 C6          4.8350    1.2310   -4.1960 ca        1 1GD     -0.021500
     11 C7          4.3980    1.3910   -2.8840 ca        1 1GD     -0.145500
     12 C8          4.0440    0.2710   -2.1260 ca        1 1GD     -0.055000
     13 C9          3.6020    0.4240   -0.6950 c3        1 1GD     -0.004000
     14 N10         2.2010    0.1970   -0.4670 n         1 1GD     -0.373000
     15 C11         1.7010   -1.0640   -0.1830 c2        1 1GD      0.298000
     16 O12         2.4570   -2.0380    0.0020 o         1 1GD     -0.360000
     17 C14        -0.3920   -0.3540    0.9990 c2        1 1GD     -0.148000
     18 C16         0.3550    2.0500    1.0760 c1        1 1GD     -0.056000
     19 C18        -1.2710   -0.1500    3.3040 c2        1 1GD     -0.465000
     20 C19        -0.6940   -0.8800    2.2000 c2        1 1GD     -0.059000
     21 H1         -0.2770   -0.9770   -1.0600 hc        1 1GD      0.118500
     22 H2         -0.0120   -2.3030    0.1470 hc        1 1GD      0.118500
     23 H3         -1.6030    1.4430    1.0630 hc        1 1GD      0.148000
     24 H4          1.0510    1.7440    1.8710 ha        1 1GD      0.055000
     25 H5          3.8650   -1.8870   -2.0840 ha        1 1GD      0.152500
     26 H6          4.6670   -2.1650   -4.4390 ha        1 1GD      0.154000
     27 H7          3.6100   -0.9950   -7.4670 hn        1 1GD      0.242000
     28 H8          3.7450    0.6400   -7.6050 hn        1 1GD      0.242000
     29 H9          5.1370    2.1150   -4.7850 ha        1 1GD      0.154000
     30 H10         4.3420    2.3980   -2.4440 ha        1 1GD      0.152500
     31 H11         3.8380    1.4700   -0.3410 h1        1 1GD      0.117000
     32 H12         4.1890   -0.3080   -0.0640 h1        1 1GD      0.117000
     33 H13         1.5740    0.8840   -0.8140 hn        1 1GD      0.222000
     34 H14        -0.7370    1.1720   -0.4850 hc        1 1GD      0.148000
     35 H15        -1.3880    0.9480    3.1730 ha        1 1GD      0.187000
     36 H16        -0.4920   -1.9500    2.3940 ha        1 1GD      0.139000
     37 S02         5.4780   -0.2280   -6.3620 s6        1 1GD      2.865000
@<TRIPOS>BOND
     1    1   15 1   
     2    1   17 1   
     3    1   21 1   
     4    1   22 1   
     5    2   17 1   
     6    2   18 1   
     7    2   23 1   
     8    2   34 1   
     9    3   19 1   
    10    4    5 1   
    11    4   12 1   
    12    4   25 1   
    13    5    9 1   
    14    5   26 1   
    15    6   27 1   
    16    6   28 1   
    17    6   37 1   
    18    7   37 1   
    19    8   37 1   
    20    9   10 1   
    21    9   37 1   
    22   10   11 1   
    23   10   29 1   
    24   11   12 1   
    25   11   30 1   
    26   12   13 1   
    27   13   14 1   
    28   13   31 1   
    29   13   32 1   
    30   14   15 1   
    31   14   33 1   
    32   15   16 1   
    33   17   20 1   
    34   18   24 1   
    35   19   20 1   
    36   19   35 1   
    37   20   36 1   
@<TRIPOS>SUBSTRUCTURE
     1 1GD         1 TEMP              0 ****  ****    0 ROOT
