@<TRIPOS>MOLECULE
1GD
   39    39     1     0     0
SMALL
bcc


@<TRIPOS>ATOM
      1 C13         0.3100    1.0500    0.1540 c3        1 1GD     -0.143000
      2 C15         0.3030    0.9610    2.6730 c3        1 1GD     -0.091000
      3 C17        -1.6000    0.0340    3.5730 c1        1 1GD      0.250000
      4 C20         5.1180    0.2270   -3.3380 ca        1 1GD     -0.112000
      5 C21         5.6280    0.2210   -4.6290 ca        1 1GD      0.005000
      6 N1          5.9480   -1.7320   -7.4810 n4        1 1GD     -0.514000
      7 O3          6.5810    0.7220   -7.3490 o         1 1GD     -0.832000
      8 O4          4.3980    0.1390   -8.2190 o         1 1GD     -0.832000
      9 C5          4.8030   -0.0500   -5.7410 ca        1 1GD     -0.963000
     10 C6          3.4390   -0.3160   -5.4980 ca        1 1GD      0.005000
     11 C7          2.9180   -0.3060   -4.2090 ca        1 1GD     -0.112000
     12 C8          3.7540   -0.0280   -3.1190 ca        1 1GD      0.035000
     13 C9          3.2540    0.0030   -1.7290 c2        1 1GD      0.043000
     14 N10         2.0130    0.2140   -1.4460 n2        1 1GD     -0.222000
     15 C11         1.5680    0.2360   -0.0880 c2        1 1GD      0.268000
     16 O12         2.1510   -0.3790    0.8180 o         1 1GD     -0.305000
     17 C14        -0.4150    0.6430    1.3950 c2        1 1GD     -0.101000
     18 C16        -0.4810    0.5600    3.9360 c2        1 1GD     -0.115000
     19 C18        -2.4710   -0.3590    2.5230 c3        1 1GD     -0.119000
     20 C19        -1.6260    0.0610    1.3150 c2        1 1GD     -0.142000
     21 H1          0.6170    2.1320    0.2360 hc        1 1GD      0.151000
     22 H2         -0.3740    0.9680   -0.7370 hc        1 1GD      0.151000
     23 H3          0.5030    2.0660    2.7510 hc        1 1GD      0.182500
     24 H4         -0.0240    0.7530    4.9200 ha        1 1GD      0.265000
     25 H5          5.7870    0.4470   -2.4870 ha        1 1GD      0.183500
     26 H6          6.6990    0.4580   -4.7890 ha        1 1GD      0.178500
     27 H7          6.9490   -1.7600   -7.6830 hn        1 1GD      0.257000
     28 H8          5.4650   -2.1580   -8.2730 hn        1 1GD      0.257000
     29 H9          2.7620   -0.5100   -6.3530 ha        1 1GD      0.178500
     30 H10         1.8430   -0.5070   -4.0530 ha        1 1GD      0.183500
     31 H11         4.4700   -0.6890    1.5930 ha        1 1GD      0.001500
     32 H12         4.0450   -0.1530   -0.9530 h4        1 1GD      0.156000
     33 H13         4.6190   -0.1800    1.1710 ha        1 1GD      0.001500
     34 H14         1.2870    0.4030    2.7100 hc        1 1GD      0.182500
     35 H15        -2.6780   -1.4680    2.4830 hc        1 1GD      0.193000
     36 H16        -3.4610    0.1840    2.5140 hc        1 1GD      0.193000
     37 H131        5.7810   -2.3150   -6.6670 hn        1 1GD      0.257000
     38 H102       -2.1340   -0.1700    0.3630 ha        1 1GD      0.203000
     39 S02         5.3710    0.0740   -7.2470 s6        1 1GD      2.819000
@<TRIPOS>BOND
     1    1   15 1   
     2    1   17 1   
     3    1   21 1   
     4    1   22 1   
     5    2   17 1   
     6    2   18 1   
     7    2   23 1   
     8    2   34 1   
     9    3   18 1   
    10    3   19 1   
    11    4    5 1   
    12    4   12 1   
    13    4   25 1   
    14    5    9 1   
    15    5   26 1   
    16    6   27 1   
    17    6   28 1   
    18    6   37 1   
    19    6   39 1   
    20    7   39 1   
    21    8   39 1   
    22    9   10 1   
    23    9   39 1   
    24   10   11 1   
    25   10   29 1   
    26   11   12 1   
    27   11   30 1   
    28   12   13 1   
    29   13   14 1   
    30   13   32 1   
    31   14   15 1   
    32   15   16 1   
    33   17   20 1   
    34   18   24 1   
    35   19   20 1   
    36   19   35 1   
    37   19   36 1   
    38   20   38 1   
    39   31   33 1   
@<TRIPOS>SUBSTRUCTURE
     1 1GD         1 TEMP              0 ****  ****    0 ROOT
