@<TRIPOS>MOLECULE
1GD
   37    30     1     0     0
SMALL
bcc


@<TRIPOS>ATOM
      1 C13        -2.6540    0.3350    1.5870 c3        1 1GD     -0.146000
      2 C15        -3.1390    0.8250    4.0560 c1        1 1GD     -0.110833
      3 C17        -3.1430    3.0540    4.9470 c1        1 1GD     -0.110833
      4 C20         2.4480   -1.2380   -0.9110 c1        1 1GD     -0.110833
      5 C21         3.3250   -1.1540   -2.0080 c1        1 1GD     -0.110833
      6 N1          3.9340    0.0220   -5.5260 n3        1 1GD     -0.953000
      7 S02         3.9780   -1.3950   -4.6810 s4        1 1GD      2.082800
      8 O3          3.7100   -2.5180   -5.5380 o         1 1GD     -0.545900
      9 O4          5.3380   -1.7000   -4.2270 o         1 1GD     -0.545900
     10 C5          2.8380   -1.3320   -3.3140 c1        1 1GD     -0.438500
     11 C6          1.4810   -1.5940   -3.5230 c1        1 1GD     -0.081000
     12 C7          0.6040   -1.6780   -2.4300 c1        1 1GD     -0.081000
     13 C8          1.0930   -1.4990   -1.1210 c1        1 1GD     -0.438500
     14 C9          0.1660   -1.7140    0.0710 c2        1 1GD      0.004000
     15 N10        -0.5620   -0.4870    0.3370 n         1 1GD     -0.374000
     16 C11        -1.3070   -0.3320    1.5910 c2        1 1GD      0.304000
     17 O12        -0.8140   -0.6560    2.6160 o         1 1GD     -0.376000
     18 C14        -2.7550    1.3110    2.8210 c1        1 1GD     -0.087000
     19 C16        -3.3340    1.7030    5.1240 c1        1 1GD     -0.110833
     20 C18        -2.7590    3.5420    3.7150 c1        1 1GD     -0.110833
     21 C19        -2.5640    2.6620    2.6450 c1        1 1GD     -0.138000
     22 H1         -3.3680   -0.3600    1.6510 hc        1 1GD      0.124000
     23 H2         -2.7620    0.8250    0.7870 hc        1 1GD      0.124000
     24 H3         -3.2710   -0.1140    4.1790 ha        1 1GD      0.140000
     25 H4         -3.2780    3.6610    5.6870 ha        1 1GD      0.140000
     26 H5          2.7960   -1.1100    0.0200 ha        1 1GD      0.140000
     27 H6          4.2900   -0.9660   -1.8590 ha        1 1GD      0.140000
     28 H7          4.3840    0.7460   -5.2200 hn        1 1GD      0.242000
     29 H8          3.4190    0.0870   -6.2870 hn        1 1GD      0.242000
     30 H9          1.1400   -1.7200   -4.4400 ha        1 1GD      0.159500
     31 H10        -0.3420   -1.8600   -2.5770 ha        1 1GD      0.159500
     32 H11        -0.4380   -2.3990   -0.1220 h4        1 1GD      0.112500
     33 H12         0.6920   -1.9580    0.8520 h4        1 1GD      0.112500
     34 H13        -0.6140    0.1460   -0.2950 hn        1 1GD      0.232000
     35 H14        -3.6110    1.3530    6.0100 ha        1 1GD      0.140000
     36 H15        -2.6230    4.5110    3.5880 ha        1 1GD      0.140000
     37 H16        -2.2980    2.9990    1.7920 ha        1 1GD      0.131000
@<TRIPOS>BOND
     1    1   16 1   
     2    1   18 1   
     3    1   22 1   
     4    1   23 1   
     5    2   19 1   
     6    2   24 1   
     7    3   20 1   
     8    3   25 1   
     9    4    5 1   
    10    4   26 1   
    11    5   27 1   
    12    6    7 1   
    13    6   28 1   
    14    6   29 1   
    15    7    8 1   
    16    7    9 1   
    17   10   11 1   
    18   11   30 1   
    19   12   13 1   
    20   12   31 1   
    21   14   15 1   
    22   14   32 1   
    23   14   33 1   
    24   15   16 1   
    25   15   34 1   
    26   16   17 1   
    27   18   21 1   
    28   19   35 1   
    29   20   36 1   
    30   21   37 1   
@<TRIPOS>SUBSTRUCTURE
     1 1GD         1 TEMP              0 ****  ****    0 ROOT
