@<TRIPOS>MOLECULE
1GE
   65    70     1     0     0
SMALL
bcc


@<TRIPOS>ATOM
      1 C1         -0.0890   -0.5030   -0.1620 ca        1 1GE     -0.378900
      2 C2          1.2930   -0.7320   -0.0840 ca        1 1GE     -0.047000
      3 C3          1.9300   -0.7130    1.1370 ca        1 1GE     -0.225000
      4 C4          1.2010   -0.4550    2.3400 ca        1 1GE      0.262600
      5 C5         -0.2230   -0.3030    2.2570 ca        1 1GE     -0.121300
      6 C6         -0.8320   -0.3110    1.0140 ca        1 1GE     -0.033000
      7 C10        -0.7730   -0.4860   -1.4550 ce        1 1GE      0.627800
      8 N11        -1.6230   -1.2590   -2.0100 n2        1 1GE     -0.744100
      9 N12        -0.3640    0.7420   -2.2480 n4        1 1GE     -0.834600
     10 N13         1.8490   -0.3900    3.5400 nh        1 1GE     -0.707600
     11 C14         1.2230    0.2230    4.6960 c3        1 1GE      0.259800
     12 C15        -0.2670   -0.1210    4.8140 c3        1 1GE     -0.062700
     13 C16        -1.0610   -0.1380    3.4850 c3        1 1GE      0.035900
     14 C17        -0.4840   -1.4950    5.4810 c3        1 1GE     -0.044100
     15 C18        -1.6800   -2.0580    4.7940 ca        1 1GE     -0.062300
     16 C19        -2.0260   -1.2830    3.6620 ca        1 1GE     -0.102300
     17 C24        -2.4380   -3.1600    5.1570 ca        1 1GE     -0.106000
     18 C25        -3.5620   -3.4870    4.3870 ca        1 1GE     -0.117000
     19 C26        -3.9170   -2.7120    3.2870 ca        1 1GE     -0.141000
     20 C27        -3.1520   -1.5980    2.9190 ca        1 1GE     -0.127000
     21 C32         1.4250    1.7230    4.7870 ca        1 1GE     -0.132300
     22 C34         1.4980    2.3120    6.0660 cp        1 1GE      0.035000
     23 C35         1.6670    3.6940    6.1780 ca        1 1GE     -0.171000
     24 C36         1.7630    4.4980    5.0350 ca        1 1GE      0.081100
     25 C37         1.6970    3.9090    3.7580 ca        1 1GE      0.078100
     26 C38         1.5270    2.5220    3.6500 ca        1 1GE     -0.131000
     27 C41         1.3790    1.4950    7.2770 cp        1 1GE     -0.125000
     28 C42         2.4840    0.7810    7.7610 ca        1 1GE     -0.149000
     29 C43         2.3380   -0.0700    8.8530 ca        1 1GE     -0.110500
     30 C44         1.0930   -0.2240    9.4710 ca        1 1GE     -0.110600
     31 C45         0.0050    0.5290    9.0170 ca        1 1GE     -0.110500
     32 C46         0.1440    1.3870    7.9290 ca        1 1GE     -0.149000
     33 C51         0.9140   -1.2310   10.6050 c         1 1GE      0.906200
     34 O52        -0.2520   -1.3900   11.0580 o         1 1GE     -0.814300
     35 O53         1.9400   -1.8510   10.9960 o         1 1GE     -0.814300
     36 O54         1.7150    4.5940    2.5550 os        1 1GE     -0.346900
     37 C55         2.4690    5.8040    2.5360 c3        1 1GE      0.123700
     38 O59         1.9320    5.8640    5.1170 oh        1 1GE     -0.508100
     39 H1          1.8740   -0.9410   -0.9960 ha        1 1GE      0.122000
     40 H2          3.0140   -0.9000    1.1890 ha        1 1GE      0.153000
     41 H3         -1.9240   -0.1680    0.9500 ha        1 1GE      0.141000
     42 H4         -1.8950   -2.0810   -1.5090 hn        1 1GE      0.484400
     43 H5          0.6590    0.7600   -2.2850 hn        1 1GE      0.460800
     44 H6         -0.6920    1.5660   -1.7350 hn        1 1GE      0.460800
     45 H7          2.8460   -0.3950    3.5350 hn        1 1GE      0.442800
     46 H8          1.7470   -0.2390    5.6000 h1        1 1GE      0.119700
     47 H9         -0.7270    0.6610    5.4840 hc        1 1GE      0.095700
     48 H10        -1.6320    0.8280    3.3870 hc        1 1GE      0.072700
     49 H11         0.4010   -2.1660    5.3430 hc        1 1GE      0.085200
     50 H12        -0.6520   -1.3750    6.5830 hc        1 1GE      0.085200
     51 H13        -2.1720   -3.7570    6.0430 ha        1 1GE      0.156000
     52 H14        -4.1740   -4.3580    4.6670 ha        1 1GE      0.137000
     53 H15        -4.8150   -2.9680    2.7050 ha        1 1GE      0.127000
     54 H16        -3.4660   -0.9810    2.0670 ha        1 1GE      0.111000
     55 H17         1.7200    4.1520    7.1780 ha        1 1GE      0.156000
     56 H18         1.4580    2.0930    2.6390 ha        1 1GE      0.129000
     57 H19         3.4630    0.8950    7.2750 ha        1 1GE      0.112000
     58 H20         3.1900   -0.6470    9.2500 ha        1 1GE      0.163000
     59 H21        -0.9610    0.4140    9.5380 ha        1 1GE      0.163000
     60 H22        -0.7160    1.9720    7.5730 ha        1 1GE      0.112000
     61 H24         2.6430    5.9920    1.4470 h1        1 1GE      0.045700
     62 H25         1.8650    6.6280    2.9900 h1        1 1GE      0.045700
     63 H26         3.4350    5.6900    3.0820 h1        1 1GE      0.045700
     64 H27         1.9690    6.1010    6.0560 ho        1 1GE      0.428000
     65 H123       -0.7500    0.7500   -3.1970 hn        1 1GE      0.460800
@<TRIPOS>BOND
     1    1    2 ar  
     2    1    6 ar  
     3    1    7 1   
     4    2    3 ar  
     5    2   39 1   
     6    3    4 ar  
     7    3   40 1   
     8    4    5 ar  
     9    4   10 1   
    10    5    6 ar  
    11    5   13 1   
    12    6   41 1   
    13    7    8 2   
    14    7    9 1   
    15    8   42 1   
    16    9   43 1   
    17    9   44 1   
    18    9   65 1   
    19   10   11 1   
    20   10   45 1   
    21   11   12 1   
    22   11   21 1   
    23   11   46 1   
    24   12   13 1   
    25   12   14 1   
    26   12   47 1   
    27   13   16 1   
    28   13   48 1   
    29   14   15 1   
    30   14   49 1   
    31   14   50 1   
    32   15   16 ar  
    33   15   17 ar  
    34   16   20 ar  
    35   17   18 ar  
    36   17   51 1   
    37   18   19 ar  
    38   18   52 1   
    39   19   20 ar  
    40   19   53 1   
    41   20   54 1   
    42   21   22 ar  
    43   21   26 ar  
    44   22   23 ar  
    45   22   27 1   
    46   23   24 ar  
    47   23   55 1   
    48   24   25 ar  
    49   24   38 1   
    50   25   26 ar  
    51   25   36 1   
    52   26   56 1   
    53   27   28 ar  
    54   27   32 ar  
    55   28   29 ar  
    56   28   57 1   
    57   29   30 ar  
    58   29   58 1   
    59   30   31 ar  
    60   30   33 1   
    61   31   32 ar  
    62   31   59 1   
    63   32   60 1   
    64   33   34 1   
    65   33   35 1   
    66   36   37 1   
    67   37   61 1   
    68   37   62 1   
    69   37   63 1   
    70   38   64 1   
@<TRIPOS>SUBSTRUCTURE
     1 1GE         1 TEMP              0 ****  ****    0 ROOT
