@<TRIPOS>MOLECULE
1GE
   65    70     1     0     0
SMALL
bcc


@<TRIPOS>ATOM
      1 C1         -0.0990   -0.5350   -0.1560 ca        1 1GE     -0.378900
      2 C2          1.2810   -0.7750   -0.0760 ca        1 1GE     -0.047000
      3 C3          1.9180   -0.7580    1.1450 ca        1 1GE     -0.225000
      4 C4          1.1900   -0.4910    2.3470 ca        1 1GE      0.262600
      5 C5         -0.2330   -0.3280    2.2630 ca        1 1GE     -0.121300
      6 C6         -0.8410   -0.3340    1.0200 ca        1 1GE     -0.033000
      7 C10        -0.7820   -0.5140   -1.4490 ce        1 1GE      0.627800
      8 N11        -1.6380   -1.2820   -2.0030 n2        1 1GE     -0.744100
      9 N12        -0.3630    0.7100   -2.2440 n4        1 1GE     -0.834600
     10 N13         1.8380   -0.4270    3.5470 nh        1 1GE     -0.707600
     11 C14         1.2160    0.1940    4.7010 c3        1 1GE      0.259800
     12 C15        -0.2770   -0.1380    4.8200 c3        1 1GE     -0.062700
     13 C16        -1.0700   -0.1540    3.4900 c3        1 1GE      0.035900
     14 C17        -0.5040   -1.5070    5.4920 c3        1 1GE     -0.044100
     15 C18        -1.7020   -2.0650    4.8050 ca        1 1GE     -0.062300
     16 C19        -2.0420   -1.2930    3.6700 ca        1 1GE     -0.102300
     17 C24        -2.4680   -3.1610    5.1720 ca        1 1GE     -0.106000
     18 C25        -3.5920   -3.4850    4.4020 ca        1 1GE     -0.117000
     19 C26        -3.9420   -2.7120    3.2970 ca        1 1GE     -0.141000
     20 C27        -3.1690   -1.6030    2.9270 ca        1 1GE     -0.126000
     21 C32         1.4290    1.6940    4.7860 ca        1 1GE     -0.132300
     22 C34         1.5040    2.2880    6.0620 cp        1 1GE      0.035000
     23 C35         1.6830    3.6690    6.1690 ca        1 1GE     -0.171000
     24 C36         1.7880    4.4680    5.0230 ca        1 1GE      0.081100
     25 C37         1.7200    3.8730    3.7480 ca        1 1GE      0.078100
     26 C38         1.5400    2.4860    3.6450 ca        1 1GE     -0.131000
     27 C41         1.3760    1.4770    7.2760 cp        1 1GE     -0.125000
     28 C42         2.4740    0.7560    7.7650 ca        1 1GE     -0.149000
     29 C43         2.3180   -0.0900    8.8600 ca        1 1GE     -0.110500
     30 C44         1.0710   -0.2300    9.4770 ca        1 1GE     -0.110600
     31 C45        -0.0090    0.5300    9.0190 ca        1 1GE     -0.110500
     32 C46         0.1390    1.3820    7.9270 ca        1 1GE     -0.149000
     33 C51         0.8820   -1.2310   10.6150 c         1 1GE      0.906200
     34 O52        -0.2860   -1.3770   11.0680 o         1 1GE     -0.814300
     35 O53         1.9010   -1.8590   11.0100 o         1 1GE     -0.814300
     36 O54         1.7460    4.5530    2.5420 os        1 1GE     -0.346900
     37 C55         2.5100    5.7560    2.5200 c3        1 1GE      0.123700
     38 O59         1.9660    5.8320    5.0990 oh        1 1GE     -0.508100
     39 H1          1.8610   -0.9910   -0.9870 ha        1 1GE      0.122000
     40 H2          3.0010   -0.9540    1.1980 ha        1 1GE      0.153000
     41 H3         -1.9310   -0.1820    0.9550 ha        1 1GE      0.141000
     42 H4         -1.9160   -2.1000   -1.5010 hn        1 1GE      0.484400
     43 H5          0.6610    0.7200   -2.2810 hn        1 1GE      0.460800
     44 H6         -0.7490    0.7190   -3.1920 hn        1 1GE      0.460800
     45 H7          2.8350   -0.4410    3.5430 hn        1 1GE      0.442800
     46 H8          1.7360   -0.2670    5.6070 h1        1 1GE      0.119700
     47 H9         -0.7310    0.6500    5.4860 hc        1 1GE      0.095700
     48 H10        -1.6350    0.8160    3.3890 hc        1 1GE      0.072700
     49 H11         0.3770   -2.1850    5.3580 hc        1 1GE      0.085200
     50 H12        -0.6730   -1.3820    6.5930 hc        1 1GE      0.085200
     51 H13        -2.2070   -3.7570    6.0600 ha        1 1GE      0.156000
     52 H14        -4.2100   -4.3500    4.6830 ha        1 1GE      0.137000
     53 H15        -4.8400   -2.9640    2.7150 ha        1 1GE      0.127000
     54 H16        -3.4780   -0.9880    2.0710 ha        1 1GE      0.111000
     55 H17         1.7370    4.1300    7.1670 ha        1 1GE      0.156000
     56 H18         1.4710    2.0540    2.6360 ha        1 1GE      0.129000
     57 H19         3.4550    0.8590    7.2800 ha        1 1GE      0.112000
     58 H20         3.1650   -0.6720    9.2610 ha        1 1GE      0.163000
     59 H21        -0.9770    0.4270    9.5390 ha        1 1GE      0.163000
     60 H22        -0.7150    1.9740    7.5670 ha        1 1GE      0.112000
     61 H24         1.9120    6.5880    2.9680 h1        1 1GE      0.045700
     62 H25         2.6890    5.9380    1.4300 h1        1 1GE      0.045700
     63 H26         3.4740    5.6360    3.0680 h1        1 1GE      0.045700
     64 H27         2.0030    6.0730    6.0370 ho        1 1GE      0.428000
     65 H123       -0.6840    1.5370   -1.7310 hn        1 1GE      0.460800
@<TRIPOS>BOND
     1    1    2 ar  
     2    1    6 ar  
     3    1    7 1   
     4    2    3 ar  
     5    2   39 1   
     6    3    4 ar  
     7    3   40 1   
     8    4    5 ar  
     9    4   10 1   
    10    5    6 ar  
    11    5   13 1   
    12    6   41 1   
    13    7    8 2   
    14    7    9 1   
    15    8   42 1   
    16    9   43 1   
    17    9   44 1   
    18    9   65 1   
    19   10   11 1   
    20   10   45 1   
    21   11   12 1   
    22   11   21 1   
    23   11   46 1   
    24   12   13 1   
    25   12   14 1   
    26   12   47 1   
    27   13   16 1   
    28   13   48 1   
    29   14   15 1   
    30   14   49 1   
    31   14   50 1   
    32   15   16 ar  
    33   15   17 ar  
    34   16   20 ar  
    35   17   18 ar  
    36   17   51 1   
    37   18   19 ar  
    38   18   52 1   
    39   19   20 ar  
    40   19   53 1   
    41   20   54 1   
    42   21   22 ar  
    43   21   26 ar  
    44   22   23 ar  
    45   22   27 1   
    46   23   24 ar  
    47   23   55 1   
    48   24   25 ar  
    49   24   38 1   
    50   25   26 ar  
    51   25   36 1   
    52   26   56 1   
    53   27   28 ar  
    54   27   32 ar  
    55   28   29 ar  
    56   28   57 1   
    57   29   30 ar  
    58   29   58 1   
    59   30   31 ar  
    60   30   33 1   
    61   31   32 ar  
    62   31   59 1   
    63   32   60 1   
    64   33   34 1   
    65   33   35 1   
    66   36   37 1   
    67   37   61 1   
    68   37   62 1   
    69   37   63 1   
    70   38   64 1   
@<TRIPOS>SUBSTRUCTURE
     1 1GE         1 TEMP              0 ****  ****    0 ROOT
