@<TRIPOS>MOLECULE
1GE
   64    54     1     0     0
SMALL
bcc


@<TRIPOS>ATOM
      1 C1         -1.1150    1.3770   -4.3640 c1        1 1GE     -0.175000
      2 C2          0.3010    1.5250   -4.3210 c1        1 1GE     -0.130250
      3 C3          0.9850    1.5000   -3.0680 c1        1 1GE     -0.130250
      4 C4          0.2810    1.3350   -1.9090 c1        1 1GE      0.105000
      5 C5         -1.2050    1.1800   -1.9550 c1        1 1GE     -0.135000
      6 C6         -1.8540    1.2040   -3.1520 c2        1 1GE     -0.062000
      7 C10        -1.6790    0.8020   -5.6900 c2        1 1GE      0.122000
      8 N11        -1.6260   -0.5140   -5.9240 n1        1 1GE     -0.318000
      9 N12        -2.2570    1.6700   -6.6510 n3        1 1GE     -0.333000
     10 N13         0.9550    1.0950   -0.6910 n2        1 1GE     -0.270000
     11 C14         0.2810    0.6100    0.3010 c3        1 1GE      0.049000
     12 C15        -1.1400    1.1730    0.5500 c3        1 1GE     -0.099000
     13 C16        -2.0600    1.1690   -0.5420 c2        1 1GE     -0.013000
     14 C17        -1.7870    0.3140    1.6440 c3        1 1GE     -0.125000
     15 C18        -2.8530   -0.5420    0.9650 c2        1 1GE     -0.082000
     16 C19        -2.9260   -0.1130   -0.4170 c2        1 1GE     -0.069000
     17 C24        -3.7220   -1.5200    1.4330 c1        1 1GE     -0.121000
     18 C25        -4.6670   -2.0890    0.5700 c1        1 1GE     -0.130250
     19 C26        -4.7400   -1.6710   -0.7810 c1        1 1GE     -0.130250
     20 C27        -3.8640   -0.6810   -1.2640 c1        1 1GE     -0.109000
     21 C32         1.1710    0.8560    1.6760 c1        1 1GE     -0.091000
     22 C34         2.1190   -0.0820    2.0650 c1        1 1GE     -0.030000
     23 C35         2.8900    0.1350    3.2090 c1        1 1GE     -0.149500
     24 C36         2.7120    1.2770    3.9500 c1        1 1GE      0.049000
     25 C37         1.7590    2.2230    3.5610 c1        1 1GE      0.008000
     26 C38         0.9910    2.0050    2.4190 c2        1 1GE     -0.103000
     27 C41         2.3000   -1.3500    1.2540 c1        1 1GE     -0.118000
     28 C42         3.3210   -1.4230    0.2890 c2        1 1GE     -0.157000
     29 C43         3.5780   -2.6220   -0.3570 c1        1 1GE     -0.113000
     30 C44         2.8290   -3.7480   -0.0540 c1        1 1GE     -0.030000
     31 C45         1.8140   -3.6750    0.9050 c1        1 1GE     -0.149500
     32 C46         1.5530   -2.4740    1.5560 c1        1 1GE     -0.140000
     33 C51         3.0730   -5.0610   -0.8130 c1        1 1GE      0.356000
     34 O52         2.5850   -5.2260   -1.9330 o         1 1GE     -0.558000
     35 O53         3.7460   -5.9580   -0.2940 o         1 1GE     -0.558000
     36 O54         1.7050    3.4810    4.2220 o         1 1GE     -0.216000
     37 C55         1.0470    3.4400    5.4920 c3        1 1GE     -0.074000
     38 O59         3.5300    1.5180    5.1090 o         1 1GE     -0.257000
     39 H1          0.9330    1.6550   -5.0580 ha        1 1GE      0.134750
     40 H2          1.7540    2.0950   -3.3390 ha        1 1GE      0.134750
     41 H3         -2.4370    0.4820   -3.2330 ha        1 1GE      0.137000
     42 H4         -1.2580   -1.0750   -5.3070 DU        1 1GE      0.156000
     43 H5         -1.6870    2.2250   -7.2160 hn        1 1GE      0.184000
     44 H6         -3.1860    1.6960   -6.7550 hn        1 1GE      0.184000
     45 H7          1.6440    0.6030   -0.8380 hn        1 1GE      0.224000
     46 H8          0.2010   -0.3510    0.1630 h1        1 1GE      0.104000
     47 H9         -1.0520    2.0990    0.8840 hc        1 1GE      0.104000
     48 H10        -2.6290    1.9520   -0.4980 ha        1 1GE      0.099000
     49 H11        -1.0910   -0.2810    2.0740 hc        1 1GE      0.097500
     50 H12        -2.2240    0.9190    2.3580 hc        1 1GE      0.097500
     51 H13        -3.6760   -1.8130    2.3730 ha        1 1GE      0.128000
     52 H14        -5.2800   -2.7800    0.9030 ha        1 1GE      0.134750
     53 H15        -5.4010   -2.0710   -1.3790 ha        1 1GE      0.134750
     54 H16        -3.9210   -0.3880   -2.2180 ha        1 1GE      0.142000
     55 H17         3.5600   -0.5290    3.4830 ha        1 1GE      0.153000
     56 H18         0.3750    2.7100    2.0960 ha        1 1GE      0.146000
     57 H19         3.8910   -0.6270    0.1050 ha        1 1GE      0.115000
     58 H20         4.3290   -2.6830   -1.0130 ha        1 1GE      0.158000
     59 H21         1.2700   -4.4340    1.0780 ha        1 1GE      0.153000
     60 H22         0.7530   -2.3960    2.1500 ha        1 1GE      0.115000
     61 H24         1.6700    3.7150    6.1870 h1        1 1GE      0.078333
     62 H25         0.2910    4.0390    5.4820 h1        1 1GE      0.078333
     63 H26         0.7320    2.5120    5.6760 h1        1 1GE      0.078333
     64 H27         4.4070    1.5870    4.8540 ho        1 1GE      0.218000
@<TRIPOS>BOND
     1    1    6 1   
     2    1    7 1   
     3    2    3 1   
     4    2   39 1   
     5    3   40 1   
     6    4    5 1   
     7    5    6 1   
     8    6   41 1   
     9    7    8 1   
    10    7    9 1   
    11    9   43 1   
    12    9   44 1   
    13   10   11 1   
    14   10   45 1   
    15   11   12 1   
    16   11   21 1   
    17   11   46 1   
    18   12   13 1   
    19   12   14 1   
    20   12   47 1   
    21   13   16 1   
    22   13   48 1   
    23   14   15 1   
    24   14   49 1   
    25   14   50 1   
    26   15   16 1   
    27   15   17 1   
    28   16   20 1   
    29   17   51 1   
    30   18   19 1   
    31   18   52 1   
    32   19   53 1   
    33   20   54 1   
    34   21   26 1   
    35   22   23 1   
    36   23   55 1   
    37   24   25 1   
    38   25   26 1   
    39   26   56 1   
    40   27   28 1   
    41   27   32 1   
    42   28   29 1   
    43   28   57 1   
    44   29   58 1   
    45   30   31 1   
    46   31   59 1   
    47   32   60 1   
    48   33   34 1   
    49   33   35 1   
    50   36   37 1   
    51   37   61 1   
    52   37   62 1   
    53   37   63 1   
    54   38   64 1   
@<TRIPOS>SUBSTRUCTURE
     1 1GE         1 TEMP              0 ****  ****    0 ROOT
