@<TRIPOS>MOLECULE
1GE
   65    70     1     0     0
SMALL
bcc


@<TRIPOS>ATOM
      1 C1         -0.0940   -0.3360   -0.1410 ca        1 1GE     -0.372900
      2 C2          1.2620   -0.6890   -0.0810 ca        1 1GE     -0.025000
      3 C3          1.9000   -0.7850    1.1390 ca        1 1GE     -0.229000
      4 C4          1.1940   -0.5290    2.3540 ca        1 1GE      0.263600
      5 C5         -0.2230   -0.3060    2.2860 ca        1 1GE     -0.116300
      6 C6         -0.8280   -0.1840    1.0490 ca        1 1GE     -0.058000
      7 C10        -0.7370   -0.1410   -1.4400 ce        1 1GE      0.628800
      8 N11        -0.9020   -0.8940   -2.4590 n2        1 1GE     -0.752100
      9 N12        -1.2770    1.2720   -1.5580 nz        1 1GE     -0.832600
     10 N13         1.8460   -0.5130    3.5540 nu        1 1GE     -0.708600
     11 C14         1.2460    0.1400    4.7040 c3        1 1GE      0.260800
     12 C15        -0.2470   -0.1890    4.8490 c3        1 1GE     -0.061700
     13 C16        -1.0530   -0.2160    3.5260 c3        1 1GE      0.035900
     14 C17        -0.4640   -1.5510    5.5390 c3        1 1GE     -0.044100
     15 C18        -1.6180   -2.1610    4.8230 ca        1 1GE     -0.060300
     16 C19        -1.9610   -1.4090    3.6760 ca        1 1GE     -0.103300
     17 C24        -2.3380   -3.2950    5.1690 ca        1 1GE     -0.106000
     18 C25        -3.4160   -3.6790    4.3620 ca        1 1GE     -0.116000
     19 C26        -3.7630   -2.9330    3.2380 ca        1 1GE     -0.139000
     20 C27        -3.0380   -1.7870    2.8900 ca        1 1GE     -0.123000
     21 C32         1.4550    1.6420    4.7490 ca        1 1GE     -0.143300
     22 C34         1.4780    2.2770    6.0090 cp        1 1GE      0.050000
     23 C35         1.6330    3.6640    6.0820 ca        1 1GE     -0.184000
     24 C36         1.7650    4.4290    4.9160 ca        1 1GE      0.105100
     25 C37         1.7550    3.7940    3.6590 ca        1 1GE      0.055100
     26 C38         1.6030    2.4040    3.5910 ca        1 1GE     -0.120000
     27 C41         1.3180    1.5050    7.2440 cp        1 1GE     -0.129000
     28 C42         2.3910    0.7680    7.7650 ca        1 1GE     -0.148500
     29 C43         2.2030   -0.0340    8.8870 ca        1 1GE     -0.110000
     30 C44         0.9480   -0.1150    9.5000 ca        1 1GE     -0.109600
     31 C45        -0.1060    0.6620    9.0080 ca        1 1GE     -0.110000
     32 C46         0.0750    1.4710    7.8900 ca        1 1GE     -0.148500
     33 C51         0.7210   -1.0690   10.6710 c         1 1GE      0.906200
     34 O52        -0.4510   -1.1510   11.1300 o         1 1GE     -0.813300
     35 O53         1.7150   -1.7260   11.0830 o         1 1GE     -0.813300
     36 O54         1.7780    4.4820    2.4550 os        1 1GE     -0.347900
     37 C55         2.9370    5.2930    2.2630 c3        1 1GE      0.114700
     38 O59         1.9170    5.7960    4.9460 oh        1 1GE     -0.499100
     39 H1          1.8280   -0.8720   -1.0080 ha        1 1GE      0.135000
     40 H2          2.9670   -1.0530    1.1750 ha        1 1GE      0.155000
     41 H3         -1.9130    0.0050    1.0070 ha        1 1GE      0.126000
     42 H4         -0.5750   -1.8350   -2.3920 hn        1 1GE      0.480400
     43 H5         -1.8840    1.4440   -0.7500 hn        1 1GE      0.462467
     44 H6         -0.4810    1.9150   -1.5160 hn        1 1GE      0.462467
     45 H7          2.8400   -0.5750    3.5500 hn        1 1GE      0.443800
     46 H8          1.7780   -0.2980    5.6130 h1        1 1GE      0.118700
     47 H9         -0.6900    0.6080    5.5130 hc        1 1GE      0.096700
     48 H10        -1.6740    0.7220    3.4620 hc        1 1GE      0.066700
     49 H11        -0.6780   -1.4080    6.6300 hc        1 1GE      0.085700
     50 H12         0.4410   -2.2060    5.4550 hc        1 1GE      0.085700
     51 H13        -2.0750   -3.8740    6.0670 ha        1 1GE      0.156000
     52 H14        -3.9970   -4.5750    4.6260 ha        1 1GE      0.138000
     53 H15        -4.6200   -3.2400    2.6210 ha        1 1GE      0.127000
     54 H16        -3.3350   -1.2010    2.0100 ha        1 1GE      0.106000
     55 H17         1.6450    4.1540    7.0680 ha        1 1GE      0.157000
     56 H18         1.5820    1.9430    2.5920 ha        1 1GE      0.127000
     57 H19         3.3780    0.8260    7.2850 ha        1 1GE      0.111500
     58 H20         3.0280   -0.6290    9.3140 ha        1 1GE      0.164000
     59 H21        -1.0790    0.6060    9.5250 ha        1 1GE      0.164000
     60 H22        -0.7570    2.0770    7.5040 ha        1 1GE      0.111500
     61 H24         3.8620    4.6680    2.3070 h1        1 1GE      0.043700
     62 H25         2.7940    5.7180    1.2380 h1        1 1GE      0.043700
     63 H26         2.9800    6.1070    3.0260 h1        1 1GE      0.043700
     64 H27         1.9090    6.0750    5.8750 ho        1 1GE      0.428000
     65 H123       -1.8000    1.4230   -2.4260 hn        1 1GE      0.462467
@<TRIPOS>BOND
     1    1    2 ar  
     2    1    6 ar  
     3    1    7 1   
     4    2    3 ar  
     5    2   39 1   
     6    3    4 ar  
     7    3   40 1   
     8    4    5 ar  
     9    4   10 1   
    10    5    6 ar  
    11    5   13 1   
    12    6   41 1   
    13    7    8 2   
    14    7    9 1   
    15    8   42 1   
    16    9   43 1   
    17    9   44 1   
    18    9   65 1   
    19   10   11 1   
    20   10   45 1   
    21   11   12 1   
    22   11   21 1   
    23   11   46 1   
    24   12   13 1   
    25   12   14 1   
    26   12   47 1   
    27   13   16 1   
    28   13   48 1   
    29   14   15 1   
    30   14   49 1   
    31   14   50 1   
    32   15   16 ar  
    33   15   17 ar  
    34   16   20 ar  
    35   17   18 ar  
    36   17   51 1   
    37   18   19 ar  
    38   18   52 1   
    39   19   20 ar  
    40   19   53 1   
    41   20   54 1   
    42   21   22 ar  
    43   21   26 ar  
    44   22   23 ar  
    45   22   27 1   
    46   23   24 ar  
    47   23   55 1   
    48   24   25 ar  
    49   24   38 1   
    50   25   26 ar  
    51   25   36 1   
    52   26   56 1   
    53   27   28 ar  
    54   27   32 ar  
    55   28   29 ar  
    56   28   57 1   
    57   29   30 ar  
    58   29   58 1   
    59   30   31 ar  
    60   30   33 1   
    61   31   32 ar  
    62   31   59 1   
    63   32   60 1   
    64   33   34 1   
    65   33   35 1   
    66   36   37 1   
    67   37   61 1   
    68   37   62 1   
    69   37   63 1   
    70   38   64 1   
@<TRIPOS>SUBSTRUCTURE
     1 1GE         1 TEMP              0 ****  ****    0 ROOT
