@<TRIPOS>MOLECULE
1GE
   64    69     1     0     0
SMALL
bcc


@<TRIPOS>ATOM
      1 C1          4.4780    0.1570   -1.1880 ca        1 1GE     -0.206900
      2 C2          3.8380   -0.2250   -2.3720 ca        1 1GE     -0.073000
      3 C3          2.4540   -0.2190   -2.4500 ca        1 1GE     -0.206000
      4 C4          1.6660    0.1910   -1.3440 ca        1 1GE      0.183600
      5 C5          2.3220    0.6080   -0.1560 ca        1 1GE     -0.138300
      6 C6          3.7150    0.5560   -0.0890 ca        1 1GE     -0.054000
      7 C10         5.9680    0.1360   -1.0910 ce        1 1GE      0.663800
      8 N11         6.5270   -0.4590   -0.0800 n2        1 1GE     -0.839100
      9 N12         6.6290    0.7380   -2.1900 nh        1 1GE     -0.956800
     10 N13         0.2760    0.2420   -1.4500 nh        1 1GE     -0.706600
     11 C14        -0.5150    0.0960   -0.2410 c3        1 1GE      0.245800
     12 C15         0.0110    0.9540    0.9200 c3        1 1GE     -0.053700
     13 C16         1.5530    1.0870    1.0310 c3        1 1GE      0.040900
     14 C17        -0.5600    2.3850    0.8380 c3        1 1GE     -0.040100
     15 C18         0.5710    3.2780    1.2080 ca        1 1GE     -0.069300
     16 C19         1.7790    2.5500    1.3140 ca        1 1GE     -0.078300
     17 C24         0.5430    4.6440    1.4420 ca        1 1GE     -0.121000
     18 C25         1.7330    5.2930    1.7960 ca        1 1GE     -0.132000
     19 C26         2.9200    4.5760    1.9150 ca        1 1GE     -0.142000
     20 C27         2.9510    3.1960    1.6760 ca        1 1GE     -0.118000
     21 C32        -0.7080   -1.3420    0.1990 ca        1 1GE     -0.136300
     22 C34        -1.9620   -1.9660    0.0900 cp        1 1GE      0.024000
     23 C35        -2.1240   -3.2830    0.5500 ca        1 1GE     -0.138000
     24 C36        -1.0410   -3.9820    1.0870 ca        1 1GE      0.112100
     25 C37         0.2210   -3.3550    1.1770 ca        1 1GE      0.020100
     26 C38         0.3780   -2.0430    0.7370 ca        1 1GE     -0.147000
     27 C41        -3.1320   -1.2960   -0.4850 cp        1 1GE     -0.102000
     28 C42        -3.1410   -0.8920   -1.8270 ca        1 1GE     -0.144000
     29 C43        -4.2640   -0.2690   -2.3650 ca        1 1GE     -0.111000
     30 C44        -5.3950   -0.0360   -1.5760 ca        1 1GE     -0.111600
     31 C45        -5.3890   -0.4490   -0.2400 ca        1 1GE     -0.111000
     32 C46        -4.2710   -1.0790    0.3030 ca        1 1GE     -0.144000
     33 C51        -6.6150    0.6600   -2.1640 c         1 1GE      0.906200
     34 O52        -7.6050    0.8550   -1.4040 o         1 1GE     -0.825800
     35 O53        -6.5670    1.0050   -3.3780 o         1 1GE     -0.825800
     36 O54         1.2270   -4.1200    1.7520 os        1 1GE     -0.355900
     37 C55         2.5550   -3.7040    1.4520 c3        1 1GE      0.121700
     38 O59        -1.2650   -5.2680    1.5220 oh        1 1GE     -0.499100
     39 H1          4.4280   -0.5540   -3.2410 ha        1 1GE      0.135000
     40 H2          1.9640   -0.5390   -3.3820 ha        1 1GE      0.136000
     41 H3          4.2200    0.8290    0.8510 ha        1 1GE      0.140000
     42 H4          7.5250   -0.4370   -0.0510 hn        1 1GE      0.372400
     43 H5          6.0650    1.3520   -2.7310 hn        1 1GE      0.393300
     44 H6          7.5470    1.0780   -2.0210 hn        1 1GE      0.393300
     45 H7         -0.0970   -0.2770   -2.2200 hn        1 1GE      0.411800
     46 H8         -1.5430    0.5030   -0.5180 h1        1 1GE      0.107700
     47 H9         -0.3570    0.4820    1.8720 hc        1 1GE      0.068700
     48 H10         1.8980    0.4910    1.9250 hc        1 1GE      0.060700
     49 H11        -0.9180    2.6230   -0.1980 hc        1 1GE      0.070700
     50 H12        -1.4270    2.5040    1.5350 hc        1 1GE      0.070700
     51 H13        -0.3950    5.2090    1.3530 ha        1 1GE      0.137000
     52 H14         1.7240    6.3760    1.9830 ha        1 1GE      0.124000
     53 H15         3.8470    5.0950    2.2000 ha        1 1GE      0.121000
     54 H16         3.8950    2.6450    1.7790 ha        1 1GE      0.128000
     55 H17        -3.1070   -3.7730    0.4820 ha        1 1GE      0.162000
     56 H18         1.3580   -1.5460    0.8110 ha        1 1GE      0.145000
     57 H19        -2.2590   -1.0770   -2.4570 ha        1 1GE      0.108500
     58 H20        -4.2890    0.0530   -3.4190 ha        1 1GE      0.156000
     59 H21        -6.2900   -0.2630    0.3670 ha        1 1GE      0.156000
     60 H22        -4.2750   -1.4070    1.3520 ha        1 1GE      0.108500
     61 H24         2.7970   -2.7650    2.0070 h1        1 1GE      0.044033
     62 H25         3.1880   -4.5500    1.8190 h1        1 1GE      0.044033
     63 H26         2.6920   -3.5520    0.3540 h1        1 1GE      0.044033
     64 H27        -0.4150   -5.6330    1.8120 ho        1 1GE      0.429000
@<TRIPOS>BOND
     1    1    2 ar  
     2    1    6 ar  
     3    1    7 1   
     4    2    3 ar  
     5    2   39 1   
     6    3    4 ar  
     7    3   40 1   
     8    4    5 ar  
     9    4   10 1   
    10    5    6 ar  
    11    5   13 1   
    12    6   41 1   
    13    7    8 2   
    14    7    9 1   
    15    8   42 1   
    16    9   43 1   
    17    9   44 1   
    18   10   11 1   
    19   10   45 1   
    20   11   12 1   
    21   11   21 1   
    22   11   46 1   
    23   12   13 1   
    24   12   14 1   
    25   12   47 1   
    26   13   16 1   
    27   13   48 1   
    28   14   15 1   
    29   14   49 1   
    30   14   50 1   
    31   15   16 ar  
    32   15   17 ar  
    33   16   20 ar  
    34   17   18 ar  
    35   17   51 1   
    36   18   19 ar  
    37   18   52 1   
    38   19   20 ar  
    39   19   53 1   
    40   20   54 1   
    41   21   22 ar  
    42   21   26 ar  
    43   22   23 ar  
    44   22   27 1   
    45   23   24 ar  
    46   23   55 1   
    47   24   25 ar  
    48   24   38 1   
    49   25   26 ar  
    50   25   36 1   
    51   26   56 1   
    52   27   28 ar  
    53   27   32 ar  
    54   28   29 ar  
    55   28   57 1   
    56   29   30 ar  
    57   29   58 1   
    58   30   31 ar  
    59   30   33 1   
    60   31   32 ar  
    61   31   59 1   
    62   32   60 1   
    63   33   34 1   
    64   33   35 1   
    65   36   37 1   
    66   37   61 1   
    67   37   62 1   
    68   37   63 1   
    69   38   64 1   
@<TRIPOS>SUBSTRUCTURE
     1 1GE         1 TEMP              0 ****  ****    0 ROOT
