@<TRIPOS>MOLECULE
1GG
   67    70     1     0     0
SMALL
bcc


@<TRIPOS>ATOM
      1 C1         -0.6160    0.3810    0.1150 ca        1 1GG     -0.206900
      2 C2          0.7300    0.6930   -0.1080 ca        1 1GG     -0.081000
      3 C3          1.6260    0.7040    0.9630 ca        1 1GG     -0.089500
      4 C4          1.1830    0.4020    2.2560 ca        1 1GG     -0.139300
      5 CL4         7.5140    3.1820    9.3310 cl        1 1GG      0.074600
      6 C5         -0.1670    0.0980    2.4750 ca        1 1GG     -0.089500
      7 C6         -1.0670    0.0880    1.4080 ca        1 1GG     -0.081000
      8 C11        -1.5830    0.4210   -1.0120 ce        1 1GG      0.562800
      9 N12        -2.3650    1.3480   -1.4040 n2        1 1GG     -0.664100
     10 N13        -1.6190   -0.8610   -1.7960 n4        1 1GG     -0.819600
     11 C14         2.1670    0.2890    3.3760 c3        1 1GG      0.158100
     12 N15         2.3000    1.5550    4.1740 n4        1 1GG     -0.679800
     13 C18         3.2920    1.4280    5.3170 c         1 1GG      0.520100
     14 O19         3.6380    0.3040    5.6280 o         1 1GG     -0.363100
     15 C20         3.7520    2.7600    5.9310 c3        1 1GG      0.048700
     16 C21         5.0550    3.2280    5.2350 c3        1 1GG     -0.105400
     17 C22         6.2090    2.9960    6.2600 c3        1 1GG      0.004200
     18 C23         5.4630    2.8350    7.5820 cc        1 1GG      0.094400
     19 N24         4.0950    2.6270    7.3390 n         1 1GG     -0.334000
     20 C28         7.1380    4.2060    6.2690 c3        1 1GG     -0.078400
     21 C29         6.9200    1.6940    5.8740 c3        1 1GG     -0.078400
     22 C30         7.7750    4.4770    4.9290 c3        1 1GG     -0.105100
     23 C36         8.0490    1.2620    6.7690 c3        1 1GG     -0.105100
     24 C42         5.9020    2.8860    8.9090 cd        1 1GG      0.130000
     25 N43         5.0340    2.7140    9.9730 nd        1 1GG     -0.410300
     26 C44         3.7520    2.5100    9.7340 cc        1 1GG      0.375200
     27 C45         3.1570    2.4560    8.3630 c         1 1GG      0.595200
     28 O46         1.9540    2.2680    8.1120 o         1 1GG     -0.620500
     29 N48         2.8080    2.3190   10.8510 n4        1 1GG     -0.683000
     30 C49         2.7960    3.4410   11.8410 cy        1 1GG      0.071500
     31 C50         1.9620    4.6980   11.4530 cy        1 1GG     -0.097900
     32 C51         1.0730    4.4850   12.6940 cy        1 1GG     -0.085400
     33 C52         1.8500    3.2060   13.0620 cy        1 1GG     -0.097900
     34 H2          1.0940    0.9390   -1.1210 ha        1 1GG      0.176500
     35 H3          2.6880    0.9310    0.7700 ha        1 1GG      0.167000
     36 H5         -0.5300   -0.1580    3.4850 ha        1 1GG      0.167000
     37 H6         -2.1280   -0.1510    1.5950 ha        1 1GG      0.176500
     38 HN12       -2.3900    2.2260   -0.9270 hn        1 1GG      0.499400
     39 HN13       -2.2770   -0.8020   -2.5920 hn        1 1GG      0.481467
     40 HN1A       -1.9150   -1.6230   -1.1760 hn        1 1GG      0.481467
     41 H14         1.8550   -0.5320    4.0910 hx        1 1GG      0.131200
     42 H14A        3.1920    0.0310    2.9780 hx        1 1GG      0.131200
     43 HN15        2.5950    2.3200    3.5570 hn        1 1GG      0.465300
     44 H20         2.9200    3.5210    5.8370 h1        1 1GG      0.119700
     45 H21         4.9660    4.3200    4.9940 hc        1 1GG      0.097700
     46 H21A        5.2450    2.6690    4.2880 hc        1 1GG      0.097700
     47 H28         6.5550    5.1080    6.5980 hc        1 1GG      0.063200
     48 H29         6.1520    0.8740    5.8310 hc        1 1GG      0.063200
     49 H30         7.0130    4.5580    4.1170 hc        1 1GG      0.058367
     50 H30A        8.5000    3.6700    4.6590 hc        1 1GG      0.058367
     51 H36         8.8160    2.0680    6.8750 hc        1 1GG      0.058367
     52 H36A        8.5510    0.3660    6.3230 hc        1 1GG      0.058367
     53 H49         3.8530    3.6710   12.1390 hx        1 1GG      0.140700
     54 H50         2.5680    5.6310   11.4760 hc        1 1GG      0.088950
     55 H50A        1.4170    4.6290   10.4880 hc        1 1GG      0.088950
     56 H51         1.1580    5.2950   13.4530 hc        1 1GG      0.094700
     57 H51A       -0.0010    4.3140   12.4620 hc        1 1GG      0.094700
     58 H52         2.3960    3.2590   14.0310 hc        1 1GG      0.088950
     59 H52A        1.2420    2.2770   13.0310 hc        1 1GG      0.088950
     60 H27         7.9550    4.0390    7.0220 hc        1 1GG      0.063200
     61 H281        7.3250    1.8360    4.8330 hc        1 1GG      0.063200
     62 H291        8.3390    5.4430    4.9780 hc        1 1GG      0.058367
     63 H301        7.6790    0.9780    7.7830 hc        1 1GG      0.058367
     64 H31         3.0600    1.4520   11.3520 hn        1 1GG      0.476300
     65 H133       -0.6780   -1.0570   -2.1540 hn        1 1GG      0.481467
     66 H152        1.3840    1.8020    4.5710 hn        1 1GG      0.465300
     67 H482        1.8630    2.2110   10.4480 hn        1 1GG      0.476300
@<TRIPOS>BOND
     1    1    2 ar  
     2    1    7 ar  
     3    1    8 1   
     4    2    3 ar  
     5    2   34 1   
     6    3    4 ar  
     7    3   35 1   
     8    4    6 ar  
     9    4   11 1   
    10    5   24 1   
    11    6    7 ar  
    12    6   36 1   
    13    7   37 1   
    14    8    9 2   
    15    8   10 1   
    16    9   38 1   
    17   10   39 1   
    18   10   40 1   
    19   10   65 1   
    20   11   12 1   
    21   11   41 1   
    22   11   42 1   
    23   12   13 1   
    24   12   43 1   
    25   12   66 1   
    26   13   14 2   
    27   13   15 1   
    28   15   16 1   
    29   15   19 1   
    30   15   44 1   
    31   16   17 1   
    32   16   45 1   
    33   16   46 1   
    34   17   18 1   
    35   17   20 1   
    36   17   21 1   
    37   18   19 1   
    38   18   24 2   
    39   19   27 1   
    40   20   22 1   
    41   20   47 1   
    42   20   60 1   
    43   21   23 1   
    44   21   48 1   
    45   21   61 1   
    46   22   49 1   
    47   22   50 1   
    48   22   62 1   
    49   23   51 1   
    50   23   52 1   
    51   23   63 1   
    52   24   25 1   
    53   25   26 2   
    54   26   27 1   
    55   26   29 1   
    56   27   28 2   
    57   29   30 1   
    58   29   64 1   
    59   29   67 1   
    60   30   31 1   
    61   30   33 1   
    62   30   53 1   
    63   31   32 1   
    64   31   54 1   
    65   31   55 1   
    66   32   33 1   
    67   32   56 1   
    68   32   57 1   
    69   33   58 1   
    70   33   59 1   
@<TRIPOS>SUBSTRUCTURE
     1 1GG         1 TEMP              0 ****  ****    0 ROOT
