@<TRIPOS>MOLECULE
1GG
   67    70     1     0     0
SMALL
bcc


@<TRIPOS>ATOM
      1 C1         -0.6070    0.3760    0.1140 ca        1 1GG     -0.206900
      2 C2          0.7420    0.6760   -0.1060 ca        1 1GG     -0.081000
      3 C3          1.6330    0.6870    0.9680 ca        1 1GG     -0.089500
      4 C4          1.1820    0.3970    2.2620 ca        1 1GG     -0.139300
      5 Cl4         7.5130    3.1790    9.3350 cl        1 1GG      0.074600
      6 C5         -0.1710    0.1060    2.4770 ca        1 1GG     -0.089500
      7 C6         -1.0660    0.0950    1.4060 ca        1 1GG     -0.081000
      8 C11        -1.5700    0.4160   -1.0170 ce        1 1GG      0.562800
      9 N12        -2.3430    1.3470   -1.4200 n2        1 1GG     -0.664100
     10 N13        -1.6130   -0.8710   -1.7930 nz        1 1GG     -0.819600
     11 C14         2.1610    0.2840    3.3870 c3        1 1GG      0.158100
     12 N15         2.3010    1.5540    4.1760 ny        1 1GG     -0.679800
     13 C18         3.2880    1.4270    5.3240 c         1 1GG      0.520100
     14 O19         3.6270    0.3030    5.6410 o         1 1GG     -0.363100
     15 C20         3.7530    2.7610    5.9320 c3        1 1GG      0.048700
     16 C21         5.0600    3.2190    5.2360 c3        1 1GG     -0.105400
     17 C22         6.2110    2.9850    6.2630 c3        1 1GG      0.004200
     18 C23         5.4620    2.8350    7.5850 cc        1 1GG      0.094400
     19 N24         4.0940    2.6320    7.3410 n         1 1GG     -0.334000
     20 C28         7.1460    4.1910    6.2680 c3        1 1GG     -0.078400
     21 C29         6.9160    1.6780    5.8850 c3        1 1GG     -0.078400
     22 C30         7.7870    4.4520    4.9280 c3        1 1GG     -0.105100
     23 C36         8.0420    1.2450    6.7830 c3        1 1GG     -0.105100
     24 C42         5.9000    2.8900    8.9120 cd        1 1GG      0.130000
     25 N43         5.0300    2.7270    9.9760 nd        1 1GG     -0.410300
     26 C44         3.7470    2.5280    9.7360 cc        1 1GG      0.375200
     27 C45         3.1530    2.4710    8.3650 c         1 1GG      0.595200
     28 O46         1.9490    2.2890    8.1130 o         1 1GG     -0.620500
     29 N48         2.8010    2.3480   10.8520 ny        1 1GG     -0.683000
     30 C49         2.7920    3.4750   11.8380 cy        1 1GG      0.071500
     31 C50         1.9660    4.7330   11.4420 cy        1 1GG     -0.097900
     32 C51         1.0730    4.5310   12.6840 cy        1 1GG     -0.085400
     33 C52         1.8430    3.2500   13.0590 cy        1 1GG     -0.097900
     34 H2          1.1120    0.9110   -1.1190 ha        1 1GG      0.176500
     35 H3          2.6980    0.9040    0.7780 ha        1 1GG      0.167000
     36 H5         -0.5390   -0.1410    3.4870 ha        1 1GG      0.167000
     37 H6         -2.1300   -0.1340    1.5910 ha        1 1GG      0.176500
     38 HN12       -2.3610    2.2280   -0.9490 hn        1 1GG      0.499400
     39 HN13       -0.6720   -1.0780   -2.1460 hn        1 1GG      0.481467
     40 HN1A       -2.2670   -0.8120   -2.5920 hn        1 1GG      0.481467
     41 H14         3.1860    0.0150    2.9940 hx        1 1GG      0.131200
     42 H14A        1.8400   -0.5290    4.1060 hx        1 1GG      0.131200
     43 HN15        2.6040    2.3130    3.5550 hn        1 1GG      0.465300
     44 H20         2.9250    3.5250    5.8330 h1        1 1GG      0.119700
     45 H21         5.2490    2.6550    4.2920 hc        1 1GG      0.097700
     46 H21A        4.9770    4.3100    4.9900 hc        1 1GG      0.097700
     47 H28         7.9610    4.0240    7.0230 hc        1 1GG      0.063200
     48 H29         6.1440    0.8620    5.8440 hc        1 1GG      0.063200
     49 H30         7.0260    4.5340    4.1150 hc        1 1GG      0.058367
     50 H30A        8.3550    5.4160    4.9730 hc        1 1GG      0.058367
     51 H36         7.6690    0.9680    7.7980 hc        1 1GG      0.058367
     52 H36A        8.5400    0.3440    6.3420 hc        1 1GG      0.058367
     53 H49         3.8510    3.7010   12.1360 hx        1 1GG      0.140700
     54 H50         1.4210    4.6630   10.4760 hc        1 1GG      0.088950
     55 H50A        2.5760    5.6640   11.4610 hc        1 1GG      0.088950
     56 H51         1.1620    5.3440   13.4380 hc        1 1GG      0.094700
     57 H51A       -0.0010    4.3640   12.4500 hc        1 1GG      0.094700
     58 H52         1.2310    2.3230   13.0310 hc        1 1GG      0.088950
     59 H52A        2.3890    3.3040   14.0280 hc        1 1GG      0.088950
     60 H27         6.5680    5.0970    6.5920 hc        1 1GG      0.063200
     61 H281        7.3230    1.8130    4.8440 hc        1 1GG      0.063200
     62 H291        8.5080    3.6410    4.6620 hc        1 1GG      0.058367
     63 H301        8.8130    2.0470    6.8860 hc        1 1GG      0.058367
     64 H31         3.0470    1.4820   11.3580 hn        1 1GG      0.476300
     65 H133       -1.9180   -1.6260   -1.1690 hn        1 1GG      0.481467
     66 H152        1.3850    1.8110    4.5690 hn        1 1GG      0.465300
     67 H482        1.8550    2.2420   10.4490 hn        1 1GG      0.476300
@<TRIPOS>BOND
     1    1    2 ar  
     2    1    7 ar  
     3    1    8 1   
     4    2    3 ar  
     5    2   34 1   
     6    3    4 ar  
     7    3   35 1   
     8    4    6 ar  
     9    4   11 1   
    10    5   24 1   
    11    6    7 ar  
    12    6   36 1   
    13    7   37 1   
    14    8    9 2   
    15    8   10 1   
    16    9   38 1   
    17   10   39 1   
    18   10   40 1   
    19   10   65 1   
    20   11   12 1   
    21   11   41 1   
    22   11   42 1   
    23   12   13 1   
    24   12   43 1   
    25   12   66 1   
    26   13   14 2   
    27   13   15 1   
    28   15   16 1   
    29   15   19 1   
    30   15   44 1   
    31   16   17 1   
    32   16   45 1   
    33   16   46 1   
    34   17   18 1   
    35   17   20 1   
    36   17   21 1   
    37   18   19 1   
    38   18   24 2   
    39   19   27 1   
    40   20   22 1   
    41   20   47 1   
    42   20   60 1   
    43   21   23 1   
    44   21   48 1   
    45   21   61 1   
    46   22   49 1   
    47   22   50 1   
    48   22   62 1   
    49   23   51 1   
    50   23   52 1   
    51   23   63 1   
    52   24   25 1   
    53   25   26 2   
    54   26   27 1   
    55   26   29 1   
    56   27   28 2   
    57   29   30 1   
    58   29   64 1   
    59   29   67 1   
    60   30   31 1   
    61   30   33 1   
    62   30   53 1   
    63   31   32 1   
    64   31   54 1   
    65   31   55 1   
    66   32   33 1   
    67   32   56 1   
    68   32   57 1   
    69   33   58 1   
    70   33   59 1   
@<TRIPOS>SUBSTRUCTURE
     1 1GG         1 TEMP              0 ****  ****    0 ROOT
