@<TRIPOS>MOLECULE
1GG
   67    70     1     0     0
SMALL
bcc


@<TRIPOS>ATOM
      1 C1         -0.6230    0.4150    0.1100 ca        1 1GG     -0.206900
      2 C2          0.7340    0.6800   -0.1080 ca        1 1GG     -0.081000
      3 C3          1.6210    0.6820    0.9690 ca        1 1GG     -0.089500
      4 C4          1.1590    0.4170    2.2640 ca        1 1GG     -0.139300
      5 CL4         7.5320    3.1500    9.3150 cl        1 1GG      0.074600
      6 C5         -0.2010    0.1590    2.4770 ca        1 1GG     -0.089500
      7 C6         -1.0930    0.1580    1.4030 ca        1 1GG     -0.081000
      8 C11        -1.5810    0.4650   -1.0260 ce        1 1GG      0.562800
      9 N12        -2.3290    1.4100   -1.4410 n2        1 1GG     -0.664100
     10 N13        -1.6520   -0.8290   -1.7880 n4        1 1GG     -0.819600
     11 C14         2.1310    0.2930    3.3940 c3        1 1GG      0.158100
     12 N15         2.2890    1.5650    4.1770 n4        1 1GG     -0.679800
     13 C18         3.2730    1.4290    5.3270 c         1 1GG      0.520100
     14 O19         3.6020    0.3020    5.6440 o         1 1GG     -0.363100
     15 C20         3.7460    2.7580    5.9380 c3        1 1GG      0.048700
     16 C21         5.0490    3.2160    5.2340 c3        1 1GG     -0.105400
     17 C22         6.2070    2.9730    6.2520 c3        1 1GG      0.004200
     18 C23         5.4670    2.8200    7.5790 cc        1 1GG      0.093400
     19 N24         4.0960    2.6230    7.3440 n         1 1GG     -0.334000
     20 C28         7.1470    4.1740    6.2550 c3        1 1GG     -0.078400
     21 C29         6.9030    1.6650    5.8620 c3        1 1GG     -0.078400
     22 C30         7.7780    4.4400    4.9110 c3        1 1GG     -0.105100
     23 C36         8.0330    1.2220    6.7510 c3        1 1GG     -0.105100
     24 C42         5.9150    2.8680    8.9020 cd        1 1GG      0.130000
     25 N43         5.0520    2.7040    9.9720 nd        1 1GG     -0.410300
     26 C44         3.7670    2.5100    9.7410 cc        1 1GG      0.375200
     27 C45         3.1630    2.4620    8.3730 c         1 1GG      0.595200
     28 O46         1.9560    2.2850    8.1300 o         1 1GG     -0.620500
     29 N48         2.8280    2.3280   10.8630 n4        1 1GG     -0.683000
     30 C49         2.8310    3.4510   11.8540 cy        1 1GG      0.071500
     31 C50         2.0050    4.7140   11.4700 cy        1 1GG     -0.097900
     32 C51         1.1220    4.5080   12.7170 cy        1 1GG     -0.085400
     33 C52         1.8900    3.2240   13.0810 cy        1 1GG     -0.097900
     34 H2          1.1120    0.8970   -1.1220 ha        1 1GG      0.176500
     35 H3          2.6920    0.8730    0.7810 ha        1 1GG      0.167000
     36 H5         -0.5790   -0.0680    3.4880 ha        1 1GG      0.167000
     37 H6         -2.1630   -0.0440    1.5860 ha        1 1GG      0.176500
     38 HN12       -2.3290    2.2970   -0.9800 hn        1 1GG      0.499400
     39 HN13       -1.9770   -1.5690   -1.1560 hn        1 1GG      0.481467
     40 HN1A       -2.3010   -0.7630   -2.5890 hn        1 1GG      0.481467
     41 H14         3.1530    0.0040    3.0070 hx        1 1GG      0.131200
     42 H14A        1.7930   -0.5110    4.1160 hx        1 1GG      0.131200
     43 HN15        1.3770    1.8380    4.5660 hn        1 1GG      0.465300
     44 H20         2.9190    3.5250    5.8470 h1        1 1GG      0.119700
     45 H21         5.2290    2.6560    4.2850 hc        1 1GG      0.097700
     46 H21A        4.9680    4.3080    4.9950 hc        1 1GG      0.097700
     47 H28         7.9670    4.0000    7.0030 hc        1 1GG      0.063200
     48 H29         7.3040    1.8030    4.8200 hc        1 1GG      0.063200
     49 H30         7.0110    4.5290    4.1040 hc        1 1GG      0.058367
     50 H30A        8.3500    5.4010    4.9560 hc        1 1GG      0.058367
     51 H36         8.5240    0.3210    6.3030 hc        1 1GG      0.058367
     52 H36A        7.6660    0.9430    7.7680 hc        1 1GG      0.058367
     53 H49         3.8920    3.6720   12.1450 hx        1 1GG      0.140700
     54 H50         2.6190    5.6420   11.4890 hc        1 1GG      0.088950
     55 H50A        1.4530    4.6500   10.5080 hc        1 1GG      0.088950
     56 H51         1.2190    5.3180   13.4750 hc        1 1GG      0.094700
     57 H51A        0.0450    4.3470   12.4920 hc        1 1GG      0.094700
     58 H52         2.4440    3.2710   14.0460 hc        1 1GG      0.088950
     59 H52A        1.2740    2.2990   13.0530 hc        1 1GG      0.088950
     60 H27         6.5750    5.0820    6.5880 hc        1 1GG      0.063200
     61 H281        6.1270    0.8520    5.8230 hc        1 1GG      0.063200
     62 H291        8.4940    3.6270    4.6350 hc        1 1GG      0.058367
     63 H301        8.8090    2.0200    6.8520 hc        1 1GG      0.058367
     64 H31         3.0750    1.4590   11.3630 hn        1 1GG      0.476300
     65 H133       -0.7150   -1.0620   -2.1340 hn        1 1GG      0.481467
     66 H152        2.6060    2.3160    3.5530 hn        1 1GG      0.465300
     67 H482        1.8790    2.2280   10.4660 hn        1 1GG      0.476300
@<TRIPOS>BOND
     1    1    2 ar  
     2    1    7 ar  
     3    1    8 1   
     4    2    3 ar  
     5    2   34 1   
     6    3    4 ar  
     7    3   35 1   
     8    4    6 ar  
     9    4   11 1   
    10    5   24 1   
    11    6    7 ar  
    12    6   36 1   
    13    7   37 1   
    14    8    9 2   
    15    8   10 1   
    16    9   38 1   
    17   10   39 1   
    18   10   40 1   
    19   10   65 1   
    20   11   12 1   
    21   11   41 1   
    22   11   42 1   
    23   12   13 1   
    24   12   43 1   
    25   12   66 1   
    26   13   14 2   
    27   13   15 1   
    28   15   16 1   
    29   15   19 1   
    30   15   44 1   
    31   16   17 1   
    32   16   45 1   
    33   16   46 1   
    34   17   18 1   
    35   17   20 1   
    36   17   21 1   
    37   18   19 1   
    38   18   24 2   
    39   19   27 1   
    40   20   22 1   
    41   20   47 1   
    42   20   60 1   
    43   21   23 1   
    44   21   48 1   
    45   21   61 1   
    46   22   49 1   
    47   22   50 1   
    48   22   62 1   
    49   23   51 1   
    50   23   52 1   
    51   23   63 1   
    52   24   25 1   
    53   25   26 2   
    54   26   27 1   
    55   26   29 1   
    56   27   28 2   
    57   29   30 1   
    58   29   64 1   
    59   29   67 1   
    60   30   31 1   
    61   30   33 1   
    62   30   53 1   
    63   31   32 1   
    64   31   54 1   
    65   31   55 1   
    66   32   33 1   
    67   32   56 1   
    68   32   57 1   
    69   33   58 1   
    70   33   59 1   
@<TRIPOS>SUBSTRUCTURE
     1 1GG         1 TEMP              0 ****  ****    0 ROOT
