@<TRIPOS>MOLECULE
1GG
   64    67     1     0     0
SMALL
bcc


@<TRIPOS>ATOM
      1 C1          6.3310    1.4840    0.2820 ca        1 1GG     -0.137900
      2 C2          5.8340    0.1770    0.2380 ca        1 1GG     -0.103000
      3 C3          4.6060   -0.0780   -0.3710 ca        1 1GG     -0.123500
      4 C4          3.8680    0.9700   -0.9320 ca        1 1GG     -0.111300
      5 CL4        -4.7020   -2.3490   -0.4010 cl        1 1GG     -0.050400
      6 C5          4.3620    2.2750   -0.8740 ca        1 1GG     -0.123500
      7 C6          5.5910    2.5340   -0.2710 ca        1 1GG     -0.103000
      8 C11         7.6520    1.7540    0.9340 ce        1 1GG      0.649800
      9 N12         7.8550    1.3010    2.1340 n2        1 1GG     -0.825100
     10 N13         8.5230    2.5580    0.1640 nh        1 1GG     -0.958800
     11 C14         2.5570    0.6770   -1.6090 c3        1 1GG      0.130300
     12 N15         1.4750    0.3630   -0.7130 n         1 1GG     -0.548900
     13 C18         1.2080   -0.9280   -0.3240 c         1 1GG      0.647100
     14 O19         1.8220   -1.9050   -0.7980 o         1 1GG     -0.614100
     15 C20         0.1000   -1.1340    0.7380 c3        1 1GG      0.030700
     16 C21        -0.1640   -2.6360    0.9790 c3        1 1GG     -0.089400
     17 C22        -1.4970   -2.9620    0.2460 c3        1 1GG      0.012200
     18 C23        -2.1520   -1.5910    0.1160 cc        1 1GG     -0.011600
     19 N24        -1.1940   -0.5810    0.3500 n         1 1GG     -0.329000
     20 C28        -2.3350   -3.9160    1.0870 c3        1 1GG     -0.074400
     21 C29        -1.1390   -3.5380   -1.1260 c3        1 1GG     -0.074400
     22 C30        -1.6240   -5.2000    1.4310 c3        1 1GG     -0.095100
     23 C36        -2.2920   -3.7750   -2.0610 c3        1 1GG     -0.095100
     24 C42        -3.4560   -1.2080   -0.1380 cd        1 1GG      0.165000
     25 N43        -3.8730    0.1170   -0.1900 nd        1 1GG     -0.588300
     26 C44        -2.9810    1.0710    0.0390 cc        1 1GG      0.584200
     27 C45        -1.5390    0.7590    0.4160 c         1 1GG      0.567200
     28 O46        -0.7200    1.6310    0.7750 o         1 1GG     -0.657500
     29 N48        -3.2590    2.4310   -0.1110 nh        1 1GG     -0.771200
     30 C49        -4.6110    2.9090   -0.1300 cy        1 1GG      0.190500
     31 C50        -5.3550    3.1220    1.2320 cy        1 1GG     -0.107900
     32 C51        -5.5420    4.6130    0.8990 cy        1 1GG     -0.096400
     33 C52        -4.7690    4.4390   -0.4210 cy        1 1GG     -0.107900
     34 H2          6.4050   -0.6470    0.6920 ha        1 1GG      0.146500
     35 H3          4.2060   -1.1050   -0.4140 ha        1 1GG      0.145000
     36 H5          3.7800    3.1050   -1.3040 ha        1 1GG      0.145000
     37 H6          5.9680    3.5670   -0.2180 ha        1 1GG      0.146500
     38 HN12        8.7450    1.4970    2.5400 hn        1 1GG      0.382400
     39 HN13        8.3260    2.5880   -0.8090 hn        1 1GG      0.398300
     40 HN1A        9.4910    2.5040    0.3830 hn        1 1GG      0.398300
     41 H14         2.2400    1.5730   -2.2160 h1        1 1GG      0.069700
     42 H14A        2.7060   -0.1960   -2.3110 h1        1 1GG      0.069700
     43 HN15        1.0910    1.1180   -0.1860 hn        1 1GG      0.339500
     44 H20         0.4490   -0.6240    1.6840 h1        1 1GG      0.094700
     45 H21         0.6770   -3.2610    0.5890 hc        1 1GG      0.082700
     46 H21A       -0.2680   -2.8160    2.0770 hc        1 1GG      0.082700
     47 H28        -2.6340   -3.3910    2.0330 hc        1 1GG      0.055450
     48 H29        -0.4040   -2.8390   -1.6130 hc        1 1GG      0.055450
     49 H30        -2.2480   -5.7930    2.1440 hc        1 1GG      0.038033
     50 H30A       -1.4550   -5.8210    0.5180 hc        1 1GG      0.038033
     51 H36        -3.0440   -4.4670   -1.6110 hc        1 1GG      0.038033
     52 H36A       -2.8020   -2.8160   -2.3200 hc        1 1GG      0.038033
     53 H49        -5.2140    2.2850   -0.8400 h1        1 1GG      0.094700
     54 H50        -6.3000    2.5440    1.3030 hc        1 1GG      0.058200
     55 H50A       -4.7370    2.9360    2.1350 hc        1 1GG      0.058200
     56 H51        -6.6020    4.9150    0.7630 hc        1 1GG      0.052700
     57 H51A       -5.0530    5.3020    1.6200 hc        1 1GG      0.052700
     58 H52        -3.8180    5.0120   -0.4680 hc        1 1GG      0.058200
     59 H52A       -5.3660    4.6380   -1.3350 hc        1 1GG      0.058200
     60 H27        -3.2770   -4.1690    0.5310 hc        1 1GG      0.055450
     61 H281       -0.6000   -4.5090   -0.9540 hc        1 1GG      0.055450
     62 H291       -0.6340   -5.0060    1.9100 hc        1 1GG      0.038033
     63 H301       -1.9150   -4.2360   -3.0070 hc        1 1GG      0.038033
     64 H31        -2.6020    3.0250    0.3570 hn        1 1GG      0.433800
@<TRIPOS>BOND
     1    1    2 ar  
     2    1    7 ar  
     3    1    8 1   
     4    2    3 ar  
     5    2   34 1   
     6    3    4 ar  
     7    3   35 1   
     8    4    6 ar  
     9    4   11 1   
    10    5   24 1   
    11    6    7 ar  
    12    6   36 1   
    13    7   37 1   
    14    8    9 2   
    15    8   10 1   
    16    9   38 1   
    17   10   39 1   
    18   10   40 1   
    19   11   12 1   
    20   11   41 1   
    21   11   42 1   
    22   12   13 1   
    23   12   43 1   
    24   13   14 2   
    25   13   15 1   
    26   15   16 1   
    27   15   19 1   
    28   15   44 1   
    29   16   17 1   
    30   16   45 1   
    31   16   46 1   
    32   17   18 1   
    33   17   20 1   
    34   17   21 1   
    35   18   19 1   
    36   18   24 2   
    37   19   27 1   
    38   20   22 1   
    39   20   47 1   
    40   20   60 1   
    41   21   23 1   
    42   21   48 1   
    43   21   61 1   
    44   22   49 1   
    45   22   50 1   
    46   22   62 1   
    47   23   51 1   
    48   23   52 1   
    49   23   63 1   
    50   24   25 1   
    51   25   26 2   
    52   26   27 1   
    53   26   29 1   
    54   27   28 2   
    55   29   30 1   
    56   29   64 1   
    57   30   31 1   
    58   30   33 1   
    59   30   53 1   
    60   31   32 1   
    61   31   54 1   
    62   31   55 1   
    63   32   33 1   
    64   32   56 1   
    65   32   57 1   
    66   33   58 1   
    67   33   59 1   
@<TRIPOS>SUBSTRUCTURE
     1 1GG         1 TEMP              0 ****  ****    0 ROOT
