@<TRIPOS>MOLECULE
1GG
   64    62     1     0     0
SMALL
bcc


@<TRIPOS>ATOM
      1 C1         -1.3530   -5.3450    3.8640 c1        1 1GG     -0.110000
      2 C2         -1.8580   -5.7890    2.6540 c1        1 1GG     -0.100000
      3 C3         -1.4630   -5.1780    1.4710 c1        1 1GG     -0.124000
      4 C4         -0.5700   -4.1300    1.5000 c2        1 1GG     -0.101000
      5 CL4         3.0250    3.8910   -2.1260 cl        1 1GG      0.036000
      6 C5         -0.0670   -3.6860    2.6990 c1        1 1GG     -0.117000
      7 C6         -0.4610   -4.2970    3.8900 c1        1 1GG     -0.117000
      8 C11        -1.9350   -5.9130    5.2120 c2        1 1GG      0.114000
      9 N12        -2.7520   -5.1890    5.9270 n1        1 1GG     -0.302000
     10 N13        -1.5700   -7.2140    5.6500 n3        1 1GG     -0.331000
     11 C14        -1.2190   -2.9420    0.7210 c3        1 1GG      0.006000
     12 N15        -0.2670   -2.3750   -0.1340 n         1 1GG     -0.360000
     13 C18        -0.4280   -0.9660   -0.6050 c2        1 1GG      0.289000
     14 O19        -1.4010   -0.3090   -0.2510 o         1 1GG     -0.372000
     15 C20         0.5050   -0.4160   -1.5980 c3        1 1GG      0.010000
     16 C21         2.0720   -0.2270   -0.8700 c3        1 1GG     -0.174000
     17 C22         2.6740    0.6240   -1.5100 c3        1 1GG      0.010000
     18 C23         1.4940    1.5090   -2.0980 c2        1 1GG     -0.012000
     19 N24         0.1840    0.7350   -1.8600 n         1 1GG     -0.224000
     20 C28         3.5860    0.0470   -2.5750 c3        1 1GG     -0.151000
     21 C29         3.6420    1.4720   -0.5940 c3        1 1GG     -0.151000
     22 C30         4.1260    1.1870   -3.4590 c3        1 1GG     -0.214000
     23 C36         3.7830    0.7850    0.8100 c3        1 1GG     -0.214000
     24 C42         1.5190    3.0110   -1.9320 c2        1 1GG     -0.056000
     25 N43         0.2870    3.7290   -1.6510 n2        1 1GG     -0.161000
     26 C44        -1.0220    2.9870   -1.5900 c1        1 1GG      0.077000
     27 C45        -1.0380    1.4530   -1.6550 c2        1 1GG      0.297000
     28 O46        -2.1480    0.8240   -1.6030 o         1 1GG     -0.383000
     29 N48        -2.2510    3.7110   -1.6010 n2        1 1GG     -0.258000
     30 C49        -2.2900    5.0100   -1.1410 cy        1 1GG     -0.006000
     31 C50        -2.2910    5.9940   -2.2270 cy        1 1GG     -0.186500
     32 C51        -3.6960    6.4300   -1.8290 cy        1 1GG     -0.175000
     33 C52        -3.6890    5.4510   -0.7370 cy        1 1GG     -0.186500
     34 H2         -2.4820   -6.5220    2.6330 ha        1 1GG      0.150000
     35 H3         -1.8170   -5.4890    0.6220 DU        1 1GG      0.143500
     36 H5          0.5520   -2.9590    2.7180 ha        1 1GG      0.159000
     37 H6         -0.0980   -3.9780    4.7530 ha        1 1GG      0.140000
     38 HN12       -2.9850   -4.3600    5.6480 DU        1 1GG      0.143500
     39 HN13       -1.0100   -7.7320    5.1360 hn        1 1GG      0.193000
     40 HN1A       -1.8850   -7.5360    6.4580 hn        1 1GG      0.193000
     41 H14        -1.5260   -2.2820    1.3410 h1        1 1GG      0.111000
     42 H14A       -1.9910   -3.2800    0.1830 h1        1 1GG      0.111000
     43 HN15        0.4930   -2.8590   -0.3690 hn        1 1GG      0.253000
     44 H20         0.4260   -1.0540   -2.2910 h1        1 1GG      0.129000
     45 H21         1.9630    0.0780    0.0550 hc        1 1GG      0.124000
     46 H21A        2.5770   -1.1110   -0.9290 hc        1 1GG      0.124000
     47 H28         3.0980   -0.5700   -3.1130 hc        1 1GG      0.091000
     48 H29         4.5490    1.5300   -1.0310 hc        1 1GG      0.091000
     49 H30         3.4540    1.4310   -4.1230 hc        1 1GG      0.078833
     50 H30A        4.3340    1.9870   -2.8850 hc        1 1GG      0.078833
     51 H36         4.0270   -0.1530    0.6930 hc        1 1GG      0.078833
     52 H36A        2.9010    0.8460    1.3060 hc        1 1GG      0.078833
     53 H49        -1.6300    5.2010   -0.4640 h1        1 1GG      0.134000
     54 H50        -1.6160    6.7090   -2.0970 hc        1 1GG      0.097750
     55 H50A       -2.2590    5.5720   -3.1340 hc        1 1GG      0.097750
     56 H51        -3.7290    7.3610   -1.5050 hc        1 1GG      0.092000
     57 H51A       -4.3540    6.2300   -2.5030 hc        1 1GG      0.092000
     58 H52        -3.7150    5.8810    0.1650 hc        1 1GG      0.097750
     59 H52A       -4.3780    4.7250   -0.8590 hc        1 1GG      0.097750
     60 H27         4.2990   -0.3930   -2.1670 hc        1 1GG      0.091000
     61 H281        3.2620    2.4080   -0.4740 hc        1 1GG      0.091000
     62 H291        4.9470    0.8890   -3.9160 hc        1 1GG      0.078833
     63 H301        4.4740    1.2390    1.3240 hc        1 1GG      0.078833
     64 H31        -3.0090    3.3190   -1.9300 hn        1 1GG      0.229000
@<TRIPOS>BOND
     1    1    7 1   
     2    1    8 1   
     3    2    3 1   
     4    2   34 1   
     5    3    4 1   
     6    4    6 1   
     7    4   11 1   
     8    5   24 1   
     9    6   36 1   
    10    7   37 1   
    11    8    9 1   
    12    8   10 1   
    13   10   39 1   
    14   10   40 1   
    15   11   12 1   
    16   11   41 1   
    17   11   42 1   
    18   12   13 1   
    19   12   43 1   
    20   13   14 1   
    21   13   15 1   
    22   15   16 1   
    23   15   19 1   
    24   15   44 1   
    25   16   17 1   
    26   16   45 1   
    27   16   46 1   
    28   17   18 1   
    29   17   20 1   
    30   17   21 1   
    31   18   19 1   
    32   18   24 1   
    33   19   27 1   
    34   20   22 1   
    35   20   47 1   
    36   20   60 1   
    37   21   23 1   
    38   21   48 1   
    39   21   61 1   
    40   22   49 1   
    41   22   50 1   
    42   22   62 1   
    43   23   51 1   
    44   23   52 1   
    45   23   63 1   
    46   24   25 1   
    47   25   26 1   
    48   26   27 1   
    49   27   28 1   
    50   29   30 1   
    51   29   64 1   
    52   30   31 1   
    53   30   33 1   
    54   30   53 1   
    55   31   32 1   
    56   31   54 1   
    57   31   55 1   
    58   32   33 1   
    59   32   56 1   
    60   32   57 1   
    61   33   58 1   
    62   33   59 1   
@<TRIPOS>SUBSTRUCTURE
     1 1GG         1 TEMP              0 ****  ****    0 ROOT
