@<TRIPOS>MOLECULE
1GH
   52    56     1     0     0
SMALL
bcc


@<TRIPOS>ATOM
      1 O2         -0.1820   -0.8940    0.0380 o         1 1GH     -0.585500
      2 C13         1.0070   -0.5650    0.1180 c         1 1GH      0.769500
      3 N1          1.8510   -0.6580    1.3180 n         1 1GH     -0.276000
      4 C6          1.2900   -0.1030    2.5460 c3        1 1GH      0.039400
      5 C8          0.9070    1.3750    2.4970 ca        1 1GH      0.376600
      6 N2          0.6970    1.9790    1.3040 nb        1 1GH     -0.679000
      7 C12         0.3450    3.2770    1.3150 ca        1 1GH      0.408200
      8 C11         0.1880    4.0340    2.4910 ca        1 1GH     -0.242300
      9 C10         0.4120    3.4030    3.7160 ca        1 1GH     -0.085000
     10 C9          0.7780    2.0570    3.7270 ca        1 1GH     -0.237300
     11 C7          0.0750   -0.8980    3.0300 c3        1 1GH     -0.100100
     12 N3          1.8180   -0.1850   -1.0110 n         1 1GH     -0.401100
     13 C14         3.0960    0.1040   -0.4980 ca        1 1GH     -0.123700
     14 C5          3.1430   -0.2180    0.8890 ca        1 1GH     -0.023400
     15 C15         4.2670    0.5850   -1.1490 ca        1 1GH      0.418200
     16 N4          5.4150    0.7230   -0.5110 nb        1 1GH     -0.641000
     17 C16         5.4980    0.3510    0.8150 ca        1 1GH      0.357600
     18 C4          4.3900   -0.1660    1.5660 ca        1 1GH     -0.063300
     19 C3          4.5990   -0.6250    2.8890 ca        1 1GH     -0.216000
     20 C17         6.7640    0.4740    1.4770 ca        1 1GH     -0.123300
     21 C18         6.9470    0.0700    2.7800 ca        1 1GH     -0.017000
     22 C2          5.8380   -0.5080    3.4850 ca        1 1GH      0.150100
     23 O1          6.1180   -0.9260    4.7690 os        1 1GH     -0.315900
     24 C1          5.0370   -1.4880    5.5060 c3        1 1GH      0.108700
     25 C19         8.2360    0.2290    3.4110 cc        1 1GH     -0.273600
     26 C22         8.9140    1.4030    3.6950 cd        1 1GH      0.284000
     27 C23         8.6490    2.8300    3.5210 c3        1 1GH     -0.141400
     28 O3         10.1420    1.0520    4.3010 os        1 1GH     -0.121100
     29 N5         10.2450   -0.2600    4.3960 nd        1 1GH     -0.370300
     30 C20         9.1380   -0.8340    3.8840 cc        1 1GH      0.354600
     31 C21         8.8650   -2.2800    3.7940 c3        1 1GH     -0.135400
     32 H3          1.4190    0.3690   -1.7310 hn        1 1GH      0.330500
     33 H6          2.1030   -0.1870    3.3310 h1        1 1GH      0.072700
     34 H71C       -0.7600   -0.8470    2.2880 hc        1 1GH      0.059367
     35 H72C       -0.2700   -0.4670    4.0000 hc        1 1GH      0.059367
     36 H73C        0.3480   -1.9700    3.1840 hc        1 1GH      0.059367
     37 H9          0.9620    1.5310    4.6730 ha        1 1GH      0.143000
     38 H12         0.1780    3.7330    0.3230 h4        1 1GH      0.024100
     39 H11        -0.1030    5.0900    2.4380 ha        1 1GH      0.148000
     40 H10         0.3030    3.9580    4.6590 ha        1 1GH      0.142000
     41 H15         4.2490    0.8620   -2.2180 h4        1 1GH      0.033100
     42 H17         7.6130    0.9000    0.9140 ha        1 1GH      0.160000
     43 HA          3.7700   -1.1150    3.4180 ha        1 1GH      0.146000
     44 H11C        4.2070   -0.7480    5.6170 h1        1 1GH      0.048033
     45 H12C        5.4970   -1.7180    6.5010 h1        1 1GH      0.048033
     46 H13C        4.6690   -2.4210    5.0150 h1        1 1GH      0.048033
     47 H231        8.1940    3.2490    4.4550 hc        1 1GH      0.066700
     48 H232        7.9380    2.9820    2.6710 hc        1 1GH      0.066700
     49 H233        9.5990    3.3850    3.3120 hc        1 1GH      0.066700
     50 H211        8.9120   -2.6030    2.7240 hc        1 1GH      0.061033
     51 H212        9.6020   -2.8810    4.3820 hc        1 1GH      0.061033
     52 H213        7.8350   -2.4820    4.1870 hc        1 1GH      0.061033
@<TRIPOS>BOND
     1    1    2 2   
     2    2    3 1   
     3    2   12 1   
     4    3    4 1   
     5    3   14 1   
     6    4    5 1   
     7    4   11 1   
     8    4   33 1   
     9    5    6 ar  
    10    5   10 ar  
    11    6    7 ar  
    12    7    8 ar  
    13    7   38 1   
    14    8    9 ar  
    15    8   39 1   
    16    9   10 ar  
    17    9   40 1   
    18   10   37 1   
    19   11   34 1   
    20   11   35 1   
    21   11   36 1   
    22   12   13 1   
    23   12   32 1   
    24   13   14 ar  
    25   13   15 ar  
    26   14   18 ar  
    27   15   16 ar  
    28   15   41 1   
    29   16   17 ar  
    30   17   18 ar  
    31   17   20 ar  
    32   18   19 ar  
    33   19   22 ar  
    34   19   43 1   
    35   20   21 ar  
    36   20   42 1   
    37   21   22 ar  
    38   21   25 1   
    39   22   23 1   
    40   23   24 1   
    41   24   44 1   
    42   24   45 1   
    43   24   46 1   
    44   25   26 2   
    45   25   30 1   
    46   26   27 1   
    47   26   28 1   
    48   27   47 1   
    49   27   48 1   
    50   27   49 1   
    51   28   29 1   
    52   29   30 2   
    53   30   31 1   
    54   31   50 1   
    55   31   51 1   
    56   31   52 1   
@<TRIPOS>SUBSTRUCTURE
     1 1GH         1 TEMP              0 ****  ****    0 ROOT
