@<TRIPOS>MOLECULE
1GH
   52    56     1     0     0
SMALL
bcc


@<TRIPOS>ATOM
      1 O2         -0.1890   -0.9180    0.0630 o         1 1GH     -0.585500
      2 C13         1.0000   -0.5860    0.1360 c         1 1GH      0.769500
      3 N1          1.8480   -0.6700    1.3330 n         1 1GH     -0.276000
      4 C6          1.2910   -0.1090    2.5600 c3        1 1GH      0.039400
      5 C8          0.9050    1.3690    2.5030 ca        1 1GH      0.376600
      6 N2          0.6900    1.9650    1.3060 nb        1 1GH     -0.679000
      7 C12         0.3350    3.2620    1.3110 ca        1 1GH      0.408200
      8 C11         0.1810    4.0260    2.4820 ca        1 1GH     -0.242300
      9 C10         0.4110    3.4040    3.7100 ca        1 1GH     -0.085000
     10 C9          0.7790    2.0580    3.7280 ca        1 1GH     -0.237300
     11 C7          0.0790   -0.9030    3.0540 c3        1 1GH     -0.100100
     12 N3          1.8070   -0.2120   -0.9980 ns        1 1GH     -0.401100
     13 C14         3.0860    0.0820   -0.4920 ca        1 1GH     -0.123700
     14 C5          3.1390   -0.2310    0.8970 ca        1 1GH     -0.023400
     15 C15         4.2530    0.5610   -1.1500 ca        1 1GH      0.418200
     16 N4          5.4030    0.7060   -0.5170 nb        1 1GH     -0.641000
     17 C16         5.4920    0.3420    0.8120 ca        1 1GH      0.357600
     18 C4          4.3880   -0.1720    1.5700 ca        1 1GH     -0.063300
     19 C3          4.6020   -0.6220    2.8950 ca        1 1GH     -0.216000
     20 C17         6.7600    0.4720    1.4680 ca        1 1GH     -0.123300
     21 C18         6.9480    0.0760    2.7720 ca        1 1GH     -0.017000
     22 C2          5.8430   -0.5000    3.4850 ca        1 1GH      0.150100
     23 O1          6.1280   -0.9090    4.7710 os        1 1GH     -0.315900
     24 C1          5.0510   -1.4690    5.5150 c3        1 1GH      0.108700
     25 C19         8.2390    0.2410    3.3990 cc        1 1GH     -0.273600
     26 C22         8.9160    1.4190    3.6720 cd        1 1GH      0.284000
     27 C23         8.6480    2.8440    3.4910 c3        1 1GH     -0.141400
     28 O3         10.1470    1.0740    4.2760 os        1 1GH     -0.121100
     29 N5         10.2520   -0.2370    4.3800 nd        1 1GH     -0.370300
     30 C20         9.1450   -0.8170    3.8740 cc        1 1GH      0.354600
     31 C21         8.8740   -2.2640    3.7950 c3        1 1GH     -0.135400
     32 H3          1.4040    0.3370   -1.7200 hn        1 1GH      0.330500
     33 H6          2.1070   -0.1860    3.3420 h1        1 1GH      0.072700
     34 H71C       -0.2630   -0.4660    4.0220 hc        1 1GH      0.059367
     35 H72C       -0.7580   -0.8570    2.3140 hc        1 1GH      0.059367
     36 H73C        0.3550   -1.9730    3.2130 hc        1 1GH      0.059367
     37 H9          0.9670    1.5380    4.6780 ha        1 1GH      0.144000
     38 H12         0.1650    3.7120    0.3160 h4        1 1GH      0.024100
     39 H11        -0.1120    5.0820    2.4240 ha        1 1GH      0.148000
     40 H10         0.3030    3.9640    4.6510 ha        1 1GH      0.142000
     41 H15         4.2310    0.8320   -2.2210 h4        1 1GH      0.033100
     42 H17         7.6060    0.8960    0.8990 ha        1 1GH      0.160000
     43 HA          3.7760   -1.1110    3.4300 ha        1 1GH      0.146000
     44 H11C        5.5150   -1.6930    6.5090 h1        1 1GH      0.048033
     45 H12C        4.2200   -0.7310    5.6250 h1        1 1GH      0.048033
     46 H13C        4.6830   -2.4060    5.0310 h1        1 1GH      0.048033
     47 H231        7.9320    2.9900    2.6430 hc        1 1GH      0.066700
     48 H232        9.5950    3.3990    3.2740 hc        1 1GH      0.066700
     49 H233        8.1950    3.2680    4.4240 hc        1 1GH      0.066700
     50 H211        8.9170   -2.5940    2.7260 hc        1 1GH      0.061033
     51 H212        7.8470   -2.4650    4.1920 hc        1 1GH      0.061033
     52 H213        9.6150   -2.8600    4.3830 hc        1 1GH      0.061033
@<TRIPOS>BOND
     1    1    2 2   
     2    2    3 1   
     3    2   12 1   
     4    3    4 1   
     5    3   14 1   
     6    4    5 1   
     7    4   11 1   
     8    4   33 1   
     9    5    6 ar  
    10    5   10 ar  
    11    6    7 ar  
    12    7    8 ar  
    13    7   38 1   
    14    8    9 ar  
    15    8   39 1   
    16    9   10 ar  
    17    9   40 1   
    18   10   37 1   
    19   11   34 1   
    20   11   35 1   
    21   11   36 1   
    22   12   13 1   
    23   12   32 1   
    24   13   14 ar  
    25   13   15 ar  
    26   14   18 ar  
    27   15   16 ar  
    28   15   41 1   
    29   16   17 ar  
    30   17   18 ar  
    31   17   20 ar  
    32   18   19 ar  
    33   19   22 ar  
    34   19   43 1   
    35   20   21 ar  
    36   20   42 1   
    37   21   22 ar  
    38   21   25 1   
    39   22   23 1   
    40   23   24 1   
    41   24   44 1   
    42   24   45 1   
    43   24   46 1   
    44   25   26 2   
    45   25   30 1   
    46   26   27 1   
    47   26   28 1   
    48   27   47 1   
    49   27   48 1   
    50   27   49 1   
    51   28   29 1   
    52   29   30 2   
    53   30   31 1   
    54   31   50 1   
    55   31   51 1   
    56   31   52 1   
@<TRIPOS>SUBSTRUCTURE
     1 1GH         1 TEMP              0 ****  ****    0 ROOT
