@<TRIPOS>MOLECULE
1GH
   52    47     1     0     0
SMALL
bcc


@<TRIPOS>ATOM
      1 O2         -4.2650   -0.2880   -2.5560 o         1 1GH     -0.310000
      2 C13        -3.0490   -0.3040   -2.5490 c1        1 1GH      0.360000
      3 N1         -2.2310   -0.2880   -1.4100 n2        1 1GH     -0.179000
      4 C6         -2.6760   -0.1930   -0.0640 c3        1 1GH      0.057000
      5 C8         -3.6400    0.9660    0.0680 c2        1 1GH     -0.046000
      6 N2         -3.8370    1.8110   -0.9830 n1        1 1GH     -0.153000
      7 C12        -4.6670    2.8830   -0.8500 c1        1 1GH     -0.117000
      8 C11        -5.3110    3.1170    0.3540 c1        1 1GH     -0.117000
      9 C10        -5.1140    2.2720    1.4080 c1        1 1GH     -0.085000
     10 C9         -4.2830    1.1980    1.2740 c2        1 1GH     -0.172000
     11 C7         -3.3740   -1.4750    0.3280 c3        1 1GH     -0.218000
     12 N3         -2.2180   -0.3550   -3.6780 n3        1 1GH     -0.255000
     13 C14        -0.8480   -0.3700   -3.2230 c2        1 1GH     -0.052000
     14 C5         -0.8560   -0.3290   -1.8480 c2        1 1GH     -0.016000
     15 C15         0.3710   -0.4150   -3.9170 c1        1 1GH     -0.046000
     16 N4          1.5560   -0.4190   -3.2240 n1        1 1GH     -0.115000
     17 C16         1.5510   -0.3780   -1.8280 c1        1 1GH     -0.035000
     18 C4          0.3550   -0.3330   -1.1430 c1        1 1GH      0.001000
     19 C3          0.3520   -0.2820    0.2630 c1        1 1GH     -0.214000
     20 C17         2.7680   -0.3730   -1.1210 c1        1 1GH     -0.059000
     21 C18         2.7640   -0.3220    0.2680 c1        1 1GH     -0.013000
     22 C2          1.5550   -0.2770    0.9610 c1        1 1GH      0.102000
     23 O1          1.7700   -0.1900    2.3470 os        1 1GH     -0.204000
     24 C1          1.0260   -1.1210    3.1000 c3        1 1GH     -0.080000
     25 C19         4.1670   -0.3240    0.8360 c2        1 1GH     -0.149000
     26 C22         4.9360   -1.4350    1.0810 c1        1 1GH      0.017000
     27 C23         4.5820   -2.8600    0.7140 c2        1 1GH     -0.163500
     28 O3          6.0970   -1.0230    1.6440 os        1 1GH     -0.064000
     29 N5          6.0540    0.3610    1.7540 n2        1 1GH     -0.034000
     30 C20         4.8720    0.7830    1.2580 c1        1 1GH     -0.083000
     31 C21         4.4270    2.2250    1.1250 c2        1 1GH     -0.163500
     32 H3         -2.4950   -0.3620   -4.5470 hn        1 1GH      0.244000
     33 H6         -1.9110   -0.0480    0.5220 h1        1 1GH      0.112000
     34 H71C       -3.1710   -1.6850    1.2630 hc        1 1GH      0.098333
     35 H72C       -3.0610   -2.2060   -0.2460 hc        1 1GH      0.098333
     36 H73C       -4.3420   -1.3670    0.2190 hc        1 1GH      0.098333
     37 H9         -4.1420    0.5930    2.0260 ha        1 1GH      0.143000
     38 H12        -4.8080    3.4870   -1.6040 ha        1 1GH      0.154500
     39 H11        -5.9060    3.8850    0.4490 ha        1 1GH      0.154500
     40 H10        -5.5680    2.4350    2.2570 ha        1 1GH      0.142000
     41 H15         0.3770   -0.4330   -4.8920 ha        1 1GH      0.170000
     42 H17         3.6140   -0.4040   -1.6050 ha        1 1GH      0.162000
     43 HA         -0.4910   -0.2500    0.7470 ha        1 1GH      0.146000
     44 H11C        1.0070   -1.9820    2.6300 h1        1 1GH      0.087000
     45 H12C        0.1080   -0.7900    3.2150 h1        1 1GH      0.087000
     46 H13C        1.4430   -1.2380    3.9810 h1        1 1GH      0.087000
     47 H231        4.5420   -2.9470   -0.2610 ha        1 1GH      0.104000
     48 H232        3.7090   -3.0890    1.0980 ha        1 1GH      0.104000
     49 H233        5.2650   -3.4680    1.0690 ha        1 1GH      0.104000
     50 H211        4.4900    2.5000    0.1860 ha        1 1GH      0.104000
     51 H212        5.0050    2.7970    1.6720 ha        1 1GH      0.104000
     52 H213        3.5000    2.3100    1.4300 ha        1 1GH      0.104000
@<TRIPOS>BOND
     1    1    2 1   
     2    2   12 1   
     3    3    4 1   
     4    3   14 1   
     5    4    5 1   
     6    4   11 1   
     7    4   33 1   
     8    5    6 1   
     9    5   10 1   
    10    7    8 1   
    11    7   38 1   
    12    8   39 1   
    13    9   10 1   
    14    9   40 1   
    15   10   37 1   
    16   11   34 1   
    17   11   35 1   
    18   11   36 1   
    19   12   13 1   
    20   12   32 1   
    21   13   14 1   
    22   13   15 1   
    23   14   18 1   
    24   15   41 1   
    25   16   17 1   
    26   17   20 1   
    27   18   19 1   
    28   19   43 1   
    29   20   42 1   
    30   21   22 1   
    31   21   25 1   
    32   22   23 1   
    33   23   24 1   
    34   24   44 1   
    35   24   45 1   
    36   24   46 1   
    37   25   26 1   
    38   25   30 1   
    39   26   28 1   
    40   27   47 1   
    41   27   48 1   
    42   27   49 1   
    43   28   29 1   
    44   29   30 1   
    45   31   50 1   
    46   31   51 1   
    47   31   52 1   
@<TRIPOS>SUBSTRUCTURE
     1 1GH         1 TEMP              0 ****  ****    0 ROOT
