@<TRIPOS>MOLECULE
1GH
   52    56     1     0     0
SMALL
bcc


@<TRIPOS>ATOM
      1 O2         -4.6730   -1.8520    1.5130 o         1 1GH     -0.585500
      2 C13        -3.5640   -1.8430    0.9640 c         1 1GH      0.769500
      3 N1         -2.4660   -0.9090    1.2490 n         1 1GH     -0.276000
      4 C6         -2.8140    0.5090    1.2720 c3        1 1GH      0.039400
      5 C8         -3.4280    1.0650   -0.0120 ca        1 1GH      0.376600
      6 N2         -3.9970    0.2250   -0.9080 nb        1 1GH     -0.679000
      7 C12        -4.5390    0.7670   -2.0140 ca        1 1GH      0.408200
      8 C11        -4.5430    2.1470   -2.2860 ca        1 1GH     -0.242300
      9 C10        -3.9500    3.0040   -1.3590 ca        1 1GH     -0.085000
     10 C9         -3.3820    2.4630   -0.2050 ca        1 1GH     -0.237300
     11 C7         -3.7460    0.8510    2.4380 c3        1 1GH     -0.100100
     12 N3         -3.1010   -2.8660    0.0610 n         1 1GH     -0.401100
     13 C14        -1.8020   -2.4900   -0.3290 ca        1 1GH     -0.123700
     14 C5         -1.3910   -1.3420    0.4100 ca        1 1GH     -0.023400
     15 C15        -0.9020   -3.0930   -1.2510 ca        1 1GH      0.418200
     16 N4          0.3240   -2.6360   -1.4320 nb        1 1GH     -0.641000
     17 C16         0.7640   -1.5690   -0.6750 ca        1 1GH      0.357600
     18 C4         -0.0480   -0.8970    0.2990 ca        1 1GH     -0.063300
     19 C3          0.5260    0.1160    1.1050 ca        1 1GH     -0.216000
     20 C17         2.1110   -1.1140   -0.8610 ca        1 1GH     -0.123300
     21 C18         2.6470   -0.0960   -0.1050 ca        1 1GH     -0.017000
     22 C2          1.8330    0.5120    0.9090 ca        1 1GH      0.150100
     23 O1          2.4600    1.4930    1.6490 os        1 1GH     -0.315900
     24 C1          1.6780    2.1310    2.6520 c3        1 1GH      0.108700
     25 C19         4.0030    0.3400   -0.3390 cc        1 1GH     -0.273600
     26 C22         4.5330    0.9250   -1.4790 cd        1 1GH      0.284000
     27 C23         4.0120    1.3300   -2.7830 c3        1 1GH     -0.141400
     28 O3          5.9060    1.1610   -1.2400 os        1 1GH     -0.121100
     29 N5          6.2350    0.7510   -0.0290 nd        1 1GH     -0.370300
     30 C20         5.1460    0.2430    0.5830 cc        1 1GH      0.354600
     31 C21         5.0930   -0.3260    1.9420 c3        1 1GH     -0.135400
     32 H3         -3.7360   -3.2610   -0.5920 hn        1 1GH      0.330500
     33 H6         -1.8420    1.0710    1.4190 h1        1 1GH      0.072700
     34 H71C       -4.7240    0.3200    2.3380 hc        1 1GH      0.059367
     35 H72C       -3.2780    0.5570    3.4070 hc        1 1GH      0.059367
     36 H73C       -3.9250    1.9530    2.4380 hc        1 1GH      0.059367
     37 H9         -2.9070    3.1100    0.5450 ha        1 1GH      0.143000
     38 H12        -4.9970    0.0490   -2.7190 h4        1 1GH      0.024100
     39 H11        -5.0030    2.5310   -3.2060 ha        1 1GH      0.148000
     40 H10        -3.9290    4.0900   -1.5330 ha        1 1GH      0.142000
     41 H15        -1.2060   -3.9690   -1.8510 h4        1 1GH      0.033100
     42 H17         2.7310   -1.6070   -1.6300 ha        1 1GH      0.160000
     43 HA         -0.0730    0.5510    1.9170 ha        1 1GH      0.146000
     44 H11C        0.7880    2.6340    2.2000 h1        1 1GH      0.048033
     45 H12C        1.3610    1.3960    3.4320 h1        1 1GH      0.048033
     46 H13C        2.3820    2.8870    3.0840 h1        1 1GH      0.048033
     47 H231        3.7200    2.4110   -2.7570 hc        1 1GH      0.066700
     48 H232        4.7890    1.1940   -3.5770 hc        1 1GH      0.066700
     49 H233        3.1110    0.7180   -3.0380 hc        1 1GH      0.066700
     50 H211        4.9470   -1.4340    1.8770 hc        1 1GH      0.061033
     51 H212        6.0300   -0.1230    2.5160 hc        1 1GH      0.061033
     52 H213        4.2250    0.1200    2.4910 hc        1 1GH      0.061033
@<TRIPOS>BOND
     1    1    2 2   
     2    2    3 1   
     3    2   12 1   
     4    3    4 1   
     5    3   14 1   
     6    4    5 1   
     7    4   11 1   
     8    4   33 1   
     9    5    6 ar  
    10    5   10 ar  
    11    6    7 ar  
    12    7    8 ar  
    13    7   38 1   
    14    8    9 ar  
    15    8   39 1   
    16    9   10 ar  
    17    9   40 1   
    18   10   37 1   
    19   11   34 1   
    20   11   35 1   
    21   11   36 1   
    22   12   13 1   
    23   12   32 1   
    24   13   14 ar  
    25   13   15 ar  
    26   14   18 ar  
    27   15   16 ar  
    28   15   41 1   
    29   16   17 ar  
    30   17   18 ar  
    31   17   20 ar  
    32   18   19 ar  
    33   19   22 ar  
    34   19   43 1   
    35   20   21 ar  
    36   20   42 1   
    37   21   22 ar  
    38   21   25 1   
    39   22   23 1   
    40   23   24 1   
    41   24   44 1   
    42   24   45 1   
    43   24   46 1   
    44   25   26 2   
    45   25   30 1   
    46   26   27 1   
    47   26   28 1   
    48   27   47 1   
    49   27   48 1   
    50   27   49 1   
    51   28   29 1   
    52   29   30 2   
    53   30   31 1   
    54   31   50 1   
    55   31   51 1   
    56   31   52 1   
@<TRIPOS>SUBSTRUCTURE
     1 1GH         1 TEMP              0 ****  ****    0 ROOT
