@<TRIPOS>MOLECULE
1GJ
   43    46     1     0     0
SMALL
bcc


@<TRIPOS>ATOM
      1 O01        -0.1550    0.3980    0.1100 oh        1 1GJ     -0.491100
      2 C02         1.2160    0.3270    0.1110 ca        1 1GJ      0.179100
      3 C03         1.9550   -0.0190    1.2540 ca        1 1GJ     -0.255000
      4 C04         3.3420   -0.0690    1.1750 ca        1 1GJ     -0.039000
      5 C05         4.0150    0.2180   -0.0190 ca        1 1GJ     -0.119800
      6 C06         5.4650    0.1930   -0.0570 cc        1 1GJ     -0.016300
      7 C07         6.3790    1.2810   -0.0220 ca        1 1GJ     -0.122000
      8 C08         6.2700    2.6840    0.0320 ca        1 1GJ     -0.032000
      9 C09         7.4170    3.4360    0.0560 ca        1 1GJ     -0.172000
     10 C10         8.7060    2.8320    0.0270 ca        1 1GJ     -0.052000
     11 C11         8.8600    1.4690   -0.0250 ca        1 1GJ     -0.142300
     12 C12        10.2320    0.8150   -0.0540 c3        1 1GJ      0.697200
     13 F13        11.2880    1.6980   -0.0310 f         1 1GJ     -0.238967
     14 F14        10.4860   -0.0240    1.0040 f         1 1GJ     -0.238967
     15 F15        10.4750    0.0430   -1.1630 f         1 1GJ     -0.238967
     16 C16         7.6980    0.6480   -0.0530 ca        1 1GJ     -0.053000
     17 N17         7.5640   -0.7180   -0.1020 nc        1 1GJ     -0.264400
     18 N18         6.2500   -0.9670   -0.0980 na        1 1GJ      0.179800
     19 C19         5.7110   -2.3250   -0.1520 c3        1 1GJ      0.093600
     20 C20         5.7990   -2.9730   -1.5010 ca        1 1GJ     -0.119300
     21 C21         7.0430   -3.2920   -2.0540 ca        1 1GJ     -0.102000
     22 C22         7.1110   -3.9340   -3.2900 ca        1 1GJ     -0.134500
     23 C23         5.9410   -4.2610   -3.9750 ca        1 1GJ     -0.116000
     24 C24         4.6990   -3.9450   -3.4240 ca        1 1GJ     -0.134500
     25 C25         4.6270   -3.2980   -2.1910 ca        1 1GJ     -0.102000
     26 C26         3.2530    0.5620   -1.1580 ca        1 1GJ      0.192100
     27 O27         3.9340    0.8330   -2.3160 oh        1 1GJ     -0.474100
     28 C28         1.8530    0.6190   -1.1010 ca        1 1GJ     -0.258000
     29 H1         -0.4680    0.1890    1.0030 ho        1 1GJ      0.427000
     30 H2          1.4430   -0.2440    2.1990 ha        1 1GJ      0.142000
     31 H3          3.9280   -0.3320    2.0710 ha        1 1GJ      0.147000
     32 H4          5.2740    3.1520    0.0500 ha        1 1GJ      0.139000
     33 H5          7.3640    4.5340    0.0960 ha        1 1GJ      0.138000
     34 H6          9.5930    3.4870    0.0480 ha        1 1GJ      0.148000
     35 H7          6.2800   -2.9570    0.5920 h1        1 1GJ      0.078700
     36 H8          4.6340   -2.2570    0.1790 h1        1 1GJ      0.078700
     37 H9          7.9700   -3.0330   -1.5170 ha        1 1GJ      0.143500
     38 H10         8.0910   -4.1790   -3.7250 ha        1 1GJ      0.135000
     39 H11         5.9970   -4.7680   -4.9500 ha        1 1GJ      0.133000
     40 H12         3.7760   -4.2020   -3.9630 ha        1 1GJ      0.135000
     41 H13         3.6450   -3.0450   -1.7640 ha        1 1GJ      0.143500
     42 H14         3.2870    1.0430   -3.0070 ho        1 1GJ      0.426000
     43 H15         1.2580    0.8870   -1.9840 ha        1 1GJ      0.158000
@<TRIPOS>BOND
     1    1    2 1   
     2    1   29 1   
     3    2    3 ar  
     4    2   28 ar  
     5    3    4 ar  
     6    3   30 1   
     7    4    5 ar  
     8    4   31 1   
     9    5    6 1   
    10    5   26 ar  
    11    6    7 2   
    12    6   18 1   
    13    7    8 ar  
    14    7   16 ar  
    15    8    9 ar  
    16    8   32 1   
    17    9   10 ar  
    18    9   33 1   
    19   10   11 ar  
    20   10   34 1   
    21   11   12 1   
    22   11   16 ar  
    23   12   13 1   
    24   12   14 1   
    25   12   15 1   
    26   16   17 2   
    27   17   18 1   
    28   18   19 1   
    29   19   20 1   
    30   19   35 1   
    31   19   36 1   
    32   20   21 ar  
    33   20   25 ar  
    34   21   22 ar  
    35   21   37 1   
    36   22   23 ar  
    37   22   38 1   
    38   23   24 ar  
    39   23   39 1   
    40   24   25 ar  
    41   24   40 1   
    42   25   41 1   
    43   26   27 1   
    44   26   28 ar  
    45   27   42 1   
    46   28   43 1   
@<TRIPOS>SUBSTRUCTURE
     1 1GJ         1 TEMP              0 ****  ****    0 ROOT
