@<TRIPOS>MOLECULE
1GJ
   43    36     1     0     0
SMALL
bcc


@<TRIPOS>ATOM
      1 O01        -6.2900    0.5970    0.2070 oh        1 1GJ     -0.242000
      2 C02        -4.8830    0.4910    0.2610 c2        1 1GJ      0.131000
      3 C03        -4.1450    0.4750   -0.9140 c1        1 1GJ     -0.193000
      4 C04        -2.7610    0.4740   -0.8620 c1        1 1GJ     -0.039500
      5 C05        -2.1120    0.4900    0.3640 c1        1 1GJ     -0.115000
      6 C06        -0.5860    0.5920    0.4190 c2        1 1GJ     -0.002000
      7 C07         0.1980    1.7370    0.3400 c1        1 1GJ     -0.115000
      8 C08        -0.1310    3.1010    0.2300 c1        1 1GJ     -0.039500
      9 C09         0.8760    4.0570    0.1710 c1        1 1GJ     -0.118250
     10 C10         2.2060    3.6660    0.2210 c1        1 1GJ     -0.118250
     11 C11         2.5300    2.3230    0.3290 c1        1 1GJ     -0.133000
     12 C12         4.0250    2.1040    0.4580 c3        1 1GJ      0.476000
     13 F13         4.4860    2.7850    1.5130 f         1 1GJ     -0.167000
     14 F14         4.2720    0.7980    0.6270 f         1 1GJ     -0.167000
     15 F15         4.6370    2.5330   -0.6550 f         1 1GJ     -0.167000
     16 C16         1.5070    1.3530    0.3880 c1        1 1GJ     -0.052000
     17 N17         1.5440   -0.0150    0.4970 n1        1 1GJ     -0.085000
     18 N18         0.2450   -0.4790    0.5150 n2        1 1GJ     -0.033000
     19 C19         0.3320   -1.9010    0.7890 c2        1 1GJ      0.026000
     20 C20         1.1190   -2.5930   -0.3380 c2        1 1GJ     -0.116000
     21 C21         0.4520   -3.4040   -1.2550 c2        1 1GJ     -0.112000
     22 C22         1.1610   -4.0370   -2.2650 c1        1 1GJ     -0.137000
     23 C23         2.5380   -3.8640   -2.3620 c1        1 1GJ     -0.118250
     24 C24         3.2040   -3.0560   -1.4480 c1        1 1GJ     -0.118250
     25 C25         2.4920   -2.4190   -0.4340 c1        1 1GJ     -0.095000
     26 C26        -2.8490    0.5060    1.5380 c1        1 1GJ      0.133000
     27 O27        -2.1940    0.6050    2.7760 o         1 1GJ     -0.246000
     28 C28        -4.2350    0.5060    1.4860 c2        1 1GJ     -0.306000
     29 H1         -6.6530    0.0360    0.7990 ho        1 1GJ      0.223000
     30 H2         -4.6020    0.4640   -1.7790 ha        1 1GJ      0.160000
     31 H3         -2.2390    0.4630   -1.6920 ha        1 1GJ      0.146000
     32 H4         -1.0690    3.3760    0.1950 ha        1 1GJ      0.146000
     33 H5          0.6460    5.0120    0.0950 ha        1 1GJ      0.139500
     34 H6          2.9160    4.3400    0.1800 ha        1 1GJ      0.139500
     35 H7         -0.5740   -2.2820    0.8370 ha        1 1GJ      0.124000
     36 H8          0.7900   -2.0410    1.6380 ha        1 1GJ      0.124000
     37 H9         -0.5190   -3.5260   -1.1870 ha        1 1GJ      0.131000
     38 H10         0.6920   -4.6070   -2.9090 ha        1 1GJ      0.133000
     39 H11         3.0400   -4.3130   -3.0780 ha        1 1GJ      0.139500
     40 H12         4.1740   -2.9340   -1.5170 ha        1 1GJ      0.139500
     41 H13         2.9570   -1.8530    0.2060 ha        1 1GJ      0.156000
     42 H14        -2.4390   -0.0780    3.2990 ho        1 1GJ      0.226000
     43 H15        -4.7580    0.5170    2.3200 ha        1 1GJ      0.141000
@<TRIPOS>BOND
     1    1    2 1   
     2    1   29 1   
     3    2    3 1   
     4    2   28 1   
     5    3   30 1   
     6    4    5 1   
     7    4   31 1   
     8    5    6 1   
     9    6    7 1   
    10    6   18 1   
    11    7    8 1   
    12    8   32 1   
    13    9   10 1   
    14    9   33 1   
    15   10   34 1   
    16   11   12 1   
    17   11   16 1   
    18   12   13 1   
    19   12   14 1   
    20   12   15 1   
    21   17   18 1   
    22   19   20 1   
    23   19   35 1   
    24   19   36 1   
    25   20   21 1   
    26   20   25 1   
    27   21   22 1   
    28   21   37 1   
    29   22   38 1   
    30   23   24 1   
    31   23   39 1   
    32   24   40 1   
    33   25   41 1   
    34   26   28 1   
    35   27   42 1   
    36   28   43 1   
@<TRIPOS>SUBSTRUCTURE
     1 1GJ         1 TEMP              0 ****  ****    0 ROOT
