@<TRIPOS>MOLECULE
1GJ
   43    46     1     0     0
SMALL
bcc


@<TRIPOS>ATOM
      1 O01        -0.1510    0.4310    0.1090 oh        1 1GJ     -0.491100
      2 C02         1.2200    0.3540    0.1100 ca        1 1GJ      0.179100
      3 C03         1.9580    0.0070    1.2530 ca        1 1GJ     -0.255000
      4 C04         3.3440   -0.0500    1.1750 ca        1 1GJ     -0.039000
      5 C05         4.0180    0.2300   -0.0210 ca        1 1GJ     -0.119800
      6 C06         5.4680    0.1970   -0.0590 cc        1 1GJ     -0.016300
      7 C07         6.3880    1.2800   -0.0290 ca        1 1GJ     -0.122000
      8 C08         6.2850    2.6840    0.0200 ca        1 1GJ     -0.032000
      9 C09         7.4370    3.4300    0.0400 ca        1 1GJ     -0.172000
     10 C10         8.7220    2.8190    0.0140 ca        1 1GJ     -0.052000
     11 C11         8.8690    1.4550   -0.0340 ca        1 1GJ     -0.142300
     12 C12        10.2380    0.7940   -0.0600 c3        1 1GJ      0.697200
     13 F13        11.2980    1.6710   -0.0410 f         1 1GJ     -0.238967
     14 F14        10.4880   -0.0420    1.0010 f         1 1GJ     -0.238967
     15 F15        10.4760    0.0170   -1.1670 f         1 1GJ     -0.238967
     16 C16         7.7040    0.6390   -0.0580 ca        1 1GJ     -0.053000
     17 N17         7.5620   -0.7260   -0.1020 nc        1 1GJ     -0.264400
     18 N18         6.2460   -0.9670   -0.0960 na        1 1GJ      0.179800
     19 C19         5.7010   -2.3230   -0.1460 c3        1 1GJ      0.093600
     20 C20         5.7860   -2.9770   -1.4910 ca        1 1GJ     -0.119300
     21 C21         7.0290   -3.3060   -2.0420 ca        1 1GJ     -0.102000
     22 C22         7.0950   -3.9530   -3.2750 ca        1 1GJ     -0.134500
     23 C23         5.9240   -4.2760   -3.9610 ca        1 1GJ     -0.116000
     24 C24         4.6830   -3.9500   -3.4130 ca        1 1GJ     -0.134500
     25 C25         4.6130   -3.2980   -2.1820 ca        1 1GJ     -0.102000
     26 C26         3.2570    0.5730   -1.1610 ca        1 1GJ      0.192100
     27 O27         3.9390    0.8370   -2.3200 oh        1 1GJ     -0.474100
     28 C28         1.8580    0.6380   -1.1040 ca        1 1GJ     -0.258000
     29 H1         -0.4650    0.2270    1.0030 ho        1 1GJ      0.427000
     30 H2          1.4440   -0.2110    2.2000 ha        1 1GJ      0.142000
     31 H3          3.9290   -0.3140    2.0710 ha        1 1GJ      0.147000
     32 H4          5.2930    3.1570    0.0360 ha        1 1GJ      0.139000
     33 H5          7.3890    4.5280    0.0770 ha        1 1GJ      0.138000
     34 H6          9.6130    3.4690    0.0320 ha        1 1GJ      0.148000
     35 H7          6.2660   -2.9540    0.6020 h1        1 1GJ      0.078700
     36 H8          4.6240   -2.2490    0.1840 h1        1 1GJ      0.078700
     37 H9          7.9570   -3.0510   -1.5040 ha        1 1GJ      0.143500
     38 H10         8.0740   -4.2060   -3.7080 ha        1 1GJ      0.135000
     39 H11         5.9780   -4.7870   -4.9330 ha        1 1GJ      0.133000
     40 H12         3.7590   -4.2030   -3.9510 ha        1 1GJ      0.135000
     41 H13         3.6320   -3.0370   -1.7570 ha        1 1GJ      0.143500
     42 H14         3.2930    1.0480   -3.0110 ho        1 1GJ      0.426000
     43 H15         1.2630    0.9060   -1.9870 ha        1 1GJ      0.158000
@<TRIPOS>BOND
     1    1    2 1   
     2    1   29 1   
     3    2    3 ar  
     4    2   28 ar  
     5    3    4 ar  
     6    3   30 1   
     7    4    5 ar  
     8    4   31 1   
     9    5    6 1   
    10    5   26 ar  
    11    6    7 2   
    12    6   18 1   
    13    7    8 ar  
    14    7   16 ar  
    15    8    9 ar  
    16    8   32 1   
    17    9   10 ar  
    18    9   33 1   
    19   10   11 ar  
    20   10   34 1   
    21   11   12 1   
    22   11   16 ar  
    23   12   13 1   
    24   12   14 1   
    25   12   15 1   
    26   16   17 2   
    27   17   18 1   
    28   18   19 1   
    29   19   20 1   
    30   19   35 1   
    31   19   36 1   
    32   20   21 ar  
    33   20   25 ar  
    34   21   22 ar  
    35   21   37 1   
    36   22   23 ar  
    37   22   38 1   
    38   23   24 ar  
    39   23   39 1   
    40   24   25 ar  
    41   24   40 1   
    42   25   41 1   
    43   26   27 1   
    44   26   28 ar  
    45   27   42 1   
    46   28   43 1   
@<TRIPOS>SUBSTRUCTURE
     1 1GJ         1 TEMP              0 ****  ****    0 ROOT
