@<TRIPOS>MOLECULE
1GJ
   43    46     1     0     0
SMALL
bcc


@<TRIPOS>ATOM
      1 O01         5.6670   -2.9660    0.4450 oh        1 1GJ     -0.489100
      2 C02         4.4040   -2.4370    0.3470 ca        1 1GJ      0.173100
      3 C03         3.7110   -2.2460    1.5590 ca        1 1GJ     -0.196000
      4 C04         2.4330   -1.7110    1.5260 ca        1 1GJ     -0.047000
      5 C05         1.8220   -1.3540    0.3120 ca        1 1GJ     -0.170800
      6 C06         0.4740   -0.8210    0.3000 cc        1 1GJ     -0.048300
      7 C07        -0.6990   -1.3930   -0.2650 ca        1 1GJ     -0.141000
      8 C08        -1.0000   -2.5740   -0.9730 ca        1 1GJ     -0.048000
      9 C09        -2.2970   -2.8010   -1.3580 ca        1 1GJ     -0.161000
     10 C10        -3.3370   -1.8760   -1.0560 ca        1 1GJ     -0.054000
     11 C11        -3.0910   -0.7170   -0.3660 ca        1 1GJ     -0.137300
     12 C12        -4.1950    0.2760   -0.0380 c3        1 1GJ      0.697200
     13 F13        -5.4420   -0.0840   -0.4940 f         1 1GJ     -0.236633
     14 F14        -4.3860    0.4920    1.3050 f         1 1GJ     -0.236633
     15 F15        -4.0050    1.5320   -0.5610 f         1 1GJ     -0.236633
     16 C16        -1.7600   -0.4380    0.0540 ca        1 1GJ     -0.055000
     17 N17        -1.2400    0.6230    0.7560 nc        1 1GJ     -0.255400
     18 N18         0.0660    0.3800    0.8950 na        1 1GJ      0.183800
     19 C19         0.9670    1.3270    1.5540 c3        1 1GJ      0.090600
     20 C20         1.2600    2.5530    0.7430 ca        1 1GJ     -0.127300
     21 C21         0.2690    3.5190    0.5440 ca        1 1GJ     -0.101500
     22 C22         0.5600    4.6750   -0.1810 ca        1 1GJ     -0.134000
     23 C23         1.8380    4.8690   -0.7050 ca        1 1GJ     -0.113000
     24 C24         2.8270    3.9050   -0.5080 ca        1 1GJ     -0.134000
     25 C25         2.5390    2.7460    0.2120 ca        1 1GJ     -0.101500
     26 C26         2.5290   -1.5620   -0.8890 ca        1 1GJ      0.198100
     27 O27         2.0260   -1.2620   -2.1280 oh        1 1GJ     -0.492100
     28 C28         3.8270   -2.1020   -0.8800 ca        1 1GJ     -0.257000
     29 H1          6.0280   -3.0570   -0.4500 ho        1 1GJ      0.426000
     30 H2          4.1900   -2.5280    2.5060 ha        1 1GJ      0.158000
     31 H3          1.8780   -1.5710    2.4670 ha        1 1GJ      0.144000
     32 H4         -0.1950   -3.2880   -1.2050 ha        1 1GJ      0.144000
     33 H5         -2.5620   -3.7130   -1.9130 ha        1 1GJ      0.142000
     34 H6         -4.3620   -2.1120   -1.3920 ha        1 1GJ      0.152000
     35 H7          0.4910    1.6370    2.5310 h1        1 1GJ      0.082700
     36 H8          1.9210    0.7690    1.7770 h1        1 1GJ      0.082700
     37 H9         -0.7420    3.3650    0.9530 ha        1 1GJ      0.144500
     38 H10        -0.2220    5.4320   -0.3390 ha        1 1GJ      0.137000
     39 H11         2.0660    5.7820   -1.2760 ha        1 1GJ      0.135000
     40 H12         3.8350    4.0560   -0.9220 ha        1 1GJ      0.137000
     41 H13         3.3220    1.9870    0.3620 ha        1 1GJ      0.144500
     42 H14         1.1220   -0.9210   -2.0210 ho        1 1GJ      0.440000
     43 H15         4.3580   -2.2500   -1.8290 ha        1 1GJ      0.158000
@<TRIPOS>BOND
     1    1    2 1   
     2    1   29 1   
     3    2    3 ar  
     4    2   28 ar  
     5    3    4 ar  
     6    3   30 1   
     7    4    5 ar  
     8    4   31 1   
     9    5    6 1   
    10    5   26 ar  
    11    6    7 2   
    12    6   18 1   
    13    7    8 ar  
    14    7   16 ar  
    15    8    9 ar  
    16    8   32 1   
    17    9   10 ar  
    18    9   33 1   
    19   10   11 ar  
    20   10   34 1   
    21   11   12 1   
    22   11   16 ar  
    23   12   13 1   
    24   12   14 1   
    25   12   15 1   
    26   16   17 2   
    27   17   18 1   
    28   18   19 1   
    29   19   20 1   
    30   19   35 1   
    31   19   36 1   
    32   20   21 ar  
    33   20   25 ar  
    34   21   22 ar  
    35   21   37 1   
    36   22   23 ar  
    37   22   38 1   
    38   23   24 ar  
    39   23   39 1   
    40   24   25 ar  
    41   24   40 1   
    42   25   41 1   
    43   26   27 1   
    44   26   28 ar  
    45   27   42 1   
    46   28   43 1   
@<TRIPOS>SUBSTRUCTURE
     1 1GJ         1 TEMP              0 ****  ****    0 ROOT
