@<TRIPOS>MOLECULE
1GK
   40    42     1     0     0
SMALL
bcc


@<TRIPOS>ATOM
      1 C1          0.4150   -1.5900    0.3320 c3        1 1GK     -0.070800
      2 C2          1.6130   -0.7290    0.1960 ca        1 1GK     -0.011300
      3 C3          2.5550   -0.6720    1.2330 ca        1 1GK     -0.133000
      4 C4          3.7050    0.1020    1.1080 ca        1 1GK     -0.091000
      5 C5          3.9310    0.8370   -0.0580 ca        1 1GK     -0.142000
      6 C6          2.9970    0.8020   -1.0880 ca        1 1GK     -0.113000
      7 C7          1.8350    0.0280   -0.9680 ca        1 1GK     -0.184600
      8 C8          0.8730   -0.0200   -2.0880 c         1 1GK      0.617300
      9 O9          0.3990   -1.0700   -2.5350 o         1 1GK     -0.499100
     10 C10         0.4750    1.2690   -2.6680 cc        1 1GK     -0.248600
     11 C11         0.7270    2.5650   -2.1470 cd        1 1GK      0.011700
     12 N12         0.1580    3.5040   -2.9730 na        1 1GK     -0.170100
     13 C13        -0.4740    2.8330   -4.0460 cd        1 1GK     -0.309900
     14 C14        -0.2820    1.4340   -3.8610 cc        1 1GK      0.045000
     15 C15        -1.1950    3.3930   -5.1480 c         1 1GK      0.596700
     16 O16        -1.7240    2.7970   -6.0790 o         1 1GK     -0.437100
     17 N17        -1.3210    4.9110   -5.1790 ny        1 1GK     -0.684800
     18 C18        -2.1910    5.4030   -6.3010 c3        1 1GK      0.114500
     19 C19        -2.2630    6.8690   -6.3040 cc        1 1GK      0.099000
     20 C20        -2.0120    7.8410   -7.2550 cd        1 1GK     -0.140300
     21 C21        -2.3970    9.1030   -6.6670 cd        1 1GK     -0.262300
     22 C22        -2.8530    8.8270   -5.3910 cc        1 1GK      0.306600
     23 O23        -2.7850    7.4600   -5.1370 os        1 1GK     -0.388800
     24 H1         -0.5100   -1.0320    0.0440 hc        1 1GK      0.060367
     25 H1A         0.5070   -2.4720   -0.3530 hc        1 1GK      0.060367
     26 H1B         0.2970   -1.9620    1.3790 hc        1 1GK      0.060367
     27 H3          2.3840   -1.2580    2.1500 ha        1 1GK      0.150000
     28 H4          4.4420    0.1270    1.9250 ha        1 1GK      0.148000
     29 H5          4.8490    1.4330   -0.1650 ha        1 1GK      0.143000
     30 H6          3.1840    1.3630   -2.0160 ha        1 1GK      0.126000
     31 H11         1.2770    2.8400   -1.2380 h4        1 1GK      0.213000
     32 H14        -0.6520    0.6400   -4.5150 ha        1 1GK      0.209000
     33 HN17       -0.3870    5.3210   -5.2760 hn        1 1GK      0.453800
     34 H18        -3.2160    4.9460   -6.1540 hx        1 1GK      0.129200
     35 H18A       -1.7660    5.0260   -7.2770 hx        1 1GK      0.129200
     36 H20        -1.6140    7.7050   -8.2600 ha        1 1GK      0.185000
     37 H21        -2.3360   10.0750   -7.1540 ha        1 1GK      0.193000
     38 H22        -3.2450    9.4200   -4.5650 h4        1 1GK      0.079100
     39 HN12        0.1840    4.4800   -2.8300 hn        1 1GK      0.302700
     40 H172       -1.7260    5.2380   -4.2950 hn        1 1GK      0.453800
@<TRIPOS>BOND
     1    1    2 1   
     2    1   24 1   
     3    1   25 1   
     4    1   26 1   
     5    2    3 ar  
     6    2    7 ar  
     7    3    4 ar  
     8    3   27 1   
     9    4    5 ar  
    10    4   28 1   
    11    5    6 ar  
    12    5   29 1   
    13    6    7 ar  
    14    6   30 1   
    15    7    8 1   
    16    8    9 2   
    17    8   10 1   
    18   10   11 2   
    19   10   14 1   
    20   11   12 1   
    21   11   31 1   
    22   12   13 1   
    23   12   39 1   
    24   13   14 2   
    25   13   15 1   
    26   14   32 1   
    27   15   16 2   
    28   15   17 1   
    29   17   18 1   
    30   17   33 1   
    31   17   40 1   
    32   18   19 1   
    33   18   34 1   
    34   18   35 1   
    35   19   20 2   
    36   19   23 1   
    37   20   21 1   
    38   20   36 1   
    39   21   22 2   
    40   21   37 1   
    41   22   23 1   
    42   22   38 1   
@<TRIPOS>SUBSTRUCTURE
     1 1GK         1 TEMP              0 ****  ****    0 ROOT
