@<TRIPOS>MOLECULE
1GK
   39    32     1     0     0
SMALL
bcc


@<TRIPOS>ATOM
      1 C1          1.2170    5.2640    0.3150 c3        1 1GK     -0.196000
      2 C2         -0.2050    4.9280    0.8080 c2        1 1GK     -0.023000
      3 C3         -1.1620    5.9320    0.8940 c2        1 1GK     -0.138000
      4 C4         -2.4030    5.6620    1.4450 c1        1 1GK     -0.113000
      5 C5         -2.6940    4.3870    1.9130 c1        1 1GK     -0.126000
      6 C6         -1.7420    3.3860    1.8280 c1        1 1GK     -0.126000
      7 C7         -0.4910    3.6580    1.2720 c1        1 1GK     -0.138000
      8 C8          0.5860    2.6230    1.3170 c2        1 1GK      0.342000
      9 O9          1.5440    2.7770    2.0440 o         1 1GK     -0.290000
     10 C10         0.4670    1.3780    0.4870 c2        1 1GK     -0.242000
     11 C11        -0.1770    1.2740   -0.7320 c1        1 1GK     -0.047000
     12 N12        -0.0920   -0.0220   -1.1430 n2        1 1GK     -0.155000
     13 C13         0.5980   -0.7250   -0.1920 c1        1 1GK     -0.169000
     14 C14         0.9420    0.1490    0.8180 c1        1 1GK     -0.048000
     15 C15         0.9210   -2.2220   -0.2370 c1        1 1GK      0.362000
     16 O16         1.4540   -2.7540    0.7090 o         1 1GK     -0.337000
     17 N17         0.4890   -3.0090   -1.3460 n3        1 1GK     -0.359000
     18 C18         1.2850   -4.1410   -1.7860 c3        1 1GK      0.025000
     19 C19         0.5760   -5.4460   -1.4040 c2        1 1GK     -0.092000
     20 C20         1.1560   -6.7060   -1.3600 c1        1 1GK     -0.163000
     21 C21         0.2030   -7.5970   -0.9320 c1        1 1GK     -0.198000
     22 C22        -0.9690   -6.8950   -0.7090 c1        1 1GK     -0.087000
     23 O23        -0.7340   -5.5680   -1.0020 os        1 1GK     -0.118000
     24 H1          1.3500    4.8880   -0.5790 hc        1 1GK      0.095000
     25 H1A         1.3290    6.2380    0.2800 hc        1 1GK      0.095000
     26 H1B         1.8760    4.8810    0.9330 hc        1 1GK      0.095000
     27 H3         -0.9570    6.8350    0.5630 ha        1 1GK      0.136000
     28 H4         -3.0770    6.3710    1.5050 ha        1 1GK      0.133000
     29 H5         -3.5730    4.1960    2.3030 ha        1 1GK      0.135500
     30 H6         -1.9480    2.4820    2.1590 ha        1 1GK      0.135500
     31 H11        -0.6180    2.0060   -1.2170 DU        1 1GK      0.191500
     32 H14         1.4380   -0.0750    1.6220 DU        1 1GK      0.191500
     33 HN17       -0.3110   -2.8310   -1.7470 hn        1 1GK      0.215000
     34 H18         2.1660   -4.1080   -1.3540 h1        1 1GK      0.125000
     35 H18A        1.3960   -4.1030   -2.7530 h1        1 1GK      0.125000
     36 H20         2.0760   -6.9200   -1.5920 DU        1 1GK      0.191500
     37 H21         0.3310   -8.5580   -0.8070 DU        1 1GK      0.191500
     38 H22        -1.8120   -7.2720   -0.4000 DU        1 1GK      0.191500
     39 HN12       -0.4360   -0.3630   -1.9200 DU        1 1GK      0.191500
@<TRIPOS>BOND
     1    1    2 1   
     2    1   24 1   
     3    1   25 1   
     4    1   26 1   
     5    2    3 1   
     6    2    7 1   
     7    3    4 1   
     8    3   27 1   
     9    4   28 1   
    10    5    6 1   
    11    5   29 1   
    12    6   30 1   
    13    7    8 1   
    14    8    9 1   
    15    8   10 1   
    16   10   11 1   
    17   10   14 1   
    18   11   12 1   
    19   12   13 1   
    20   13   14 1   
    21   15   16 1   
    22   15   17 1   
    23   17   18 1   
    24   17   33 1   
    25   18   19 1   
    26   18   34 1   
    27   18   35 1   
    28   19   20 1   
    29   19   23 1   
    30   20   21 1   
    31   21   22 1   
    32   22   23 1   
@<TRIPOS>SUBSTRUCTURE
     1 1GK         1 TEMP              0 ****  ****    0 ROOT
