@<TRIPOS>MOLECULE
1GK
   39    41     1     0     0
SMALL
bcc


@<TRIPOS>ATOM
      1 C1         -5.0690    1.2500    1.3710 c3        1 1GK     -0.070800
      2 C2         -4.9460   -0.0150    0.6110 ca        1 1GK     -0.030300
      3 C3         -5.9560   -0.9820    0.6940 ca        1 1GK     -0.138000
      4 C4         -5.8610   -2.1750   -0.0190 ca        1 1GK     -0.113000
      5 C5         -4.7490   -2.4200   -0.8240 ca        1 1GK     -0.144000
      6 C6         -3.7320   -1.4720   -0.9070 ca        1 1GK     -0.108000
      7 C7         -3.8230   -0.2710   -0.1940 ca        1 1GK     -0.158600
      8 C8         -2.7310    0.7300   -0.3230 c         1 1GK      0.622300
      9 O9         -2.9310    1.8550   -0.8000 o         1 1GK     -0.529100
     10 C10        -1.4180    0.3090    0.1400 cc        1 1GK     -0.262600
     11 C11        -1.0740   -0.9320    0.7230 cd        1 1GK     -0.071300
     12 N12         0.2730   -0.9280    1.0120 na        1 1GK     -0.156100
     13 C13         0.8100    0.3180    0.6460 cd        1 1GK     -0.213900
     14 C14        -0.2200    1.1010    0.1020 cc        1 1GK     -0.048000
     15 C15         2.2190    0.7220    0.8200 c         1 1GK      0.688700
     16 O16         2.5290    1.9220    0.9430 o         1 1GK     -0.576100
     17 N17         3.1740   -0.2950    0.9040 n         1 1GK     -0.549900
     18 C18         4.5780    0.0300    0.9250 c3        1 1GK      0.046700
     19 C19         5.2840   -0.1560   -0.3680 cc        1 1GK      0.197000
     20 C20         6.0440    0.6730   -1.1680 cd        1 1GK     -0.228300
     21 C21         6.4940   -0.1270   -2.2870 cd        1 1GK     -0.263300
     22 C22         5.9760   -1.3920   -2.1030 cc        1 1GK      0.244600
     23 O23         5.2270   -1.4420   -0.9270 os        1 1GK     -0.376800
     24 H1         -4.3610    1.2490    2.2380 hc        1 1GK      0.055700
     25 H1A        -4.8180    2.1240    0.7170 hc        1 1GK      0.055700
     26 H1B        -6.1060    1.3870    1.7640 hc        1 1GK      0.055700
     27 H3         -6.8370   -0.7900    1.3250 ha        1 1GK      0.136000
     28 H4         -6.6660   -2.9210    0.0500 ha        1 1GK      0.133000
     29 H5         -4.6760   -3.3570   -1.3960 ha        1 1GK      0.134000
     30 H6         -2.8540   -1.6590   -1.5450 ha        1 1GK      0.137000
     31 H11        -1.7130   -1.7940    0.9300 h4        1 1GK      0.183000
     32 H14        -0.1330    2.1190   -0.2760 ha        1 1GK      0.187000
     33 HN17        2.9590   -1.1550    0.4490 hn        1 1GK      0.301500
     34 H18         4.7120    1.1040    1.2500 h1        1 1GK      0.085700
     35 H18A        5.0630   -0.6450    1.6920 h1        1 1GK      0.085700
     36 H20         6.2660    1.7250   -1.0080 ha        1 1GK      0.169000
     37 H21         7.1160    0.2240   -3.1050 ha        1 1GK      0.164000
     38 H22         6.0160   -2.3300   -2.6480 h4        1 1GK      0.053100
     39 HN12        0.7640   -1.6380    1.4930 hn        1 1GK      0.305700
@<TRIPOS>BOND
     1    1    2 1   
     2    1   24 1   
     3    1   25 1   
     4    1   26 1   
     5    2    3 ar  
     6    2    7 ar  
     7    3    4 ar  
     8    3   27 1   
     9    4    5 ar  
    10    4   28 1   
    11    5    6 ar  
    12    5   29 1   
    13    6    7 ar  
    14    6   30 1   
    15    7    8 1   
    16    8    9 2   
    17    8   10 1   
    18   10   11 2   
    19   10   14 1   
    20   11   12 1   
    21   11   31 1   
    22   12   13 1   
    23   12   39 1   
    24   13   14 2   
    25   13   15 1   
    26   14   32 1   
    27   15   16 2   
    28   15   17 1   
    29   17   18 1   
    30   17   33 1   
    31   18   19 1   
    32   18   34 1   
    33   18   35 1   
    34   19   20 2   
    35   19   23 1   
    36   20   21 1   
    37   20   36 1   
    38   21   22 2   
    39   21   37 1   
    40   22   23 1   
    41   22   38 1   
@<TRIPOS>SUBSTRUCTURE
     1 1GK         1 TEMP              0 ****  ****    0 ROOT
