@<TRIPOS>MOLECULE
1GK
   40    42     1     0     0
SMALL
bcc


@<TRIPOS>ATOM
      1 C1          0.4190   -1.5870    0.3360 c3        1 1GK     -0.070800
      2 C2          1.6170   -0.7280    0.1950 ca        1 1GK     -0.011300
      3 C3          2.5620   -0.6710    1.2300 ca        1 1GK     -0.133000
      4 C4          3.7130    0.1020    1.1010 ca        1 1GK     -0.091000
      5 C5          3.9360    0.8360   -0.0660 ca        1 1GK     -0.142000
      6 C6          3.0000    0.8010   -1.0940 ca        1 1GK     -0.113000
      7 C7          1.8370    0.0280   -0.9700 ca        1 1GK     -0.184600
      8 C8          0.8720   -0.0200   -2.0870 c         1 1GK      0.617300
      9 O9          0.3960   -1.0700   -2.5320 o         1 1GK     -0.499100
     10 C10         0.4750    1.2690   -2.6680 cc        1 1GK     -0.248600
     11 C11         0.7290    2.5650   -2.1490 cd        1 1GK      0.011700
     12 N12         0.1590    3.5040   -2.9740 na        1 1GK     -0.170100
     13 C13        -0.4760    2.8330   -4.0450 cd        1 1GK     -0.309900
     14 C14        -0.2850    1.4340   -3.8590 cc        1 1GK      0.045000
     15 C15        -1.1990    3.3930   -5.1460 c         1 1GK      0.596700
     16 O16        -1.7310    2.7960   -6.0750 o         1 1GK     -0.437100
     17 N17        -1.3240    4.9100   -5.1770 n4        1 1GK     -0.684800
     18 C18        -2.1970    5.4020   -6.2980 c3        1 1GK      0.114500
     19 C19        -2.2680    6.8680   -6.3020 cc        1 1GK      0.099000
     20 C20        -2.0190    7.8400   -7.2540 cd        1 1GK     -0.140300
     21 C21        -2.4010    9.1020   -6.6650 cd        1 1GK     -0.262300
     22 C22        -2.8540    8.8270   -5.3890 cc        1 1GK      0.306600
     23 O23        -2.7870    7.4600   -5.1330 os        1 1GK     -0.388800
     24 H1         -0.5060   -1.0280    0.0490 hc        1 1GK      0.060367
     25 H1A         0.5090   -2.4700   -0.3490 hc        1 1GK      0.060367
     26 H1B         0.3030   -1.9570    1.3830 hc        1 1GK      0.060367
     27 H3          2.3930   -1.2550    2.1480 ha        1 1GK      0.150000
     28 H4          4.4520    0.1270    1.9170 ha        1 1GK      0.148000
     29 H5          4.8550    1.4300   -0.1750 ha        1 1GK      0.143000
     30 H6          3.1850    1.3610   -2.0230 ha        1 1GK      0.126000
     31 H11         1.2820    2.8400   -1.2410 h4        1 1GK      0.213000
     32 H14        -0.6570    0.6390   -4.5120 ha        1 1GK      0.209000
     33 HN17       -0.3900    5.3200   -5.2770 hn        1 1GK      0.453800
     34 H18        -3.2210    4.9460   -6.1480 hx        1 1GK      0.129200
     35 H18A       -1.7740    5.0240   -7.2750 hx        1 1GK      0.129200
     36 H20        -1.6230    7.7020   -8.2600 ha        1 1GK      0.185000
     37 H21        -2.3410   10.0740   -7.1540 ha        1 1GK      0.193000
     38 H22        -3.2440    9.4210   -4.5620 h4        1 1GK      0.079100
     39 HN12        0.1870    4.4800   -2.8330 hn        1 1GK      0.302700
     40 H172       -1.7270    5.2390   -4.2930 hn        1 1GK      0.453800
@<TRIPOS>BOND
     1    1    2 1   
     2    1   24 1   
     3    1   25 1   
     4    1   26 1   
     5    2    3 ar  
     6    2    7 ar  
     7    3    4 ar  
     8    3   27 1   
     9    4    5 ar  
    10    4   28 1   
    11    5    6 ar  
    12    5   29 1   
    13    6    7 ar  
    14    6   30 1   
    15    7    8 1   
    16    8    9 2   
    17    8   10 1   
    18   10   11 2   
    19   10   14 1   
    20   11   12 1   
    21   11   31 1   
    22   12   13 1   
    23   12   39 1   
    24   13   14 2   
    25   13   15 1   
    26   14   32 1   
    27   15   16 2   
    28   15   17 1   
    29   17   18 1   
    30   17   33 1   
    31   17   40 1   
    32   18   19 1   
    33   18   34 1   
    34   18   35 1   
    35   19   20 2   
    36   19   23 1   
    37   20   21 1   
    38   20   36 1   
    39   21   22 2   
    40   21   37 1   
    41   22   23 1   
    42   22   38 1   
@<TRIPOS>SUBSTRUCTURE
     1 1GK         1 TEMP              0 ****  ****    0 ROOT
