@<TRIPOS>MOLECULE
1GL
   25    25     1     0     0
SMALL
bcc


@<TRIPOS>ATOM
      1 O1         -3.3720   -0.6930   -0.4200 oh        1 1GL     -0.603800
      2 C1         -1.9880   -0.6930   -0.4200 c3        1 1GL      0.345900
      3 C2         -1.5010   -0.6930    1.0050 c3        1 1GL     -0.105400
      4 C3         -0.0360   -0.5140    1.0980 c3        1 1GL      0.125100
      5 O3          0.6160   -1.7020    0.5790 oh        1 1GL     -0.600800
      6 C4          0.4390    0.6750    0.3260 c3        1 1GL      0.071100
      7 O4          1.8770    0.6770    0.3160 os        1 1GL     -0.423600
      8 CME         2.4580    1.8180    0.9520 c3        1 1GL      0.112700
      9 C5         -0.0600    0.6710   -1.1030 c3        1 1GL      0.166100
     10 O5         -1.5050    0.4910   -1.1890 os        1 1GL     -0.463600
     11 C6          0.6170   -0.4460   -1.8540 c3        1 1GL     -0.127100
     12 HO1        -3.6680   -1.1550   -1.1180 ho        1 1GL      0.427000
     13 H1         -1.6730   -1.5050   -0.8610 h2        1 1GL      0.052700
     14 H21        -1.9390    0.0330    1.4890 hc        1 1GL      0.075200
     15 H22        -1.7430   -1.5420    1.4220 hc        1 1GL      0.075200
     16 H3          0.2100   -0.4020    2.0360 h1        1 1GL      0.037700
     17 HO3         0.9080   -2.1990    1.2540 ho        1 1GL      0.418000
     18 H4          0.1250    1.4860    0.7690 h1        1 1GL      0.060700
     19 HM41        2.1600    2.6300    0.5000 h1        1 1GL      0.039033
     20 HM42        2.1800    1.8460    1.8870 h1        1 1GL      0.039033
     21 HM43        3.4310    1.7570    0.9040 h1        1 1GL      0.039033
     22 H5          0.1760    1.5210   -1.5210 h1        1 1GL      0.077700
     23 H61         0.3980   -0.3800   -2.8030 hc        1 1GL      0.053700
     24 H62         0.3090   -1.3050   -1.5080 hc        1 1GL      0.053700
     25 H63         1.5840   -0.3760   -1.7390 hc        1 1GL      0.053700
@<TRIPOS>BOND
     1    1    2 1   
     2    1   12 1   
     3    2    3 1   
     4    2   10 1   
     5    2   13 1   
     6    3    4 1   
     7    3   14 1   
     8    3   15 1   
     9    4    5 1   
    10    4    6 1   
    11    4   16 1   
    12    5   17 1   
    13    6    7 1   
    14    6    9 1   
    15    6   18 1   
    16    7    8 1   
    17    8   19 1   
    18    8   20 1   
    19    8   21 1   
    20    9   10 1   
    21    9   11 1   
    22    9   22 1   
    23   11   23 1   
    24   11   24 1   
    25   11   25 1   
@<TRIPOS>SUBSTRUCTURE
     1 1GL         1 TEMP              0 ****  ****    0 ROOT
