@<TRIPOS>MOLECULE
1GM
   36    38     1     0     0
SMALL
bcc


@<TRIPOS>ATOM
      1 C01        -0.6300    3.5820   -1.1410 c3        1 1GM     -0.113100
      2 C02        -0.8260    2.7240    0.0970 c3        1 1GM      0.038300
      3 N01        -0.1410    1.4340    0.0460 na        1 1GM      0.180800
      4 N02         1.1910    1.3400    0.0480 nc        1 1GM     -0.252400
      5 C03         1.4860   -0.0010   -0.0110 ca        1 1GM     -0.054000
      6 C04         2.7350   -0.6810   -0.0350 ca        1 1GM     -0.137300
      7 C05         4.0220    0.1290    0.0210 c3        1 1GM      0.697200
      8 F01         4.1610    0.8970    1.1500 f         1 1GM     -0.235967
      9 F02         5.1730   -0.6250   -0.0070 f         1 1GM     -0.235967
     10 F03         4.1830    1.0130   -1.0170 f         1 1GM     -0.235967
     11 C06         2.7410   -2.0510   -0.1090 ca        1 1GM     -0.054000
     12 C07         1.5320   -2.8010   -0.1590 ca        1 1GM     -0.160000
     13 C08         0.3040   -2.1880   -0.1350 ca        1 1GM     -0.052000
     14 C09         0.2500   -0.7810   -0.0600 ca        1 1GM     -0.146000
     15 C10        -0.7870    0.1930   -0.0290 cc        1 1GM     -0.046300
     16 C11        -2.2210   -0.0090   -0.0750 ca        1 1GM     -0.169800
     17 C12        -2.9870    0.5880   -1.0900 ca        1 1GM     -0.046000
     18 C13        -4.3560    0.3900   -1.1740 ca        1 1GM     -0.195000
     19 C14        -4.9880   -0.4300   -0.2180 ca        1 1GM      0.174100
     20 O01        -6.3450   -0.5860   -0.3500 oh        1 1GM     -0.489100
     21 C15        -4.2600   -1.0440    0.8040 ca        1 1GM     -0.256000
     22 C16        -2.8720   -0.8310    0.8680 ca        1 1GM      0.198100
     23 O02        -2.2300   -1.4690    1.8970 oh        1 1GM     -0.494100
     24 H1          0.4510    3.8120   -1.3060 hc        1 1GM      0.055700
     25 H2         -1.0280    3.0750   -2.0530 hc        1 1GM      0.055700
     26 H3         -1.1830    4.5410   -0.9930 hc        1 1GM      0.055700
     27 H4         -0.4430    3.2820    1.0010 h1        1 1GM      0.076700
     28 H5         -1.9230    2.5090    0.2450 h1        1 1GM      0.076700
     29 H6          3.6990   -2.5990   -0.1310 ha        1 1GM      0.152000
     30 H7          1.6060   -3.8970   -0.2200 ha        1 1GM      0.142000
     31 H8         -0.6320   -2.7660   -0.1730 ha        1 1GM      0.144000
     32 H9         -2.4820    1.2200   -1.8390 ha        1 1GM      0.143000
     33 H10        -4.9550    0.8530   -1.9700 ha        1 1GM      0.158000
     34 H11        -6.6540   -1.1710    0.3570 ho        1 1GM      0.427000
     35 H12        -4.7440   -1.6860    1.5530 ha        1 1GM      0.158000
     36 H13        -1.2800   -1.2760    1.8380 ho        1 1GM      0.440000
@<TRIPOS>BOND
     1    1    2 1   
     2    1   24 1   
     3    1   25 1   
     4    1   26 1   
     5    2    3 1   
     6    2   27 1   
     7    2   28 1   
     8    3    4 1   
     9    3   15 1   
    10    4    5 2   
    11    5    6 ar  
    12    5   14 ar  
    13    6    7 1   
    14    6   11 ar  
    15    7    8 1   
    16    7    9 1   
    17    7   10 1   
    18   11   12 ar  
    19   11   29 1   
    20   12   13 ar  
    21   12   30 1   
    22   13   14 ar  
    23   13   31 1   
    24   14   15 2   
    25   15   16 1   
    26   16   17 ar  
    27   16   22 ar  
    28   17   18 ar  
    29   17   32 1   
    30   18   19 ar  
    31   18   33 1   
    32   19   20 1   
    33   19   21 ar  
    34   20   34 1   
    35   21   22 ar  
    36   21   35 1   
    37   22   23 1   
    38   23   36 1   
@<TRIPOS>SUBSTRUCTURE
     1 1GM         1 TEMP              0 ****  ****    0 ROOT
