@<TRIPOS>MOLECULE
1GM
   36    38     1     0     0
SMALL
bcc


@<TRIPOS>ATOM
      1 C01         0.6330   -0.9370   -0.3530 c3        1 1GM     -0.106100
      2 C02         1.6210    0.1410    0.0470 c3        1 1GM      0.049300
      3 N01         2.0120    0.1280    1.4550 na        1 1GM      0.193800
      4 N02         2.1960   -1.0050    2.1380 nc        1 1GM     -0.259400
      5 C03         2.5680   -0.6350    3.4100 ca        1 1GM     -0.055000
      6 C04         2.8880   -1.4190    4.5530 ca        1 1GM     -0.138300
      7 C05         2.8350   -2.9350    4.4520 c3        1 1GM      0.697200
      8 F01         3.6850   -3.4760    3.5190 f         1 1GM     -0.237967
      9 F02         3.1600   -3.5970    5.6140 f         1 1GM     -0.237967
     10 F03         1.6010   -3.4420    4.1230 f         1 1GM     -0.237967
     11 C06         3.2380   -0.7800    5.7160 ca        1 1GM     -0.056000
     12 C07         3.2860    0.6390    5.8020 ca        1 1GM     -0.168000
     13 C08         2.9830    1.4350    4.7240 ca        1 1GM     -0.042000
     14 C09         2.6170    0.8220    3.5110 ca        1 1GM     -0.133000
     15 C10         2.2520    1.2800    2.2120 cc        1 1GM     -0.028300
     16 C11         2.1360    2.6510    1.7630 ca        1 1GM     -0.102800
     17 C12         1.4010    3.5600    2.5430 ca        1 1GM     -0.044000
     18 C13         1.2970    4.8990    2.1960 ca        1 1GM     -0.190000
     19 C14         1.9480    5.3570    1.0360 ca        1 1GM      0.176100
     20 O01         1.8120    6.6910    0.7450 oh        1 1GM     -0.487100
     21 C15         2.6890    4.4840    0.2330 ca        1 1GM     -0.304000
     22 C16         2.7760    3.1340    0.6030 ca        1 1GM      0.177100
     23 O02         3.4740    2.2300   -0.1630 oh        1 1GM     -0.497100
     24 H1         -0.2980   -0.8830    0.2610 hc        1 1GM      0.055033
     25 H2          1.0740   -1.9570   -0.2360 hc        1 1GM      0.055033
     26 H3          0.3660   -0.7820   -1.4260 hc        1 1GM      0.055033
     27 H4          2.5670    0.0420   -0.5630 h1        1 1GM      0.070200
     28 H5          1.1810    1.1600   -0.1550 h1        1 1GM      0.070200
     29 H6          3.4910   -1.3690    6.6140 ha        1 1GM      0.149000
     30 H7          3.5770    1.0890    6.7630 ha        1 1GM      0.138000
     31 H8          3.0220    2.5320    4.7890 ha        1 1GM      0.137000
     32 H9          0.9000    3.1910    3.4530 ha        1 1GM      0.152000
     33 H10         0.7190    5.6050    2.8080 ha        1 1GM      0.160000
     34 H11         2.3080    6.8780   -0.0660 ho        1 1GM      0.424000
     35 H12         3.1990    4.8470   -0.6700 ha        1 1GM      0.141000
     36 H13         3.9820    2.7230   -0.8260 ho        1 1GM      0.427000
@<TRIPOS>BOND
     1    1    2 1   
     2    1   24 1   
     3    1   25 1   
     4    1   26 1   
     5    2    3 1   
     6    2   27 1   
     7    2   28 1   
     8    3    4 1   
     9    3   15 1   
    10    4    5 2   
    11    5    6 ar  
    12    5   14 ar  
    13    6    7 1   
    14    6   11 ar  
    15    7    8 1   
    16    7    9 1   
    17    7   10 1   
    18   11   12 ar  
    19   11   29 1   
    20   12   13 ar  
    21   12   30 1   
    22   13   14 ar  
    23   13   31 1   
    24   14   15 2   
    25   15   16 1   
    26   16   17 ar  
    27   16   22 ar  
    28   17   18 ar  
    29   17   32 1   
    30   18   19 ar  
    31   18   33 1   
    32   19   20 1   
    33   19   21 ar  
    34   20   34 1   
    35   21   22 ar  
    36   21   35 1   
    37   22   23 1   
    38   23   36 1   
@<TRIPOS>SUBSTRUCTURE
     1 1GM         1 TEMP              0 ****  ****    0 ROOT
