@<TRIPOS>MOLECULE
1GM
   36    38     1     0     0
SMALL
bcc


@<TRIPOS>ATOM
      1 C01         0.6470   -0.9090   -0.3840 c3        1 1GM     -0.106100
      2 C02         1.6300    0.1680    0.0320 c3        1 1GM      0.049300
      3 N01         2.0190    0.1370    1.4410 na        1 1GM      0.193800
      4 N02         2.2050   -1.0030    2.1090 nc        1 1GM     -0.259400
      5 C03         2.5730   -0.6490    3.3860 ca        1 1GM     -0.055000
      6 C04         2.8940   -1.4470    4.5190 ca        1 1GM     -0.138300
      7 C05         2.8470   -2.9620    4.3990 c3        1 1GM      0.697200
      8 F01         3.7020   -3.4870    3.4610 f         1 1GM     -0.237967
      9 F02         3.1730   -3.6380    5.5530 f         1 1GM     -0.237967
     10 F03         1.6170   -3.4690    4.0600 f         1 1GM     -0.237967
     11 C06         3.2390   -0.8220    5.6920 ca        1 1GM     -0.056000
     12 C07         3.2810    0.5960    5.7970 ca        1 1GM     -0.168000
     13 C08         2.9770    1.4050    4.7290 ca        1 1GM     -0.042000
     14 C09         2.6160    0.8070    3.5070 ca        1 1GM     -0.133000
     15 C10         2.2520    1.2800    2.2140 cc        1 1GM     -0.028300
     16 C11         2.1310    2.6570    1.7820 ca        1 1GM     -0.102800
     17 C12         1.3900    3.5520    2.5720 ca        1 1GM     -0.044000
     18 C13         1.2810    4.8950    2.2430 ca        1 1GM     -0.190000
     19 C14         1.9330    5.3720    1.0910 ca        1 1GM      0.176100
     20 O01         1.7920    6.7090    0.8170 oh        1 1GM     -0.487100
     21 C15         2.6800    4.5120    0.2780 ca        1 1GM     -0.304000
     22 C16         2.7710    3.1570    0.6300 ca        1 1GM      0.178100
     23 O02         3.4750    2.2670   -0.1460 oh        1 1GM     -0.497100
     24 H1         -0.2850   -0.8670    0.2280 hc        1 1GM      0.055033
     25 H2          1.0920   -1.9280   -0.2800 hc        1 1GM      0.055033
     26 H3          0.3820   -0.7410   -1.4560 hc        1 1GM      0.055033
     27 H4          2.5770    0.0800   -0.5770 h1        1 1GM      0.070200
     28 H5          1.1870    1.1870   -0.1580 h1        1 1GM      0.070200
     29 H6          3.4920   -1.4220    6.5820 ha        1 1GM      0.149000
     30 H7          3.5670    1.0350    6.7640 ha        1 1GM      0.138000
     31 H8          3.0110    2.5010    4.8090 ha        1 1GM      0.137000
     32 H9          0.8880    3.1690    3.4770 ha        1 1GM      0.152000
     33 H10         0.6980    5.5910    2.8620 ha        1 1GM      0.160000
     34 H11         2.2890    6.9080    0.0100 ho        1 1GM      0.424000
     35 H12         3.1910    4.8890   -0.6180 ha        1 1GM      0.141000
     36 H13         3.9820    2.7710   -0.8010 ho        1 1GM      0.427000
@<TRIPOS>BOND
     1    1    2 1   
     2    1   24 1   
     3    1   25 1   
     4    1   26 1   
     5    2    3 1   
     6    2   27 1   
     7    2   28 1   
     8    3    4 1   
     9    3   15 1   
    10    4    5 2   
    11    5    6 ar  
    12    5   14 ar  
    13    6    7 1   
    14    6   11 ar  
    15    7    8 1   
    16    7    9 1   
    17    7   10 1   
    18   11   12 ar  
    19   11   29 1   
    20   12   13 ar  
    21   12   30 1   
    22   13   14 ar  
    23   13   31 1   
    24   14   15 2   
    25   15   16 1   
    26   16   17 ar  
    27   16   22 ar  
    28   17   18 ar  
    29   17   32 1   
    30   18   19 ar  
    31   18   33 1   
    32   19   20 1   
    33   19   21 ar  
    34   20   34 1   
    35   21   22 ar  
    36   21   35 1   
    37   22   23 1   
    38   23   36 1   
@<TRIPOS>SUBSTRUCTURE
     1 1GM         1 TEMP              0 ****  ****    0 ROOT
