@<TRIPOS>MOLECULE
1GM
   36    29     1     0     0
SMALL
bcc


@<TRIPOS>ATOM
      1 C01        -2.1890   -1.0660   -2.7410 c3        1 1GM     -0.224000
      2 C02        -0.7690   -0.5630   -2.6000 c3        1 1GM     -0.010000
      3 N01        -0.3850   -0.5850   -1.2030 n3        1 1GM     -0.032000
      4 N02         0.0150   -1.8930   -1.0280 n2        1 1GM     -0.080000
      5 C03         0.5820   -2.0020    0.2190 c1        1 1GM     -0.055000
      6 C04         1.0310   -3.1200    0.9530 c1        1 1GM     -0.131000
      7 C05         1.2860   -4.5410    0.4860 c3        1 1GM      0.476000
      8 F01         2.5900   -4.8360    0.6360 f         1 1GM     -0.166667
      9 F02         0.5490   -5.3910    1.2180 f         1 1GM     -0.166667
     10 F03         0.9490   -4.6540   -0.7990 f         1 1GM     -0.166667
     11 C06         1.4260   -2.9690    2.2810 c1        1 1GM     -0.056000
     12 C07         1.3780   -1.7260    2.8790 c1        1 1GM     -0.111000
     13 C08         0.9350   -0.6230    2.1570 c1        1 1GM     -0.111000
     14 C09         0.5340   -0.7740    0.8110 c1        1 1GM     -0.133000
     15 C10        -0.0690    0.1060   -0.0780 c1        1 1GM     -0.013000
     16 C11        -0.2880    1.6180    0.0730 c1        1 1GM     -0.091000
     17 C12        -1.4350    2.0910    0.6900 c1        1 1GM     -0.111000
     18 C13        -1.5920    3.4530    0.9150 c1        1 1GM     -0.111000
     19 C14        -0.6000    4.3410    0.5220 c1        1 1GM      0.131000
     20 O01        -0.7510    5.7240    0.7710 o         1 1GM     -0.241000
     21 C15         0.5500    3.8680   -0.0950 c1        1 1GM     -0.304000
     22 C16         0.7070    2.5070   -0.3200 c1        1 1GM      0.133000
     23 O02         1.8790    2.0250   -0.9390 oh        1 1GM     -0.251000
     24 H1         -2.2300   -1.7350   -3.4610 hc        1 1GM      0.094333
     25 H2         -2.7810   -0.3160   -2.9570 hc        1 1GM      0.094333
     26 H3         -2.4740   -1.4740   -1.9030 hc        1 1GM      0.094333
     27 H4         -0.1660   -1.1410   -3.1150 h1        1 1GM      0.109500
     28 H5         -0.7130    0.3510   -2.9400 h1        1 1GM      0.109500
     29 H6          1.7400   -3.7480    2.7930 ha        1 1GM      0.149000
     30 H7          1.6570   -1.6190    3.8170 ha        1 1GM      0.146750
     31 H8          0.9000    0.2600    2.5830 ha        1 1GM      0.146750
     32 H9         -2.1340    1.4680    0.9660 ha        1 1GM      0.146750
     33 H10        -2.4010    3.7860    1.3480 ha        1 1GM      0.146750
     34 H11        -1.0800    6.1220    0.0450 ho        1 1GM      0.223000
     35 H12         1.2450    4.4900   -0.3700 ha        1 1GM      0.141000
     36 H13         2.1040    2.5660   -1.6130 ho        1 1GM      0.226000
@<TRIPOS>BOND
     1    1    2 1   
     2    1   24 1   
     3    1   25 1   
     4    1   26 1   
     5    2    3 1   
     6    2   27 1   
     7    2   28 1   
     8    3    4 1   
     9    3   15 1   
    10    4    5 1   
    11    5   14 1   
    12    6    7 1   
    13    6   11 1   
    14    7    8 1   
    15    7    9 1   
    16    7   10 1   
    17   11   29 1   
    18   12   13 1   
    19   12   30 1   
    20   13   31 1   
    21   16   22 1   
    22   17   18 1   
    23   17   32 1   
    24   18   33 1   
    25   19   21 1   
    26   20   34 1   
    27   21   35 1   
    28   22   23 1   
    29   23   36 1   
@<TRIPOS>SUBSTRUCTURE
     1 1GM         1 TEMP              0 ****  ****    0 ROOT
