@<TRIPOS>MOLECULE
1GN
   25    25     1     0     0
SMALL
bcc


@<TRIPOS>ATOM
      1 C2          0.3770    0.0850    1.4840 c3        1 1GN      0.079500
      2 C3         -0.9710   -0.5960    1.1410 c3        1 1GN      0.158100
      3 C4         -1.4040   -0.1490   -0.2680 c3        1 1GN      0.116100
      4 O5          0.9610    0.0080   -0.9020 os        1 1GN     -0.455600
      5 C1          1.4010   -0.3540    0.4010 c3        1 1GN      0.338900
      6 O1          2.6100    0.3450    0.5130 oh        1 1GN     -0.593800
      7 N2          0.8300   -0.2570    2.8190 n3        1 1GN     -0.918800
      8 O3         -2.0050   -0.2260    2.0300 oh        1 1GN     -0.582800
      9 O4         -1.5920    1.2540   -0.2350 oh        1 1GN     -0.571800
     10 C5         -0.3030   -0.5510   -1.2630 c3        1 1GN      0.074100
     11 C6         -0.5910   -0.0280   -2.6740 c3        1 1GN      0.134400
     12 O6          0.2970   -0.5900   -3.6150 oh        1 1GN     -0.592800
     13 H2          0.2140    1.2000    1.3650 h1        1 1GN      0.067700
     14 H3         -0.8480   -1.7160    1.1410 h1        1 1GN      0.044700
     15 H4         -2.3660   -0.6650   -0.5420 h1        1 1GN      0.058700
     16 H1          1.6490   -1.4490    0.4610 h2        1 1GN      0.085700
     17 HO1         2.4660    1.2460    0.1900 ho        1 1GN      0.425000
     18 HN21        1.8310   -0.2540    2.8600 hn        1 1GN      0.363800
     19 HN22        0.4670    0.4010    3.4800 hn        1 1GN      0.363800
     20 HO3        -1.7760   -0.5960    2.8930 ho        1 1GN      0.413000
     21 HO4        -2.0510    1.4900   -1.0510 ho        1 1GN      0.401000
     22 H5         -0.2100   -1.6730   -1.2810 h1        1 1GN      0.061700
     23 H61        -1.6130   -0.3570   -2.9990 h1        1 1GN      0.055700
     24 H62        -0.5180    1.0920   -2.6870 h1        1 1GN      0.055700
     25 HO6         1.1920   -0.3570   -3.3330 ho        1 1GN      0.417000
@<TRIPOS>BOND
     1    1    2 1   
     2    1    5 1   
     3    1    7 1   
     4    1   13 1   
     5    2    3 1   
     6    2    8 1   
     7    2   14 1   
     8    3    9 1   
     9    3   10 1   
    10    3   15 1   
    11    4    5 1   
    12    4   10 1   
    13    5    6 1   
    14    5   16 1   
    15    6   17 1   
    16    7   18 1   
    17    7   19 1   
    18    8   20 1   
    19    9   21 1   
    20   10   11 1   
    21   10   22 1   
    22   11   12 1   
    23   11   23 1   
    24   11   24 1   
    25   12   25 1   
@<TRIPOS>SUBSTRUCTURE
     1 1GN         1 TEMP              0 ****  ****    0 ROOT
