@<TRIPOS>MOLECULE
1GN
   25    25     1     0     0
SMALL
bcc


@<TRIPOS>ATOM
      1 C2         -0.9020    0.4220   -1.2390 c3        1 1GN      0.072500
      2 C3          0.5770    0.4220   -1.2390 c3        1 1GN      0.118100
      3 C4          1.1380    0.4220    0.1350 c3        1 1GN      0.120100
      4 O5         -0.9150   -0.6800    0.9880 os        1 1GN     -0.449600
      5 C1         -1.4780   -0.6810   -0.3680 c3        1 1GN      0.309900
      6 O1         -2.8530   -0.5120   -0.2830 oh        1 1GN     -0.595800
      7 N2         -1.3720    0.2380   -2.6040 n3        1 1GN     -0.902800
      8 O3          1.0480    1.6100   -1.9400 oh        1 1GN     -0.611800
      9 O4          0.8600    1.6910    0.7500 oh        1 1GN     -0.594800
     10 C5          0.5510   -0.6800    0.9980 c3        1 1GN      0.113100
     11 C6          1.0270   -0.4990    2.4080 c3        1 1GN      0.142400
     12 O6          0.7020   -1.6470    3.1670 oh        1 1GN     -0.598800
     13 H2         -1.2180    1.2840   -0.9080 h1        1 1GN      0.093700
     14 H3          0.8940   -0.3720   -1.7110 h1        1 1GN      0.044700
     15 H4          2.1050    0.3010    0.0820 h1        1 1GN      0.057700
     16 H1         -1.2910   -1.5430   -0.7870 h2        1 1GN      0.070700
     17 HO1        -3.2170   -1.2310    0.0890 ho        1 1GN      0.429000
     18 HN21       -2.2690    0.0760   -2.5970 hn        1 1GN      0.359800
     19 HN22       -1.2030    0.9930   -3.0880 hn        1 1GN      0.359800
     20 HO3         1.7290    1.3930   -2.4670 ho        1 1GN      0.433000
     21 HO4         1.5960    2.1870    0.7520 ho        1 1GN      0.426000
     22 H5          0.8670   -1.5420    0.6660 h1        1 1GN      0.056700
     23 H61         0.5940    0.2830    2.8000 h1        1 1GN      0.067200
     24 H62         1.9950   -0.3700    2.4110 h1        1 1GN      0.067200
     25 HO6         1.0340   -1.5650    3.9860 ho        1 1GN      0.413000
@<TRIPOS>BOND
     1    1    2 1   
     2    1    5 1   
     3    1    7 1   
     4    1   13 1   
     5    2    3 1   
     6    2    8 1   
     7    2   14 1   
     8    3    9 1   
     9    3   10 1   
    10    3   15 1   
    11    4    5 1   
    12    4   10 1   
    13    5    6 1   
    14    5   16 1   
    15    6   17 1   
    16    7   18 1   
    17    7   19 1   
    18    8   20 1   
    19    9   21 1   
    20   10   11 1   
    21   10   22 1   
    22   11   12 1   
    23   11   23 1   
    24   11   24 1   
    25   12   25 1   
@<TRIPOS>SUBSTRUCTURE
     1 1GN         1 TEMP              0 ****  ****    0 ROOT
