@<TRIPOS>MOLECULE
1GO
   27    28     1     0     0
SMALL
bcc


@<TRIPOS>ATOM
      1 C10         0.0420   -1.6920   -0.1230 c         1 1GO      0.660100
      2 C13        -1.8370   -0.2210   -0.9240 cc        1 1GO     -0.209400
      3 C15        -2.5880    1.9830   -0.9190 cd        1 1GO     -0.154000
      4 N01         5.4040   -0.6370    4.2830 nz        1 1GO     -0.780500
      5 O03         3.4960   -0.3620    5.9180 o         1 1GO     -0.572300
      6 O04         4.2140    1.5820    4.7270 o         1 1GO     -0.572300
      7 C05         2.9230   -0.1250    3.4700 cc        1 1GO     -0.320700
      8 N06         2.6960   -1.4990    3.2060 nd        1 1GO     -0.165000
      9 N07         1.9390   -1.7500    2.2590 nd        1 1GO     -0.275000
     10 C08         1.4290   -0.5590    1.6150 cc        1 1GO      0.553300
     11 N09         0.5780   -0.5530    0.5690 ns        1 1GO     -0.486400
     12 O11         0.4360   -2.8280    0.1270 o         1 1GO     -0.457100
     13 C12        -0.9870   -1.3850   -1.1970 c3        1 1GO     -0.060100
     14 C14        -1.5330    1.0920   -1.2640 cd        1 1GO     -0.164000
     15 C16        -3.6480    1.3070   -0.3430 cc        1 1GO     -0.161100
     16 S17        -3.3620   -0.3220   -0.2410 ss        1 1GO      0.125200
     17 S18         2.0780    0.8390    2.3640 ss        1 1GO      0.089200
     18 H1         -2.5550    3.0600   -1.1050 ha        1 1GO      0.170000
     19 H2          5.3850   -1.0360    3.3490 hn        1 1GO      0.457133
     20 H3          6.1970   -0.0010    4.3330 hn        1 1GO      0.457133
     21 H4          0.2330    0.3420    0.2630 hn        1 1GO      0.362500
     22 H5         -0.4190   -1.2380   -2.1600 hc        1 1GO      0.111200
     23 H6         -1.6090   -2.3180   -1.3150 hc        1 1GO      0.111200
     24 H7         -0.6210    1.4140   -1.7740 ha        1 1GO      0.153000
     25 H8         -4.5750    1.7720   -0.0030 h4        1 1GO      0.192000
     26 H013        5.5690   -1.3990    4.9400 hn        1 1GO      0.457133
     27 S02         3.7870    0.2710    4.7370 sy        1 1GO      1.479800
@<TRIPOS>BOND
     1    1   11 1   
     2    1   12 2   
     3    1   13 1   
     4    2   13 1   
     5    2   14 2   
     6    2   16 1   
     7    3   14 1   
     8    3   15 2   
     9    3   18 1   
    10    4   19 1   
    11    4   20 1   
    12    4   26 1   
    13    4   27 1   
    14    5   27 2   
    15    6   27 2   
    16    7    8 2   
    17    7   17 1   
    18    7   27 1   
    19    8    9 1   
    20    9   10 2   
    21   10   11 1   
    22   10   17 1   
    23   11   21 1   
    24   13   22 1   
    25   13   23 1   
    26   14   24 1   
    27   15   16 1   
    28   15   25 1   
@<TRIPOS>SUBSTRUCTURE
     1 1GO         1 TEMP              0 ****  ****    0 ROOT
