@<TRIPOS>MOLECULE
1GO
   26    20     1     0     0
SMALL
bcc


@<TRIPOS>ATOM
      1 C10        -0.6490   -0.3320   -0.9890 c1        1 1GO      0.300000
      2 C13        -2.8270   -0.6000   -2.1240 c1        1 1GO     -0.431000
      3 C15        -5.2930   -0.4840   -2.1310 c1        1 1GO     -0.152500
      4 N01         5.5350    0.2210    3.1560 n3        1 1GO     -0.943000
      5 S02         4.2920    1.2940    3.1240 s4        1 1GO      2.119800
      6 O03         3.8930    1.6690    4.4520 o         1 1GO     -0.542400
      7 O04         4.7110    2.5610    2.5910 o         1 1GO     -0.542400
      8 C05         2.9300    0.6290    2.2060 c1        1 1GO     -0.720000
      9 N06         1.8480   -0.1090    2.7410 n2        1 1GO     -0.026000
     10 N07         0.8220   -0.4010    1.5790 n2        1 1GO     -0.026000
     11 C08         1.3230    0.1720    0.3870 c1        1 1GO     -0.720000
     12 N09         0.6610    0.1990   -0.8670 n2        1 1GO     -0.276000
     13 O11        -1.2040   -0.8090   -0.0200 o         1 1GO     -0.347000
     14 C12        -1.3590   -0.2940   -2.3250 c1        1 1GO     -0.096000
     15 C14        -3.9380    0.1570   -2.6690 c1        1 1GO     -0.152500
     16 C16        -4.9570   -1.6090   -1.2780 c1        1 1GO     -0.431000
     17 S17        -3.4110   -1.7310   -1.2360 ss        1 1GO      0.609000
     18 S18         2.6610    0.8420    0.7140 ss        1 1GO      0.839000
     19 H1         -6.1950   -0.1740   -2.3390 DU        1 1GO      0.166000
     20 H2          5.6090   -0.3710    3.8480 hn        1 1GO      0.249000
     21 H3          6.1600    0.2260    2.4900 hn        1 1GO      0.249000
     22 H4          1.0720    0.5700   -1.5920 hn        1 1GO      0.272000
     23 H5         -1.2620    0.5950   -2.7210 ha        1 1GO      0.136000
     24 H6         -0.9650   -0.9620   -2.9220 ha        1 1GO      0.136000
     25 H7         -3.8680    0.9280   -3.2630 DU        1 1GO      0.166000
     26 H8         -5.5920   -2.1870   -0.8140 DU        1 1GO      0.166000
@<TRIPOS>BOND
     1    1   12 1   
     2    1   13 1   
     3    2   15 1   
     4    2   17 1   
     5    3   15 1   
     6    3   16 1   
     7    4    5 1   
     8    4   20 1   
     9    4   21 1   
    10    5    6 1   
    11    5    7 1   
    12    8    9 1   
    13    8   18 1   
    14    9   10 1   
    15   10   11 1   
    16   11   18 1   
    17   12   22 1   
    18   14   23 1   
    19   14   24 1   
    20   16   17 1   
@<TRIPOS>SUBSTRUCTURE
     1 1GO         1 TEMP              0 ****  ****    0 ROOT
