@<TRIPOS>MOLECULE
1GO
   26    27     1     0     0
SMALL
bcc


@<TRIPOS>ATOM
      1 C10        -1.6890    1.5650   -0.3700 c         1 1GO      0.656100
      2 C13        -3.9900    0.6540    0.0550 cc        1 1GO     -0.165400
      3 C15        -5.0740   -1.0730    1.1800 cd        1 1GO     -0.152000
      4 N01         4.5660   -1.4740   -0.7850 n3        1 1GO     -1.016700
      5 O03         4.9080    0.4630    0.7040 o         1 1GO     -0.654800
      6 O04         4.4070    0.8360   -1.6080 o         1 1GO     -0.654800
      7 C05         2.5630    0.0370   -0.1240 cc        1 1GO     -0.107700
      8 N06         2.0760   -0.9120    0.7520 nd        1 1GO     -0.216000
      9 N07         0.8270   -0.8300    0.9780 nd        1 1GO     -0.362000
     10 C08         0.2320    0.2290    0.2720 cc        1 1GO      0.419300
     11 N09        -1.1150    0.5300    0.3630 n         1 1GO     -0.509400
     12 O11        -0.9770    2.2540   -1.1260 o         1 1GO     -0.586100
     13 C12        -3.1680    1.8470   -0.1840 c3        1 1GO     -0.060100
     14 C14        -4.1940    0.0460    1.2840 cd        1 1GO     -0.153000
     15 C16        -5.5010   -1.2590   -0.1180 cc        1 1GO     -0.164100
     16 S17        -4.8590   -0.1250   -1.1510 ss        1 1GO      0.069200
     17 S18         1.3710    1.0690   -0.6780 ss        1 1GO      0.210200
     18 H1         -5.3610   -1.6900    2.0340 ha        1 1GO      0.162000
     19 H2          4.6270   -1.8290   -1.7070 hn        1 1GO      0.453800
     20 H3          4.6640   -2.1780   -0.0970 hn        1 1GO      0.453800
     21 H4         -1.6960   -0.0490    0.9360 hn        1 1GO      0.358500
     22 H5         -3.2580    2.5610    0.6830 hc        1 1GO      0.096700
     23 H6         -3.5130    2.3920   -1.1070 hc        1 1GO      0.096700
     24 H7         -3.7560    0.3760    2.2290 ha        1 1GO      0.157000
     25 H8         -6.1780   -2.0460   -0.4510 h4        1 1GO      0.179000
     26 S02         4.2350    0.0460   -0.4510 sy        1 1GO      1.491800
@<TRIPOS>BOND
     1    1   11 1   
     2    1   12 2   
     3    1   13 1   
     4    2   13 1   
     5    2   14 2   
     6    2   16 1   
     7    3   14 1   
     8    3   15 2   
     9    3   18 1   
    10    4   19 1   
    11    4   20 1   
    12    4   26 1   
    13    5   26 2   
    14    6   26 2   
    15    7    8 2   
    16    7   17 1   
    17    7   26 1   
    18    8    9 1   
    19    9   10 2   
    20   10   11 1   
    21   10   17 1   
    22   11   21 1   
    23   13   22 1   
    24   13   23 1   
    25   14   24 1   
    26   15   16 1   
    27   15   25 1   
@<TRIPOS>SUBSTRUCTURE
     1 1GO         1 TEMP              0 ****  ****    0 ROOT
