@<TRIPOS>MOLECULE
1GO
   27    26     1     0     0
SMALL
bcc


@<TRIPOS>ATOM
      1 C10         0.0140   -0.3720   -0.1440 c2        1 1GO      0.312000
      2 C13        -1.8670   -0.5450   -1.6840 c1        1 1GO     -1.742000
      3 C15        -3.3960    0.7560    0.0090 c1        1 1GO     -0.049000
      4 N01         4.4830   -0.6720    5.3240 n4        1 1GO     -0.501000
      5 O03         5.1630    1.5670    4.3610 o         1 1GO     -0.853000
      6 O04         6.2440   -0.3800    3.4910 o         1 1GO     -0.853000
      7 C05         3.8860    0.0190    2.8280 c2        1 1GO     -1.419000
      8 N06         2.5910    0.4690    3.1860 n2        1 1GO      0.099000
      9 N07         1.7020    0.2920    2.3450 n2        1 1GO     -0.023000
     10 C08         2.1830   -0.3470    1.1370 c2        1 1GO     -0.095000
     11 N09         1.4290   -0.6370    0.0640 n         1 1GO     -0.258000
     12 O11        -0.6250    0.1860    0.7430 o         1 1GO     -0.273000
     13 C12        -0.5000   -0.8520   -1.5060 c3        1 1GO      0.134000
     14 C14        -3.3850    1.3310    1.1600 c2        1 1GO     -0.365000
     15 C16        -4.2330   -0.2420   -2.4540 c1        1 1GO     -1.667000
     16 S17        -3.1040   -0.2940   -1.9050 ss        1 1GO      3.058000
     17 S18         3.8610   -0.6880    1.2860 ss        1 1GO      0.686000
     18 H1         -2.4620    1.3530    1.7820 ha        1 1GO      0.235000
     19 H2          3.6260   -1.1840    5.1400 hn        1 1GO      0.250000
     20 H3          5.1900   -1.3400    5.6220 hn        1 1GO      0.250000
     21 H4          1.8960   -1.0820   -0.7050 hn        1 1GO      0.260000
     22 H5         -0.3140   -1.9640   -1.5480 hc        1 1GO      0.088000
     23 H6          0.1410   -0.3610   -2.2930 hc        1 1GO      0.088000
     24 H7         -4.2440    1.8410    1.6340 ha        1 1GO      0.235000
     25 H8         -5.1960   -0.1890   -2.9040 ha        1 1GO      0.259000
     26 H013        4.3040   -0.0350    6.1000 hn        1 1GO      0.250000
     27 S02         5.0940    0.3170    3.8000 s6        1 1GO      2.893000
@<TRIPOS>BOND
     1    1   11 1   
     2    1   12 1   
     3    1   13 1   
     4    2   13 1   
     5    2   16 1   
     6    3   14 1   
     7    4   19 1   
     8    4   20 1   
     9    4   26 1   
    10    4   27 1   
    11    5   27 1   
    12    6   27 1   
    13    7    8 1   
    14    7   17 1   
    15    7   27 1   
    16    8    9 1   
    17    9   10 1   
    18   10   11 1   
    19   10   17 1   
    20   11   21 1   
    21   13   22 1   
    22   13   23 1   
    23   14   18 1   
    24   14   24 1   
    25   15   16 1   
    26   15   25 1   
@<TRIPOS>SUBSTRUCTURE
     1 1GO         1 TEMP              0 ****  ****    0 ROOT
