@<TRIPOS>MOLECULE
1GO
   26    25     1     0     0
SMALL
bcc


@<TRIPOS>ATOM
      1 C10         0.8660   -0.6360   -0.9960 c2        1 1GO      0.293000
      2 C13        -1.4450   -0.8090   -1.9720 c2        1 1GO     -0.238000
      3 C15        -2.8260    1.1950    1.1660 c2        1 1GO     -0.541000
      4 N01         3.2880   -0.8830    5.4940 n3        1 1GO     -0.943000
      5 O03         4.7420    0.7660    4.3760 o         1 1GO     -0.936500
      6 O04         4.8570   -1.5340    3.7200 o         1 1GO     -0.936500
      7 C05         2.8480   -0.2170    3.0300 c2        1 1GO     -1.213000
      8 N06         1.7800    0.5880    3.3700 n2        1 1GO      0.046000
      9 N07         0.9240    0.7500    2.4440 n2        1 1GO     -0.127000
     10 C08         1.2740    0.0600    1.2690 c2        1 1GO     -0.219000
     11 N09         0.5020    0.0940    0.1270 n         1 1GO     -0.317000
     12 O11         1.9050   -1.3300   -0.9910 o         1 1GO     -0.353000
     13 C12        -0.0070   -0.5420   -2.2310 c3        1 1GO     -0.187000
     14 C14        -1.6940    1.6890    0.4990 c1        1 1GO     -0.050000
     15 C16        -3.7240    1.9200    1.8290 c1        1 1GO      0.392000
     16 S17        -2.3090   -1.8340   -2.6890 s         1 1GO      0.082000
     17 S18         2.7420   -0.7910    1.4600 ss        1 1GO      0.814000
     18 H1         -1.5430    2.7770    0.4560 ha        1 1GO      0.078000
     19 H2          3.1750   -1.8240    5.7780 hn        1 1GO      0.246000
     20 H3          2.8080   -0.2460    6.0800 hn        1 1GO      0.246000
     21 H4         -0.3760    0.6830    0.1360 hn        1 1GO      0.326000
     22 H5          0.4060   -1.2680   -2.9850 hc        1 1GO      0.143000
     23 H6          0.1040    0.4950   -2.6580 hc        1 1GO      0.143000
     24 H7         -1.8540   -0.1370   -1.1830 h4        1 1GO      0.129000
     25 H8         -2.9440    0.0840    1.1570 ha        1 1GO      0.215000
     26 S02         4.0760   -0.4520    4.1780 s6        1 1GO      2.905000
@<TRIPOS>BOND
     1    1   11 1   
     2    1   12 1   
     3    1   13 1   
     4    2   13 1   
     5    2   16 1   
     6    2   24 1   
     7    3   14 1   
     8    3   15 1   
     9    3   25 1   
    10    4   19 1   
    11    4   20 1   
    12    4   26 1   
    13    5   26 1   
    14    6   26 1   
    15    7    8 1   
    16    7   17 1   
    17    7   26 1   
    18    8    9 1   
    19    9   10 1   
    20   10   11 1   
    21   10   17 1   
    22   11   21 1   
    23   13   22 1   
    24   13   23 1   
    25   14   18 1   
@<TRIPOS>SUBSTRUCTURE
     1 1GO         1 TEMP              0 ****  ****    0 ROOT
