@<TRIPOS>MOLECULE
1GP
   17    16     1     0     0
SMALL
bcc


@<TRIPOS>ATOM
      1 C3          0.6790   -0.8070   -0.1210 c3        1 1GP      0.145400
      2 O3          2.6290    0.0290   -1.2400 oh        1 1GP     -0.665800
      3 C2          1.5670    0.4160   -0.3730 c3        1 1GP      0.078100
      4 O2         -0.4080   -0.5110    0.7240 oh        1 1GP     -0.685800
      5 C1          2.1320    1.0270    0.9300 c3        1 1GP      0.205400
      6 O1P         3.1370    0.2420    1.4340 os        1 1GP     -0.574200
      7 O2P         1.4370   -0.8840    2.8440 o         1 1GP     -0.931500
      8 O3P         3.9290   -1.3160    3.2700 o         1 1GP     -0.931500
      9 O4P         2.8720    0.9500    3.8540 o         1 1GP     -0.931500
     10 P           2.8270   -0.3220    3.0580 p5        1 1GP      1.329900
     11 H31         0.2250   -1.1480   -1.0920 h1        1 1GP      0.020700
     12 H32         1.3040   -1.6330    0.3110 h1        1 1GP      0.020700
     13 HO3         3.3320   -0.2980   -0.6560 ho        1 1GP      0.433000
     14 H2          0.9900    1.1940   -0.9440 h1        1 1GP      0.006700
     15 HO2        -0.0560   -0.5420    1.6420 ho        1 1GP      0.490000
     16 H11         2.5430    2.0450    0.6500 h1        1 1GP     -0.003300
     17 H12         1.2950    1.1610    1.6700 h1        1 1GP     -0.003300
@<TRIPOS>BOND
     1    1    3 1   
     2    1    4 1   
     3    1   11 1   
     4    1   12 1   
     5    2    3 1   
     6    2   13 1   
     7    3    5 1   
     8    3   14 1   
     9    4   15 1   
    10    5    6 1   
    11    5   16 1   
    12    5   17 1   
    13    6   10 1   
    14    7   10 1   
    15    8   10 1   
    16    9   10 1   
@<TRIPOS>SUBSTRUCTURE
     1 1GP         1 TEMP              0 ****  ****    0 ROOT
