@<TRIPOS>MOLECULE
1GP
   17    16     1     0     0
SMALL
bcc


@<TRIPOS>ATOM
      1 C3         -1.8760   -0.0090   -0.8680 c3        1 1GP      0.072400
      2 O3          0.1120   -1.1340   -1.4930 oh        1 1GP     -0.667800
      3 C2         -0.3710    0.0270   -0.8890 c3        1 1GP      0.080100
      4 O2         -2.3710   -0.0360   -2.2020 oh        1 1GP     -0.660800
      5 C1          0.1570    0.1120    0.5470 c3        1 1GP      0.210400
      6 O1P         1.5940    0.0000    0.5380 os        1 1GP     -0.566200
      7 O2P         3.8650   -0.0820    1.6820 o         1 1GP     -0.928500
      8 O3P         2.1680    1.5490    2.4540 o         1 1GP     -0.928500
      9 O4P         1.8530   -0.8520    2.9070 o         1 1GP     -0.928500
     10 P           2.3760    0.1570    1.9130 p5        1 1GP      1.314900
     11 H31        -2.1780   -0.8110   -0.3920 h1        1 1GP      0.084200
     12 H32        -2.2130    0.7870   -0.4120 h1        1 1GP      0.084200
     13 HO3         0.5300   -0.9250   -2.2310 ho        1 1GP      0.447000
     14 H2         -0.0720    0.8030   -1.3920 h1        1 1GP     -0.001300
     15 HO2        -3.2440    0.0600   -2.1920 ho        1 1GP      0.399000
     16 H11        -0.1030    0.9790    0.9430 h1        1 1GP     -0.005300
     17 H12        -0.2280   -0.6260    1.0860 h1        1 1GP     -0.005300
@<TRIPOS>BOND
     1    1    3 1   
     2    1    4 1   
     3    1   11 1   
     4    1   12 1   
     5    2    3 1   
     6    2   13 1   
     7    3    5 1   
     8    3   14 1   
     9    4   15 1   
    10    5    6 1   
    11    5   16 1   
    12    5   17 1   
    13    6   10 1   
    14    7   10 1   
    15    8   10 1   
    16    9   10 1   
@<TRIPOS>SUBSTRUCTURE
     1 1GP         1 TEMP              0 ****  ****    0 ROOT
