@<TRIPOS>MOLECULE
1GP
   17    16     1     0     0
SMALL
bcc


@<TRIPOS>ATOM
      1 C3          2.6470   -0.1700   -0.7440 c3        1 1GP      0.145400
      2 O3          1.9420   -1.6630    0.9960 oh        1 1GP     -0.665800
      3 C2          2.1020   -0.2820    0.6830 c3        1 1GP      0.078100
      4 O2          2.8450    1.1690   -1.1340 oh        1 1GP     -0.685800
      5 C1          0.7650    0.4700    0.8760 c3        1 1GP      0.205400
      6 O1P        -0.2650   -0.2200    0.2900 os        1 1GP     -0.574200
      7 O2P         0.0760    1.1580   -1.7420 o         1 1GP     -0.931500
      8 O3P        -2.0050   -0.3290   -1.5500 o         1 1GP     -0.931500
      9 O4P        -1.7660    1.7840   -0.1110 o         1 1GP     -0.931500
     10 P          -1.1150    0.7030   -0.9250 p5        1 1GP      1.329900
     11 H31         1.9460   -0.6900   -1.4490 h1        1 1GP      0.020700
     12 H32         3.6610   -0.6550   -0.7970 h1        1 1GP      0.020700
     13 HO3         1.0510   -1.8950    0.6900 ho        1 1GP      0.433000
     14 H2          2.8660    0.0990    1.4150 h1        1 1GP      0.006700
     15 HO2         1.9640    1.5050   -1.4150 ho        1 1GP      0.490000
     16 H11         0.5970    0.5360    1.9940 h1        1 1GP     -0.003300
     17 H12         0.8610    1.5100    0.4590 h1        1 1GP     -0.003300
@<TRIPOS>BOND
     1    1    3 1   
     2    1    4 1   
     3    1   11 1   
     4    1   12 1   
     5    2    3 1   
     6    2   13 1   
     7    3    5 1   
     8    3   14 1   
     9    4   15 1   
    10    5    6 1   
    11    5   16 1   
    12    5   17 1   
    13    6   10 1   
    14    7   10 1   
    15    8   10 1   
    16    9   10 1   
@<TRIPOS>SUBSTRUCTURE
     1 1GP         1 TEMP              0 ****  ****    0 ROOT
