@<TRIPOS>MOLECULE
1GP
   17    16     1     0     0
SMALL
bcc


@<TRIPOS>ATOM
      1 C3          0.1870   -0.2380    0.5370 c3        1 1GP      0.072400
      2 O3          2.0000   -0.3120   -1.0340 oh        1 1GP     -0.667800
      3 C2          1.3600    0.5250   -0.0810 c3        1 1GP      0.080100
      4 O2         -0.5990   -0.8720   -0.4700 oh        1 1GP     -0.660800
      5 C1          2.3450    1.0120    1.0120 c3        1 1GP      0.210400
      6 O1P         3.3440    0.0980    1.2090 os        1 1GP     -0.566200
      7 O2P         2.0620   -1.3000    2.8070 o         1 1GP     -0.928500
      8 O3P         4.6270   -1.3900    2.8200 o         1 1GP     -0.928500
      9 O4P         3.3880    0.6910    3.6680 o         1 1GP     -0.928500
     10 P           3.3760   -0.5610    2.8360 p5        1 1GP      1.314900
     11 H31         0.5720   -1.0000    1.2780 h1        1 1GP      0.084200
     12 H32        -0.5150    0.4710    1.0450 h1        1 1GP      0.084200
     13 HO3         2.7240   -0.7600   -0.5630 ho        1 1GP      0.447000
     14 H2          0.9730    1.3950   -0.6820 h1        1 1GP     -0.001300
     15 HO2         0.0290   -1.3550   -1.0220 ho        1 1GP      0.399000
     16 H11         2.7830    1.9860    0.6360 h1        1 1GP     -0.005300
     17 H12         1.7770    1.2130    1.9630 h1        1 1GP     -0.005300
@<TRIPOS>BOND
     1    1    3 1   
     2    1    4 1   
     3    1   11 1   
     4    1   12 1   
     5    2    3 1   
     6    2   13 1   
     7    3    5 1   
     8    3   14 1   
     9    4   15 1   
    10    5    6 1   
    11    5   16 1   
    12    5   17 1   
    13    6   10 1   
    14    7   10 1   
    15    8   10 1   
    16    9   10 1   
@<TRIPOS>SUBSTRUCTURE
     1 1GP         1 TEMP              0 ****  ****    0 ROOT
