@<TRIPOS>MOLECULE
1GQ
   42    43     1     0     0
SMALL
bcc


@<TRIPOS>ATOM
      1 C10         0.8730   -0.9920   -0.5850 c1        1 1GQ     -0.063000
      2 C13         0.1210    0.4070    2.3860 c1        1 1GQ     -0.239000
      3 C17         4.1380   -1.8870   -0.4660 c2        1 1GQ     -0.015000
      4 C20         6.9030   -1.3170    0.1170 c2        1 1GQ     -0.296000
      5 C21         8.3830   -1.0700    0.3490 c3        1 1GQ      0.493000
      6 C01         8.3670    0.7380    5.8960 c3        1 1GQ     -0.210000
      7 C02         8.1480    1.2960    4.5140 c3        1 1GQ     -0.157000
      8 C03         7.0770    0.5210    3.7740 c3        1 1GQ     -0.183000
      9 N05         5.8160    0.5000    1.6060 na        1 1GQ     -0.165000
     10 N06         4.5200    0.8530    1.8850 n2        1 1GQ     -0.006000
     11 C07         3.6870    0.0740    1.1860 c2        1 1GQ     -0.002000
     12 C08         2.2390    0.1710    1.1920 c2        1 1GQ     -0.157000
     13 C09         1.5630    0.1960   -0.1360 c3        1 1GQ     -0.200000
     14 C11        -1.0680    0.5380    2.4220 c1        1 1GQ      0.026000
     15 O12        -2.3680    0.6970    2.5800 oh        1 1GQ     -0.134000
     16 C14         1.5220    0.2630    2.3480 c2        1 1GQ      0.221000
     17 O15         2.1860    0.1760    3.5520 oh        1 1GQ     -0.231000
     18 C16         4.4680   -0.8980    0.3830 c2        1 1GQ     -0.179000
     19 C18         5.2130   -2.6930   -1.0930 c3        1 1GQ     -0.183000
     20 C19         6.5860   -2.3470   -0.7580 c1        1 1GQ     -0.129000
     21 F22         9.2410   -1.9030   -0.3170 f         1 1GQ     -0.173333
     22 F23         8.8160    0.1890   -0.0120 f         1 1GQ     -0.173333
     23 F24         8.7860   -1.1830    1.6630 f         1 1GQ     -0.173333
     24 C25         5.8880   -0.5720    0.7270 c2        1 1GQ      0.186000
     25 H1          0.7890    1.0260   -0.1580 hc        1 1GQ      0.160500
     26 H2          0.8290   -1.8470    0.1080 ha        1 1GQ      0.045000
     27 H3          3.0900   -2.1190   -0.7170 ha        1 1GQ      0.138000
     28 H4          7.3810   -0.5570    3.6950 hc        1 1GQ      0.100500
     29 H5          7.4270    0.7890    6.4960 hc        1 1GQ      0.075000
     30 H6          8.6910   -0.3300    5.8420 hc        1 1GQ      0.075000
     31 H7          9.1580    1.3210    6.4270 hc        1 1GQ      0.075000
     32 H8          7.8490    2.3760    4.5870 hc        1 1GQ      0.082500
     33 H9          9.1080    1.2540    3.9340 hc        1 1GQ      0.082500
     34 H10         6.1140    0.5650    4.3470 hc        1 1GQ      0.100500
     35 H11         7.8440    0.9890    1.7850 h1        1 1GQ      0.119500
     36 H12         6.6730    2.2130    2.4650 h1        1 1GQ      0.119500
     37 H13         2.3080    0.4660   -0.9440 hc        1 1GQ      0.160500
     38 H14        -2.7720    0.5840    1.6950 ho        1 1GQ      0.248000
     39 H15         1.5550    0.3530    4.2660 ho        1 1GQ      0.232000
     40 H16         5.0660   -3.7820   -0.8250 hc        1 1GQ      0.167000
     41 H17         5.1150   -2.6330   -2.2190 hc        1 1GQ      0.167000
     42 C04         6.8940    1.1090    2.3770 c3        1 1GQ     -0.008000
@<TRIPOS>BOND
     1    1   13 1   
     2    1   26 1   
     3    2   14 1   
     4    2   16 1   
     5    3   18 1   
     6    3   19 1   
     7    3   27 1   
     8    4    5 1   
     9    4   20 1   
    10    4   24 1   
    11    5   21 1   
    12    5   22 1   
    13    5   23 1   
    14    6    7 1   
    15    6   29 1   
    16    6   30 1   
    17    6   31 1   
    18    7    8 1   
    19    7   32 1   
    20    7   33 1   
    21    8   28 1   
    22    8   34 1   
    23    8   42 1   
    24    9   10 1   
    25    9   24 1   
    26    9   42 1   
    27   10   11 1   
    28   11   12 1   
    29   11   18 1   
    30   12   13 1   
    31   12   16 1   
    32   13   25 1   
    33   13   37 1   
    34   14   15 1   
    35   15   38 1   
    36   16   17 1   
    37   17   39 1   
    38   18   24 1   
    39   19   20 1   
    40   19   40 1   
    41   19   41 1   
    42   35   42 1   
    43   36   42 1   
@<TRIPOS>SUBSTRUCTURE
     1 1GQ         1 TEMP              0 ****  ****    0 ROOT
