@<TRIPOS>MOLECULE
1GQ
   42    44     1     0     0
SMALL
bcc


@<TRIPOS>ATOM
      1 C10        -4.7840   -0.9690   -0.6970 ca        1 1GQ     -0.196000
      2 C13        -4.7300    1.2500    0.3230 ca        1 1GQ     -0.257000
      3 C17        -0.7310   -2.3760    0.7500 ca        1 1GQ     -0.029000
      4 C20         1.9850   -1.7240    0.1500 ca        1 1GQ     -0.185300
      5 C21         3.4540   -1.4860   -0.1590 c3        1 1GQ      0.693200
      6 C01         3.8220    4.1880    0.9350 c3        1 1GQ     -0.093100
      7 C02         3.4570    3.2690   -0.2020 c3        1 1GQ     -0.078400
      8 C03         2.3550    2.3110    0.2020 c3        1 1GQ     -0.104400
      9 N05         0.9090    0.4790   -0.7300 na        1 1GQ      0.103900
     10 N06        -0.3620    0.9380   -0.7700 nc        1 1GQ     -0.512100
     11 C07        -1.1940   -0.0010   -0.2650 cd        1 1GQ      0.408500
     12 C08        -2.6430    0.0890   -0.2160 ca        1 1GQ     -0.221900
     13 C09        -3.3990   -0.9890   -0.7090 ca        1 1GQ     -0.046000
     14 C11        -5.4450    0.1620   -0.1790 ca        1 1GQ      0.170100
     15 O12        -6.8180    0.1260   -0.1940 oh        1 1GQ     -0.492100
     16 C14        -3.3240    1.2100    0.3000 ca        1 1GQ      0.203100
     17 O15        -2.7140    2.3200    0.8230 oh        1 1GQ     -0.493100
     18 C16        -0.4090   -1.1540    0.1730 ca        1 1GQ     -0.216900
     19 C18         0.2980   -3.2640    1.0350 ca        1 1GQ     -0.173000
     20 C19         1.6270   -2.9390    0.7340 ca        1 1GQ     -0.049000
     21 F22         4.2900   -2.5270    0.1720 f         1 1GQ     -0.237967
     22 F23         3.7340   -1.2640   -1.4880 f         1 1GQ     -0.237967
     23 F24         4.0150   -0.4120    0.4900 f         1 1GQ     -0.237967
     24 C25         0.9650   -0.7960   -0.1280 ca        1 1GQ      0.003800
     25 H1         -5.3730   -1.8100   -1.0870 ha        1 1GQ      0.155000
     26 H2         -5.2370    2.1350    0.7310 ha        1 1GQ      0.155000
     27 H3         -1.7800   -2.6240    0.9720 ha        1 1GQ      0.151000
     28 H4          4.6350    4.8860    0.6200 hc        1 1GQ      0.036367
     29 H5          2.9390    4.7950    1.2510 hc        1 1GQ      0.036367
     30 H6          4.1790    3.6030    1.8160 hc        1 1GQ      0.036367
     31 H7          3.1240    3.8750   -1.0850 hc        1 1GQ      0.043700
     32 H8          4.3610    2.6850   -0.5200 hc        1 1GQ      0.043700
     33 H9          2.6940    1.6960    1.0770 hc        1 1GQ      0.056700
     34 H10         1.4490    2.8900    0.5200 hc        1 1GQ      0.056700
     35 H11         1.7410    2.0310   -1.8670 h1        1 1GQ      0.076700
     36 H12         2.9130    0.7780   -1.2480 h1        1 1GQ      0.076700
     37 H13        -2.8700   -1.8650   -1.1180 ha        1 1GQ      0.142000
     38 H14        -7.1450    0.9610    0.1740 ho        1 1GQ      0.425000
     39 H15        -1.7550    2.1960    0.8070 ho        1 1GQ      0.437000
     40 H16         0.0760   -4.2370    1.4980 ha        1 1GQ      0.146000
     41 H17         2.4170   -3.6750    0.9680 ha        1 1GQ      0.154000
     42 C04         2.0140    1.3970   -0.9740 c3        1 1GQ      0.049300
@<TRIPOS>BOND
     1    1   13 ar  
     2    1   14 ar  
     3    1   25 1   
     4    2   14 ar  
     5    2   16 ar  
     6    2   26 1   
     7    3   18 ar  
     8    3   19 ar  
     9    3   27 1   
    10    4    5 1   
    11    4   20 ar  
    12    4   24 ar  
    13    5   21 1   
    14    5   22 1   
    15    5   23 1   
    16    6    7 1   
    17    6   28 1   
    18    6   29 1   
    19    6   30 1   
    20    7    8 1   
    21    7   31 1   
    22    7   32 1   
    23    8   33 1   
    24    8   34 1   
    25    8   42 1   
    26    9   10 1   
    27    9   24 1   
    28    9   42 1   
    29   10   11 2   
    30   11   12 1   
    31   11   18 1   
    32   12   13 ar  
    33   12   16 ar  
    34   13   37 1   
    35   14   15 1   
    36   15   38 1   
    37   16   17 1   
    38   17   39 1   
    39   18   24 ar  
    40   19   20 ar  
    41   19   40 1   
    42   20   41 1   
    43   35   42 1   
    44   36   42 1   
@<TRIPOS>SUBSTRUCTURE
     1 1GQ         1 TEMP              0 ****  ****    0 ROOT
