@<TRIPOS>MOLECULE
1GQ
   42    36     1     0     0
SMALL
bcc


@<TRIPOS>ATOM
      1 C10        -4.5190   -0.8350    0.7820 c1        1 1GQ     -0.196000
      2 C13        -4.5400    0.4180   -1.2710 c1        1 1GQ     -0.180000
      3 C17        -0.3490   -2.5340   -1.7470 c1        1 1GQ     -0.032000
      4 C20         2.2650   -1.7240   -1.2770 c1        1 1GQ     -0.178000
      5 C21         3.7820   -1.5480   -1.3570 c2        1 1GQ      0.472000
      6 C01         2.5540    3.0160    3.7130 c3        1 1GQ     -0.210000
      7 C02         2.7090    2.7710    2.2320 c3        1 1GQ     -0.157000
      8 C03         1.9520    1.5050    1.8440 c3        1 1GQ     -0.185000
      9 C04         1.8630    1.4110    0.3200 c3        1 1GQ     -0.009000
     10 N05         1.1480    0.2060   -0.0480 n3        1 1GQ     -0.143000
     11 N06        -0.1740    0.5340    0.1570 n2        1 1GQ     -0.010000
     12 C07        -0.9420   -0.4310   -0.4180 c1        1 1GQ     -0.037000
     13 C08        -2.4500   -0.2800   -0.3080 c1        1 1GQ      0.035000
     14 C09        -3.1320   -0.8820    0.7390 c1        1 1GQ     -0.180000
     15 C11        -5.2230   -0.1850   -0.2230 c1        1 1GQ      0.129000
     16 O12        -6.6250   -0.1030   -0.1610 oh        1 1GQ     -0.245000
     17 C14        -3.1570    0.3710   -1.3150 c1        1 1GQ      0.035000
     18 O15        -2.4630    0.9600   -2.3960 o         1 1GQ     -0.227000
     19 C16        -0.0950   -1.3710   -0.9870 c1        1 1GQ     -0.131000
     20 C18         0.7080   -3.2720   -2.2590 c1        1 1GQ     -0.175000
     21 C19         2.0160   -2.8670   -2.0240 c2        1 1GQ     -0.053000
     22 F22         4.3810   -2.4840   -0.6090 f         1 1GQ     -0.168000
     23 F23         4.1790   -1.6730   -2.6310 f         1 1GQ     -0.168000
     24 F24         4.1150   -0.3320   -0.9020 f         1 1GQ     -0.168000
     25 C25         1.1900   -0.9720   -0.7560 c1        1 1GQ      0.048000
     26 H1         -5.0010   -1.2590    1.5200 ha        1 1GQ      0.156000
     27 H2         -5.0390    0.8780   -1.9830 ha        1 1GQ      0.141000
     28 H3         -1.2780   -2.8220   -1.9150 ha        1 1GQ      0.147000
     29 H4          2.9170    2.2550    4.2100 hc        1 1GQ      0.075000
     30 H5          3.0390    3.8310    3.9630 hc        1 1GQ      0.075000
     31 H6          1.6040    3.1220    3.9280 hc        1 1GQ      0.075000
     32 H7          3.6560    2.6630    2.0170 hc        1 1GQ      0.082000
     33 H8          2.3470    3.5300    1.7380 hc        1 1GQ      0.082000
     34 H9          1.0460    1.5360    2.2240 hc        1 1GQ      0.097000
     35 H10         2.4240    0.7250    2.1920 hc        1 1GQ      0.097000
     36 H11         1.3870    2.1920   -0.0280 h1        1 1GQ      0.114000
     37 H12         2.7710    1.3830   -0.0620 h1        1 1GQ      0.114000
     38 H13        -2.6370   -1.3390    1.4450 ha        1 1GQ      0.141000
     39 H14        -6.9790   -0.7300   -0.6720 ho        1 1GQ      0.221000
     40 H15        -2.7410    1.8000   -2.5070 ho        1 1GQ      0.219000
     41 H16         0.5320   -4.0780   -2.7860 ha        1 1GQ      0.143000
     42 H17         2.7580   -3.3850   -2.3840 ha        1 1GQ      0.152000
@<TRIPOS>BOND
     1    1   15 1   
     2    1   26 1   
     3    2   17 1   
     4    2   27 1   
     5    3   19 1   
     6    3   28 1   
     7    4   21 1   
     8    4   25 1   
     9    5   22 1   
    10    5   23 1   
    11    5   24 1   
    12    6    7 1   
    13    6   29 1   
    14    6   30 1   
    15    6   31 1   
    16    7    8 1   
    17    7   32 1   
    18    7   33 1   
    19    8    9 1   
    20    8   34 1   
    21    8   35 1   
    22    9   10 1   
    23    9   36 1   
    24    9   37 1   
    25   10   11 1   
    26   10   25 1   
    27   11   12 1   
    28   12   19 1   
    29   13   14 1   
    30   14   38 1   
    31   15   16 1   
    32   16   39 1   
    33   18   40 1   
    34   20   21 1   
    35   20   41 1   
    36   21   42 1   
@<TRIPOS>SUBSTRUCTURE
     1 1GQ         1 TEMP              0 ****  ****    0 ROOT
