@<TRIPOS>MOLECULE
1GQ
   42    43     1     0     0
SMALL
bcc


@<TRIPOS>ATOM
      1 C10         0.8740   -1.0020   -0.5830 c1        1 1GQ     -0.063000
      2 C13         0.1210    0.4110    2.3790 c1        1 1GQ     -0.239000
      3 C17         4.1400   -1.8970   -0.4590 c2        1 1GQ     -0.015000
      4 C20         6.9040   -1.3240    0.1240 c2        1 1GQ     -0.296000
      5 C21         8.3840   -1.0770    0.3560 c3        1 1GQ      0.493000
      6 C01         8.3640    0.7530    5.8950 c3        1 1GQ     -0.210000
      7 C02         8.1460    1.3070    4.5100 c3        1 1GQ     -0.157000
      8 C03         7.0760    0.5280    3.7730 c3        1 1GQ     -0.183000
      9 N05         5.8160    0.5000    1.6040 na        1 1GQ     -0.165000
     10 N06         4.5200    0.8540    1.8810 n2        1 1GQ     -0.006000
     11 C07         3.6880    0.0720    1.1850 c2        1 1GQ     -0.002000
     12 C08         2.2390    0.1690    1.1890 c2        1 1GQ     -0.157000
     13 C09         1.5640    0.1870   -0.1400 c3        1 1GQ     -0.200000
     14 C11        -1.0690    0.5420    2.4140 c1        1 1GQ      0.026000
     15 O12        -2.3680    0.7030    2.5700 oh        1 1GQ     -0.134000
     16 C14         1.5220    0.2670    2.3440 c2        1 1GQ      0.221000
     17 O15         2.1850    0.1860    3.5490 oh        1 1GQ     -0.231000
     18 C16         4.4690   -0.9040    0.3860 c2        1 1GQ     -0.179000
     19 C18         5.2150   -2.7050   -1.0810 c3        1 1GQ     -0.183000
     20 C19         6.5880   -2.3580   -0.7470 c1        1 1GQ     -0.129000
     21 F22         9.2420   -1.9120   -0.3060 f         1 1GQ     -0.173333
     22 F23         8.8170    0.1810   -0.0110 f         1 1GQ     -0.173333
     23 F24         8.7860   -1.1830    1.6700 f         1 1GQ     -0.173333
     24 C25         5.8890   -0.5770    0.7290 c2        1 1GQ      0.186000
     25 H1          0.7910    1.0170   -0.1670 hc        1 1GQ      0.160500
     26 H2          0.8300   -1.8540    0.1140 ha        1 1GQ      0.045000
     27 H3          3.0920   -2.1300   -0.7100 ha        1 1GQ      0.138000
     28 H4          7.3800   -0.5490    3.6980 hc        1 1GQ      0.100500
     29 H5          7.4230    0.8060    6.4940 hc        1 1GQ      0.075000
     30 H6          8.6880   -0.3150    5.8460 hc        1 1GQ      0.075000
     31 H7          9.1540    1.3380    6.4240 hc        1 1GQ      0.075000
     32 H8          7.8470    2.3860    4.5790 hc        1 1GQ      0.082500
     33 H9          9.1070    1.2630    3.9310 hc        1 1GQ      0.082500
     34 H10         6.1120    0.5750    4.3450 hc        1 1GQ      0.100500
     35 H11         7.8450    0.9880    1.7820 h1        1 1GQ      0.119500
     36 H12         6.6720    2.2150    2.4570 h1        1 1GQ      0.119500
     37 H13         2.3110    0.4530   -0.9490 hc        1 1GQ      0.160500
     38 H14        -2.7720    0.5830    1.6860 ho        1 1GQ      0.248000
     39 H15         1.5530    0.3670    4.2610 ho        1 1GQ      0.232000
     40 H16         5.0680   -3.7940   -0.8090 hc        1 1GQ      0.167000
     41 H17         5.1180   -2.6510   -2.2080 hc        1 1GQ      0.167000
     42 C04         6.8940    1.1110    2.3730 c3        1 1GQ     -0.008000
@<TRIPOS>BOND
     1    1   13 1   
     2    1   26 1   
     3    2   14 1   
     4    2   16 1   
     5    3   18 1   
     6    3   19 1   
     7    3   27 1   
     8    4    5 1   
     9    4   20 1   
    10    4   24 1   
    11    5   21 1   
    12    5   22 1   
    13    5   23 1   
    14    6    7 1   
    15    6   29 1   
    16    6   30 1   
    17    6   31 1   
    18    7    8 1   
    19    7   32 1   
    20    7   33 1   
    21    8   28 1   
    22    8   34 1   
    23    8   42 1   
    24    9   10 1   
    25    9   24 1   
    26    9   42 1   
    27   10   11 1   
    28   11   12 1   
    29   11   18 1   
    30   12   13 1   
    31   12   16 1   
    32   13   25 1   
    33   13   37 1   
    34   14   15 1   
    35   15   38 1   
    36   16   17 1   
    37   17   39 1   
    38   18   24 1   
    39   19   20 1   
    40   19   40 1   
    41   19   41 1   
    42   35   42 1   
    43   36   42 1   
@<TRIPOS>SUBSTRUCTURE
     1 1GQ         1 TEMP              0 ****  ****    0 ROOT
