@<TRIPOS>MOLECULE
1GR
   42    44     1     0     0
SMALL
bcc


@<TRIPOS>ATOM
      1 C01         1.1520   -3.2850    1.3920 c3        1 1GR     -0.092600
      2 C02         2.2690   -2.4300    0.8400 c3        1 1GR     -0.088700
      3 C03         3.5400   -3.2440    0.6920 c3        1 1GR     -0.092600
      4 C04         1.9170   -1.8430   -0.5350 c3        1 1GR      0.048300
      5 N01         0.9080   -0.7910   -0.5380 na        1 1GR      0.105900
      6 N02        -0.4040   -1.1170   -0.4900 nc        1 1GR     -0.513100
      7 C05         1.1010    0.5630   -0.1820 ca        1 1GR      0.000800
      8 C06         2.2110    1.4240   -0.1040 ca        1 1GR     -0.184300
      9 C07         3.6390    0.9920   -0.3960 c3        1 1GR      0.693200
     10 F01         3.8360    0.4730   -1.6540 f         1 1GR     -0.237633
     11 F02         4.5730    1.9990   -0.3180 f         1 1GR     -0.237633
     12 F03         4.1410    0.0300    0.4490 f         1 1GR     -0.237633
     13 C08         1.9860    2.7590    0.2320 ca        1 1GR     -0.050000
     14 C09         0.7020    3.2670    0.4660 ca        1 1GR     -0.172000
     15 C10        -0.4150    2.4470    0.3610 ca        1 1GR     -0.029000
     16 C11        -0.2250    1.1090    0.0420 ca        1 1GR     -0.216900
     17 C12        -1.1290   -0.0180   -0.1840 cd        1 1GR      0.409500
     18 C13        -2.5750    0.0340   -0.0590 ca        1 1GR     -0.222900
     19 C14        -3.1270    0.6310    1.0880 ca        1 1GR     -0.047000
     20 C15        -4.4970    0.7100    1.2770 ca        1 1GR     -0.196000
     21 C16        -5.3530    0.1780    0.2930 ca        1 1GR      0.170100
     22 O01        -6.7000    0.2830    0.5340 oh        1 1GR     -0.492100
     23 C17        -4.8430   -0.4180   -0.8620 ca        1 1GR     -0.257000
     24 C18        -3.4480   -0.4890   -1.0330 ca        1 1GR      0.204100
     25 O02        -3.0490   -1.0830   -2.2010 oh        1 1GR     -0.492100
     26 H1          0.8440   -4.0610    0.6500 hc        1 1GR      0.040867
     27 H2          1.4930   -3.8040    2.3220 hc        1 1GR      0.040867
     28 H3          0.2600   -2.6650    1.6470 hc        1 1GR      0.040867
     29 H4          2.4750   -1.5850    1.5580 hc        1 1GR      0.062700
     30 H5          3.4050   -4.0560   -0.0620 hc        1 1GR      0.040867
     31 H6          4.3840   -2.5860    0.3680 hc        1 1GR      0.040867
     32 H7          3.8100   -3.7100    1.6700 hc        1 1GR      0.040867
     33 H8          2.8440   -1.4030   -0.9990 h1        1 1GR      0.076700
     34 H9          1.5500   -2.6750   -1.2020 h1        1 1GR      0.076700
     35 H10         2.8490    3.4440    0.3110 ha        1 1GR      0.154000
     36 H11         0.5850    4.3290    0.7270 ha        1 1GR      0.146000
     37 H12        -1.4310    2.8410    0.5200 ha        1 1GR      0.151000
     38 H13        -2.4470    1.0370    1.8540 ha        1 1GR      0.141000
     39 H14        -4.9270    1.1720    2.1760 ha        1 1GR      0.155000
     40 H15        -7.1730   -0.1260   -0.2070 ho        1 1GR      0.425000
     41 H16        -5.5030   -0.8330   -1.6360 ha        1 1GR      0.156000
     42 H17        -2.0840   -1.0480   -2.2670 ho        1 1GR      0.439000
@<TRIPOS>BOND
     1    1    2 1   
     2    1   26 1   
     3    1   27 1   
     4    1   28 1   
     5    2    3 1   
     6    2    4 1   
     7    2   29 1   
     8    3   30 1   
     9    3   31 1   
    10    3   32 1   
    11    4    5 1   
    12    4   33 1   
    13    4   34 1   
    14    5    6 1   
    15    5    7 1   
    16    6   17 2   
    17    7    8 ar  
    18    7   16 ar  
    19    8    9 1   
    20    8   13 ar  
    21    9   10 1   
    22    9   11 1   
    23    9   12 1   
    24   13   14 ar  
    25   13   35 1   
    26   14   15 ar  
    27   14   36 1   
    28   15   16 ar  
    29   15   37 1   
    30   16   17 1   
    31   17   18 1   
    32   18   19 ar  
    33   18   24 ar  
    34   19   20 ar  
    35   19   38 1   
    36   20   21 ar  
    37   20   39 1   
    38   21   22 1   
    39   21   23 ar  
    40   22   40 1   
    41   23   24 ar  
    42   23   41 1   
    43   24   25 1   
    44   25   42 1   
@<TRIPOS>SUBSTRUCTURE
     1 1GR         1 TEMP              0 ****  ****    0 ROOT
