@<TRIPOS>MOLECULE
1GR
   42    44     1     0     0
SMALL
bcc


@<TRIPOS>ATOM
      1 C01        -0.1130    0.1270    0.0130 c3        1 1GR     -0.092100
      2 C02         1.3960    0.0430   -0.0270 c3        1 1GR     -0.087700
      3 C03         1.9700    0.0970    1.3760 c3        1 1GR     -0.092100
      4 C04         1.8800   -1.2550   -0.6920 c3        1 1GR      0.052300
      5 N01         1.6860   -1.3370   -2.1310 na        1 1GR      0.101900
      6 N02         0.4870   -1.7080   -2.6350 nc        1 1GR     -0.473100
      7 C05         2.5080   -0.7830   -3.1350 ca        1 1GR      0.002800
      8 C06         3.8230   -0.2840   -3.1890 ca        1 1GR     -0.185300
      9 C07         4.7500   -0.2050   -1.9860 c3        1 1GR      0.693200
     10 F01         5.0170   -1.4140   -1.3860 f         1 1GR     -0.239300
     11 F02         6.0030    0.2960   -2.2560 f         1 1GR     -0.239300
     12 F03         4.3070    0.5930   -0.9590 f         1 1GR     -0.239300
     13 C08         4.3160    0.1410   -4.4220 ca        1 1GR     -0.053000
     14 C09         3.5590    0.0680   -5.5980 ca        1 1GR     -0.175000
     15 C10         2.2690   -0.4480   -5.5790 ca        1 1GR     -0.032000
     16 C11         1.7430   -0.8690   -4.3660 ca        1 1GR     -0.214900
     17 C12         0.4740   -1.4750   -3.9660 cd        1 1GR      0.415500
     18 C13        -0.6290   -1.7750   -4.8620 ca        1 1GR     -0.162900
     19 C14        -1.1000   -0.7840   -5.7320 ca        1 1GR     -0.044000
     20 C15        -2.1570   -1.0270   -6.6020 ca        1 1GR     -0.253000
     21 C16        -2.7640   -2.2920   -6.6060 ca        1 1GR      0.173100
     22 O01        -3.8150   -2.6070   -7.4330 oh        1 1GR     -0.493100
     23 C17        -2.3180   -3.3100   -5.7540 ca        1 1GR     -0.255000
     24 C18        -1.2500   -3.0440   -4.8860 ca        1 1GR      0.191100
     25 O02        -0.7560   -4.0100   -4.0470 oh        1 1GR     -0.474100
     26 H1         -0.4300    1.0150    0.6130 hc        1 1GR      0.040033
     27 H2         -0.5470   -0.7880    0.4830 hc        1 1GR      0.040033
     28 H3         -0.5360    0.2320   -1.0140 hc        1 1GR      0.040033
     29 H4          1.7980    0.9240   -0.6040 hc        1 1GR      0.061700
     30 H5          3.0870    0.1250    1.3350 hc        1 1GR      0.040033
     31 H6          1.6110    1.0140    1.9000 hc        1 1GR      0.040033
     32 H7          1.6530   -0.7960    1.9670 hc        1 1GR      0.040033
     33 H8          1.3420   -2.1270   -0.2190 h1        1 1GR      0.075700
     34 H9          2.9830   -1.3780   -0.5010 h1        1 1GR      0.075700
     35 H10         5.3420    0.5450   -4.4780 ha        1 1GR      0.152000
     36 H11         4.0010    0.4160   -6.5430 ha        1 1GR      0.143000
     37 H12         1.6730   -0.5290   -6.5010 ha        1 1GR      0.146000
     38 H13        -0.6210    0.2080   -5.7200 ha        1 1GR      0.142000
     39 H14        -2.5160   -0.2370   -7.2750 ha        1 1GR      0.139000
     40 H15        -4.0290   -1.8200   -7.9570 ho        1 1GR      0.424000
     41 H16        -2.8040   -4.2950   -5.7740 ha        1 1GR      0.155000
     42 H17        -1.2990   -4.8060   -4.1530 ho        1 1GR      0.423000
@<TRIPOS>BOND
     1    1    2 1   
     2    1   26 1   
     3    1   27 1   
     4    1   28 1   
     5    2    3 1   
     6    2    4 1   
     7    2   29 1   
     8    3   30 1   
     9    3   31 1   
    10    3   32 1   
    11    4    5 1   
    12    4   33 1   
    13    4   34 1   
    14    5    6 1   
    15    5    7 1   
    16    6   17 2   
    17    7    8 ar  
    18    7   16 ar  
    19    8    9 1   
    20    8   13 ar  
    21    9   10 1   
    22    9   11 1   
    23    9   12 1   
    24   13   14 ar  
    25   13   35 1   
    26   14   15 ar  
    27   14   36 1   
    28   15   16 ar  
    29   15   37 1   
    30   16   17 1   
    31   17   18 1   
    32   18   19 ar  
    33   18   24 ar  
    34   19   20 ar  
    35   19   38 1   
    36   20   21 ar  
    37   20   39 1   
    38   21   22 1   
    39   21   23 ar  
    40   22   40 1   
    41   23   24 ar  
    42   23   41 1   
    43   24   25 1   
    44   25   42 1   
@<TRIPOS>SUBSTRUCTURE
     1 1GR         1 TEMP              0 ****  ****    0 ROOT
