@<TRIPOS>MOLECULE
1GR
   42    35     1     0     0
SMALL
bcc


@<TRIPOS>ATOM
      1 C01        -4.0480   -2.0200   -0.3940 c3        1 1GR     -0.215000
      2 C02        -3.1820   -1.5480    0.7810 c3        1 1GR     -0.121000
      3 C03        -3.9790   -1.6730    2.0860 c3        1 1GR     -0.215000
      4 C04        -2.7790   -0.0760    0.5640 c3        1 1GR     -0.006000
      5 N01        -1.3530    0.0050    0.3370 n3        1 1GR     -0.056000
      6 N02        -0.2610   -0.8010    0.0630 n2        1 1GR     -0.059000
      7 C05        -0.9280    1.3130    0.3370 c1        1 1GR      0.006000
      8 C06        -1.6040    2.5300    0.6070 c1        1 1GR     -0.163000
      9 C07        -0.3120    2.4660   -0.1590 c3        1 1GR      0.008000
     10 F01        -0.1160    3.6300   -0.8090 f         1 1GR     -0.083333
     11 F02        -0.3700    1.4590   -1.0510 f         1 1GR     -0.083333
     12 F03         0.7080    2.2500    0.6970 f         1 1GR     -0.083333
     13 C08        -0.9020    3.7350    0.5960 c1        1 1GR     -0.146000
     14 C09         0.4640    3.7430    0.3200 c1        1 1GR     -0.023500
     15 C10         1.1290    2.5470    0.0550 c1        1 1GR     -0.023500
     16 C11         0.4150    1.3210    0.0660 c1        1 1GR     -0.264000
     17 C12         0.8250    0.0030   -0.1040 c1        1 1GR     -0.003000
     18 C13         2.1350   -0.6250   -0.6070 c1        1 1GR     -0.080000
     19 C14         2.3400   -0.8060   -1.9700 c1        1 1GR     -0.023500
     20 C15         3.5520   -1.3120   -2.4310 c1        1 1GR     -0.023500
     21 C16         4.5580   -1.6380   -1.5270 c1        1 1GR      0.128000
     22 O01         5.8230   -2.0660   -2.0010 o         1 1GR     -0.246000
     23 C17         4.3530   -1.4570   -0.1630 c1        1 1GR     -0.309000
     24 C18         3.1410   -0.9510    0.2980 c1        1 1GR      0.151000
     25 O02         2.9210   -0.8000    1.6840 oh        1 1GR     -0.230000
     26 H1         -4.8940   -1.5170   -0.4000 hc        1 1GR      0.081000
     27 H2         -4.2390   -2.9790   -0.2960 hc        1 1GR      0.081000
     28 H3         -3.5690   -1.8650   -1.2370 hc        1 1GR      0.081000
     29 H4         -2.3740   -2.1040    0.8360 hc        1 1GR      0.114000
     30 H5         -4.4200   -2.5520    2.1190 hc        1 1GR      0.081000
     31 H6         -3.3690   -1.5840    2.8520 hc        1 1GR      0.081000
     32 H7         -4.6580   -0.9640    2.1250 hc        1 1GR      0.081000
     33 H8         -3.2570    0.2830   -0.2170 h1        1 1GR      0.113000
     34 H9         -3.0140    0.4490    1.3610 h1        1 1GR      0.113000
     35 H10        -1.3710    4.5800    0.7830 ha        1 1GR      0.182000
     36 H11         0.9600    4.5940    0.3120 ha        1 1GR      0.144500
     37 H12         2.0950    2.5520   -0.1400 ha        1 1GR      0.144500
     38 H13         1.6310   -0.5770   -2.6080 ha        1 1GR      0.144500
     39 H14         3.6970   -1.4400   -3.3930 ha        1 1GR      0.144500
     40 H15         5.8670   -2.9560   -1.9700 ho        1 1GR      0.220000
     41 H16         5.0630   -1.6870    0.4750 ha        1 1GR      0.138000
     42 H17         3.3220   -1.4640    2.1230 ho        1 1GR      0.218000
@<TRIPOS>BOND
     1    1    2 1   
     2    1   26 1   
     3    1   27 1   
     4    1   28 1   
     5    2    3 1   
     6    2    4 1   
     7    2   29 1   
     8    3   30 1   
     9    3   31 1   
    10    3   32 1   
    11    4    5 1   
    12    4   33 1   
    13    4   34 1   
    14    5    6 1   
    15    5    7 1   
    16    6   17 1   
    17    7   16 1   
    18    8    9 1   
    19    8   13 1   
    20    9   10 1   
    21    9   11 1   
    22    9   12 1   
    23   13   35 1   
    24   14   15 1   
    25   14   36 1   
    26   15   37 1   
    27   18   24 1   
    28   19   20 1   
    29   19   38 1   
    30   20   39 1   
    31   21   23 1   
    32   22   40 1   
    33   23   41 1   
    34   24   25 1   
    35   25   42 1   
@<TRIPOS>SUBSTRUCTURE
     1 1GR         1 TEMP              0 ****  ****    0 ROOT
