@<TRIPOS>MOLECULE
1GR
   42    44     1     0     0
SMALL
bcc


@<TRIPOS>ATOM
      1 C01        -0.1110    0.1220    0.0160 c3        1 1GR     -0.092100
      2 C02         1.3980    0.0390   -0.0260 c3        1 1GR     -0.087700
      3 C03         1.9730    0.0910    1.3760 c3        1 1GR     -0.092100
      4 C04         1.8820   -1.2580   -0.6930 c3        1 1GR      0.052300
      5 N01         1.6870   -1.3380   -2.1320 na        1 1GR      0.101900
      6 N02         0.4880   -1.7100   -2.6360 nc        1 1GR     -0.473100
      7 C05         2.5080   -0.7820   -3.1360 ca        1 1GR      0.002800
      8 C06         3.8220   -0.2820   -3.1900 ca        1 1GR     -0.185300
      9 C07         4.7510   -0.2050   -1.9890 c3        1 1GR      0.693200
     10 F01         5.0190   -1.4140   -1.3900 f         1 1GR     -0.239300
     11 F02         6.0030    0.2980   -2.2590 f         1 1GR     -0.239300
     12 F03         4.3090    0.5910   -0.9590 f         1 1GR     -0.239300
     13 C08         4.3140    0.1460   -4.4230 ca        1 1GR     -0.053000
     14 C09         3.5560    0.0740   -5.5980 ca        1 1GR     -0.175000
     15 C10         2.2670   -0.4430   -5.5800 ca        1 1GR     -0.032000
     16 C11         1.7410   -0.8660   -4.3670 ca        1 1GR     -0.214900
     17 C12         0.4730   -1.4740   -3.9660 cd        1 1GR      0.415500
     18 C13        -0.6300   -1.7740   -4.8620 ca        1 1GR     -0.162900
     19 C14        -1.1020   -0.7820   -5.7300 ca        1 1GR     -0.044000
     20 C15        -2.1600   -1.0240   -6.5990 ca        1 1GR     -0.253000
     21 C16        -2.7670   -2.2890   -6.6040 ca        1 1GR      0.173100
     22 O01        -3.8170   -2.6030   -7.4320 oh        1 1GR     -0.493100
     23 C17        -2.3190   -3.3090   -5.7550 ca        1 1GR     -0.255000
     24 C18        -1.2500   -3.0430   -4.8880 ca        1 1GR      0.191100
     25 O02        -0.7550   -4.0100   -4.0500 oh        1 1GR     -0.474100
     26 H1         -0.4280    1.0090    0.6170 hc        1 1GR      0.040033
     27 H2         -0.5440   -0.7950    0.4840 hc        1 1GR      0.040033
     28 H3         -0.5350    0.2280   -1.0110 hc        1 1GR      0.040033
     29 H4          1.7990    0.9200   -0.6020 hc        1 1GR      0.061700
     30 H5          3.0900    0.1200    1.3340 hc        1 1GR      0.040033
     31 H6          1.6140    1.0080    1.9030 hc        1 1GR      0.040033
     32 H7          1.6570   -0.8030    1.9670 hc        1 1GR      0.040033
     33 H8          1.3450   -2.1310   -0.2210 h1        1 1GR      0.075700
     34 H9          2.9860   -1.3810   -0.5040 h1        1 1GR      0.075700
     35 H10         5.3400    0.5500   -4.4800 ha        1 1GR      0.152000
     36 H11         3.9970    0.4240   -6.5430 ha        1 1GR      0.143000
     37 H12         1.6690   -0.5240   -6.5000 ha        1 1GR      0.146000
     38 H13        -0.6240    0.2110   -5.7170 ha        1 1GR      0.142000
     39 H14        -2.5200   -0.2330   -7.2710 ha        1 1GR      0.139000
     40 H15        -4.0330   -1.8160   -7.9540 ho        1 1GR      0.424000
     41 H16        -2.8040   -4.2930   -5.7760 ha        1 1GR      0.155000
     42 H17        -1.2970   -4.8060   -4.1570 ho        1 1GR      0.423000
@<TRIPOS>BOND
     1    1    2 1   
     2    1   26 1   
     3    1   27 1   
     4    1   28 1   
     5    2    3 1   
     6    2    4 1   
     7    2   29 1   
     8    3   30 1   
     9    3   31 1   
    10    3   32 1   
    11    4    5 1   
    12    4   33 1   
    13    4   34 1   
    14    5    6 1   
    15    5    7 1   
    16    6   17 2   
    17    7    8 ar  
    18    7   16 ar  
    19    8    9 1   
    20    8   13 ar  
    21    9   10 1   
    22    9   11 1   
    23    9   12 1   
    24   13   14 ar  
    25   13   35 1   
    26   14   15 ar  
    27   14   36 1   
    28   15   16 ar  
    29   15   37 1   
    30   16   17 1   
    31   17   18 1   
    32   18   19 ar  
    33   18   24 ar  
    34   19   20 ar  
    35   19   38 1   
    36   20   21 ar  
    37   20   39 1   
    38   21   22 1   
    39   21   23 ar  
    40   22   40 1   
    41   23   24 ar  
    42   23   41 1   
    43   24   25 1   
    44   25   42 1   
@<TRIPOS>SUBSTRUCTURE
     1 1GR         1 TEMP              0 ****  ****    0 ROOT
