@<TRIPOS>MOLECULE
1GS
   42    44     1     0     0
SMALL
bcc


@<TRIPOS>ATOM
      1 C01        -0.0740   -3.6740    1.0050 c3        1 1GS     -0.095100
      2 C02         1.1260   -3.0150    0.3630 c3        1 1GS     -0.082700
      3 C03         2.1310   -4.0580   -0.0820 c3        1 1GS     -0.095100
      4 C04         0.7240   -2.1830   -0.8640 c3        1 1GS      0.037300
      5 N01        -0.0110   -0.9590   -0.5530 na        1 1GS      0.184800
      6 N02        -1.3420   -0.9070   -0.4910 nc        1 1GS     -0.250400
      7 C05        -1.6650    0.3890   -0.1660 ca        1 1GS     -0.063000
      8 C06        -2.9280    1.0150    0.0240 ca        1 1GS     -0.136300
      9 C07        -4.1960    0.1900   -0.1330 c3        1 1GS      0.697200
     10 F01        -4.3630   -0.3660   -1.3770 f         1 1GS     -0.236300
     11 F02        -4.2940   -0.8730    0.7320 f         1 1GS     -0.236300
     12 F03        -5.3630    0.8900    0.0730 f         1 1GS     -0.236300
     13 C08        -2.9640    2.3490    0.3450 ca        1 1GS     -0.055000
     14 C09        -1.7720    3.1130    0.4900 ca        1 1GS     -0.161000
     15 C10        -0.5310    2.5520    0.3170 ca        1 1GS     -0.044000
     16 C11        -0.4470    1.1840   -0.0110 ca        1 1GS     -0.124000
     17 C12         0.6070    0.2670   -0.2660 cc        1 1GS     -0.066300
     18 C13         2.0390    0.4980   -0.2800 ca        1 1GS     -0.171800
     19 C14         2.6710    0.9220   -1.4590 ca        1 1GS     -0.037000
     20 C15         4.0350    1.1730   -1.4930 ca        1 1GS     -0.197000
     21 C16         4.7920    0.9970   -0.3180 ca        1 1GS      0.173100
     22 O01         6.1360    1.2590   -0.4150 oh        1 1GS     -0.490100
     23 C17         4.1960    0.5790    0.8750 ca        1 1GS     -0.257000
     24 C18         2.8140    0.3310    0.8850 ca        1 1GS      0.193100
     25 O02         2.2950   -0.0920    2.0820 oh        1 1GS     -0.493100
     26 H1         -0.6150   -4.3130    0.2660 hc        1 1GS      0.043200
     27 H2          0.2570   -4.3190    1.8550 hc        1 1GS      0.043200
     28 H3         -0.7870   -2.9120    1.3990 hc        1 1GS      0.043200
     29 H4          1.6220   -2.3400    1.1190 hc        1 1GS      0.060700
     30 H5          1.6850   -4.7310   -0.8530 hc        1 1GS      0.043200
     31 H6          3.0400   -3.5730   -0.5140 hc        1 1GS      0.043200
     32 H7          2.4430   -4.6790    0.7920 hc        1 1GS      0.043200
     33 H8          1.6550   -1.8630   -1.4150 h1        1 1GS      0.080700
     34 H9          0.0930   -2.8180   -1.5500 h1        1 1GS      0.080700
     35 H10        -3.9330    2.8540    0.4970 ha        1 1GS      0.152000
     36 H11        -1.8700    4.1790    0.7470 ha        1 1GS      0.141000
     37 H12         0.3890    3.1440    0.4270 ha        1 1GS      0.144000
     38 H13         2.0680    1.0610   -2.3710 ha        1 1GS      0.148000
     39 H14         4.5330    1.5060   -2.4130 ha        1 1GS      0.158000
     40 H15         6.5370    1.1110    0.4540 ho        1 1GS      0.426000
     41 H16         4.7790    0.4420    1.7960 ha        1 1GS      0.158000
     42 H17         1.3270   -0.1190    2.0050 ho        1 1GS      0.437000
@<TRIPOS>BOND
     1    1    2 1   
     2    1   26 1   
     3    1   27 1   
     4    1   28 1   
     5    2    3 1   
     6    2    4 1   
     7    2   29 1   
     8    3   30 1   
     9    3   31 1   
    10    3   32 1   
    11    4    5 1   
    12    4   33 1   
    13    4   34 1   
    14    5    6 1   
    15    5   17 1   
    16    6    7 2   
    17    7    8 ar  
    18    7   16 ar  
    19    8    9 1   
    20    8   13 ar  
    21    9   10 1   
    22    9   11 1   
    23    9   12 1   
    24   13   14 ar  
    25   13   35 1   
    26   14   15 ar  
    27   14   36 1   
    28   15   16 ar  
    29   15   37 1   
    30   16   17 2   
    31   17   18 1   
    32   18   19 ar  
    33   18   24 ar  
    34   19   20 ar  
    35   19   38 1   
    36   20   21 ar  
    37   20   39 1   
    38   21   22 1   
    39   21   23 ar  
    40   22   40 1   
    41   23   24 ar  
    42   23   41 1   
    43   24   25 1   
    44   25   42 1   
@<TRIPOS>SUBSTRUCTURE
     1 1GS         1 TEMP              0 ****  ****    0 ROOT
