@<TRIPOS>MOLECULE
1GS
   42    44     1     0     0
SMALL
bcc


@<TRIPOS>ATOM
      1 C01        -0.1410    0.0000    0.1610 c3        1 1GS     -0.094100
      2 C02         1.3560    0.1240   -0.0130 c3        1 1GS     -0.083700
      3 C03         2.0440    0.1710    1.3370 c3        1 1GS     -0.094100
      4 C04         1.9370   -1.0560   -0.8040 c3        1 1GS      0.045300
      5 N01         1.6080   -1.0670   -2.2270 na        1 1GS      0.188800
      6 N02         0.4450   -1.5320   -2.6920 nc        1 1GS     -0.259400
      7 C05         0.4920   -1.3960   -4.0590 ca        1 1GS     -0.056000
      8 C06        -0.4610   -1.7280   -5.0630 ca        1 1GS     -0.139300
      9 C07        -1.7880   -2.3440   -4.6510 c3        1 1GS      0.697200
     10 F01        -1.6790   -3.5420   -3.9880 f         1 1GS     -0.238300
     11 F02        -2.5480   -1.5610   -3.8170 f         1 1GS     -0.238300
     12 F03        -2.6370   -2.6260   -5.6970 f         1 1GS     -0.238300
     13 C08        -0.1520   -1.4790   -6.3760 ca        1 1GS     -0.055000
     14 C09         1.0930   -0.9010   -6.7530 ca        1 1GS     -0.170000
     15 C10         2.0430   -0.5670   -5.8200 ca        1 1GS     -0.038000
     16 C11         1.7700   -0.8060   -4.4590 ca        1 1GS     -0.128000
     17 C12         2.4640   -0.6070   -3.2350 cc        1 1GS     -0.025300
     18 C13         3.7960   -0.0690   -3.0340 ca        1 1GS     -0.116800
     19 C14         4.9150   -0.8510   -3.3490 ca        1 1GS     -0.033000
     20 C15         6.2050   -0.3520   -3.2160 ca        1 1GS     -0.254000
     21 C16         6.3890    0.9640   -2.7610 ca        1 1GS      0.179100
     22 O01         7.6310    1.5270   -2.6070 oh        1 1GS     -0.491100
     23 C17         5.2950    1.7760   -2.4360 ca        1 1GS     -0.255000
     24 C18         4.0040    1.2500   -2.5740 ca        1 1GS      0.184100
     25 O02         2.8920    1.9900   -2.2590 oh        1 1GS     -0.484100
     26 H1         -0.5130    0.8070    0.8380 hc        1 1GS      0.041200
     27 H2         -0.6670    0.0960   -0.8190 hc        1 1GS      0.041200
     28 H3         -0.4060   -0.9880    0.6100 hc        1 1GS      0.041200
     29 H4          1.5810    1.0820   -0.5660 hc        1 1GS      0.073700
     30 H5          3.1460    0.3050    1.2160 hc        1 1GS      0.041200
     31 H6          1.8610   -0.7730    1.9050 hc        1 1GS      0.041200
     32 H7          1.6470    1.0250    1.9360 hc        1 1GS      0.041200
     33 H8          1.5710   -2.0200   -0.3470 h1        1 1GS      0.073200
     34 H9          3.0620   -1.0240   -0.7380 h1        1 1GS      0.073200
     35 H10        -0.8770   -1.7270   -7.1700 ha        1 1GS      0.149000
     36 H11         1.2770   -0.7240   -7.8230 ha        1 1GS      0.138000
     37 H12         3.0030   -0.1170   -6.1120 ha        1 1GS      0.139000
     38 H13         4.7630   -1.8810   -3.7120 ha        1 1GS      0.150000
     39 H14         7.0720   -0.9780   -3.4670 ha        1 1GS      0.143000
     40 H15         8.2940    0.8710   -2.8690 ho        1 1GS      0.427000
     41 H16         5.4590    2.8030   -2.0830 ha        1 1GS      0.158000
     42 H17         3.1800    2.8880   -2.0300 ho        1 1GS      0.427000
@<TRIPOS>BOND
     1    1    2 1   
     2    1   26 1   
     3    1   27 1   
     4    1   28 1   
     5    2    3 1   
     6    2    4 1   
     7    2   29 1   
     8    3   30 1   
     9    3   31 1   
    10    3   32 1   
    11    4    5 1   
    12    4   33 1   
    13    4   34 1   
    14    5    6 1   
    15    5   17 1   
    16    6    7 2   
    17    7    8 ar  
    18    7   16 ar  
    19    8    9 1   
    20    8   13 ar  
    21    9   10 1   
    22    9   11 1   
    23    9   12 1   
    24   13   14 ar  
    25   13   35 1   
    26   14   15 ar  
    27   14   36 1   
    28   15   16 ar  
    29   15   37 1   
    30   16   17 2   
    31   17   18 1   
    32   18   19 ar  
    33   18   24 ar  
    34   19   20 ar  
    35   19   38 1   
    36   20   21 ar  
    37   20   39 1   
    38   21   22 1   
    39   21   23 ar  
    40   22   40 1   
    41   23   24 ar  
    42   23   41 1   
    43   24   25 1   
    44   25   42 1   
@<TRIPOS>SUBSTRUCTURE
     1 1GS         1 TEMP              0 ****  ****    0 ROOT
