@<TRIPOS>MOLECULE
1GS
   42    35     1     0     0
SMALL
bcc


@<TRIPOS>ATOM
      1 C01         1.3900   -1.8980    3.9230 c3        1 1GS     -0.212500
      2 C02         1.5510   -0.7410    2.9140 c3        1 1GS     -0.120000
      3 C03         2.2280    0.4540    3.6060 c3        1 1GS     -0.212500
      4 C04         0.1630   -0.3160    2.3970 c3        1 1GS     -0.020000
      5 N01         0.2430   -0.0240    0.9740 n3        1 1GS     -0.031000
      6 N02         0.6440    1.2920    0.9840 n2        1 1GS     -0.080000
      7 C05         0.0720    1.9200   -0.0950 c1        1 1GS     -0.056000
      8 C06         0.0180    3.2830   -0.4640 c1        1 1GS     -0.132000
      9 C07         1.1920    4.1870   -0.3180 c3        1 1GS      0.476000
     10 F01         1.7280    4.4250   -1.5260 f         1 1GS     -0.166667
     11 F02         0.7990    5.3440    0.2330 f         1 1GS     -0.166667
     12 F03         2.1030    3.6100    0.4670 f         1 1GS     -0.166667
     13 C08        -0.8010    3.6890   -1.5150 c1        1 1GS     -0.056000
     14 C09        -1.5630    2.7570   -2.1990 c1        1 1GS     -0.123750
     15 C10        -1.5100    1.4150   -1.8370 c1        1 1GS     -0.123750
     16 C11        -0.6770    1.0020   -0.7670 c1        1 1GS     -0.132000
     17 C12        -0.5690   -0.2080   -0.0990 c1        1 1GS     -0.010000
     18 C13        -0.6960   -1.3470   -1.1150 c1        1 1GS     -0.096000
     19 C14         0.4200   -1.7920   -1.7910 c1        1 1GS     -0.123750
     20 C15         0.2910   -2.7510   -2.7910 c1        1 1GS     -0.123750
     21 C16        -0.9580   -3.2580   -3.1070 c1        1 1GS      0.131000
     22 O01        -1.0950   -4.1820   -4.1520 o         1 1GS     -0.245000
     23 C17        -2.0780   -2.8110   -2.4280 c1        1 1GS     -0.251000
     24 C18        -1.9510   -1.8570   -1.4330 c1        1 1GS      0.131000
     25 O02        -3.0980   -1.3810   -0.7610 oh        1 1GS     -0.245000
     26 H1          2.2240   -2.0060    4.4350 hc        1 1GS      0.081167
     27 H2          0.6570   -1.6960    4.5350 hc        1 1GS      0.081167
     28 H3          1.1930   -2.7280    3.4410 hc        1 1GS      0.081167
     29 H4          2.0970   -1.0360    2.1690 hc        1 1GS      0.097000
     30 H5          2.3400    1.1840    2.9620 hc        1 1GS      0.081167
     31 H6          1.6640    0.7620    4.3600 hc        1 1GS      0.081167
     32 H7          3.1080    0.1800    3.9460 hc        1 1GS      0.081167
     33 H8         -0.4820   -1.0480    2.5460 h1        1 1GS      0.120500
     34 H9         -0.1310    0.4770    2.8740 h1        1 1GS      0.120500
     35 H10        -0.8380    4.6320   -1.7700 ha        1 1GS      0.149000
     36 H11        -2.1350    3.0410   -2.9340 ha        1 1GS      0.142000
     37 H12        -2.0410    0.7650   -2.3140 ha        1 1GS      0.142000
     38 H13         1.2960   -1.4360   -1.5690 ha        1 1GS      0.142000
     39 H14         1.0830   -3.0670   -3.2710 ha        1 1GS      0.142000
     40 H15        -1.1330   -3.7520   -4.9220 ho        1 1GS      0.226000
     41 H16        -2.9680   -3.1720   -2.6540 ha        1 1GS      0.158000
     42 H17        -3.7830   -1.9130   -0.9340 ho        1 1GS      0.228000
@<TRIPOS>BOND
     1    1    2 1   
     2    1   26 1   
     3    1   27 1   
     4    1   28 1   
     5    2    3 1   
     6    2    4 1   
     7    2   29 1   
     8    3   30 1   
     9    3   31 1   
    10    3   32 1   
    11    4    5 1   
    12    4   33 1   
    13    4   34 1   
    14    5    6 1   
    15    5   17 1   
    16    6    7 1   
    17    7   16 1   
    18    8    9 1   
    19    8   13 1   
    20    9   10 1   
    21    9   11 1   
    22    9   12 1   
    23   13   35 1   
    24   14   15 1   
    25   14   36 1   
    26   15   37 1   
    27   18   24 1   
    28   19   20 1   
    29   19   38 1   
    30   20   39 1   
    31   21   23 1   
    32   22   40 1   
    33   23   41 1   
    34   24   25 1   
    35   25   42 1   
@<TRIPOS>SUBSTRUCTURE
     1 1GS         1 TEMP              0 ****  ****    0 ROOT
