@<TRIPOS>MOLECULE
1GS
   42    44     1     0     0
SMALL
bcc


@<TRIPOS>ATOM
      1 C01        -0.1370   -0.0120    0.1670 c3        1 1GS     -0.094100
      2 C02         1.3600    0.1150   -0.0100 c3        1 1GS     -0.083700
      3 C03         2.0510    0.1570    1.3390 c3        1 1GS     -0.094100
      4 C04         1.9410   -1.0630   -0.8070 c3        1 1GS      0.045300
      5 N01         1.6100   -1.0680   -2.2280 na        1 1GS      0.188800
      6 N02         0.4460   -1.5320   -2.6930 nc        1 1GS     -0.259400
      7 C05         0.4900   -1.3920   -4.0600 ca        1 1GS     -0.056000
      8 C06        -0.4640   -1.7200   -5.0630 ca        1 1GS     -0.139300
      9 C07        -1.7900   -2.3390   -4.6510 c3        1 1GS      0.697200
     10 F01        -1.6800   -3.5390   -3.9920 f         1 1GS     -0.238300
     11 F02        -2.5490   -1.5590   -3.8130 f         1 1GS     -0.238300
     12 F03        -2.6410   -2.6180   -5.6970 f         1 1GS     -0.238300
     13 C08        -0.1580   -1.4670   -6.3760 ca        1 1GS     -0.055000
     14 C09         1.0860   -0.8870   -6.7530 ca        1 1GS     -0.170000
     15 C10         2.0370   -0.5560   -5.8210 ca        1 1GS     -0.038000
     16 C11         1.7670   -0.8000   -4.4600 ca        1 1GS     -0.128000
     17 C12         2.4630   -0.6050   -3.2360 cc        1 1GS     -0.025300
     18 C13         3.7960   -0.0670   -3.0360 ca        1 1GS     -0.116800
     19 C14         4.9140   -0.8470   -3.3560 ca        1 1GS     -0.033000
     20 C15         6.2040   -0.3470   -3.2240 ca        1 1GS     -0.254000
     21 C16         6.3880    0.9660   -2.7640 ca        1 1GS      0.179100
     22 O01         7.6310    1.5300   -2.6100 oh        1 1GS     -0.491100
     23 C17         5.2950    1.7770   -2.4330 ca        1 1GS     -0.255000
     24 C18         4.0030    1.2500   -2.5710 ca        1 1GS      0.184100
     25 O02         2.8910    1.9890   -2.2510 oh        1 1GS     -0.484100
     26 H1         -0.5080    0.7920    0.8480 hc        1 1GS      0.041200
     27 H2         -0.6650    0.0860   -0.8110 hc        1 1GS      0.041200
     28 H3         -0.4000   -1.0020    0.6130 hc        1 1GS      0.041200
     29 H4          1.5830    1.0740   -0.5600 hc        1 1GS      0.073700
     30 H5          3.1520    0.2940    1.2160 hc        1 1GS      0.041200
     31 H6          1.8700   -0.7890    1.9040 hc        1 1GS      0.041200
     32 H7          1.6530    1.0090    1.9420 hc        1 1GS      0.041200
     33 H8          1.5770   -2.0290   -0.3520 h1        1 1GS      0.073200
     34 H9          3.0660   -1.0290   -0.7420 h1        1 1GS      0.073200
     35 H10        -0.8840   -1.7130   -7.1690 ha        1 1GS      0.149000
     36 H11         1.2680   -0.7070   -7.8230 ha        1 1GS      0.138000
     37 H12         2.9970   -0.1040   -6.1130 ha        1 1GS      0.139000
     38 H13         4.7620   -1.8750   -3.7230 ha        1 1GS      0.150000
     39 H14         7.0710   -0.9720   -3.4800 ha        1 1GS      0.143000
     40 H15         8.2940    0.8750   -2.8760 ho        1 1GS      0.427000
     41 H16         5.4590    2.8030   -2.0770 ha        1 1GS      0.158000
     42 H17         3.1790    2.8860   -2.0190 ho        1 1GS      0.427000
@<TRIPOS>BOND
     1    1    2 1   
     2    1   26 1   
     3    1   27 1   
     4    1   28 1   
     5    2    3 1   
     6    2    4 1   
     7    2   29 1   
     8    3   30 1   
     9    3   31 1   
    10    3   32 1   
    11    4    5 1   
    12    4   33 1   
    13    4   34 1   
    14    5    6 1   
    15    5   17 1   
    16    6    7 2   
    17    7    8 ar  
    18    7   16 ar  
    19    8    9 1   
    20    8   13 ar  
    21    9   10 1   
    22    9   11 1   
    23    9   12 1   
    24   13   14 ar  
    25   13   35 1   
    26   14   15 ar  
    27   14   36 1   
    28   15   16 ar  
    29   15   37 1   
    30   16   17 2   
    31   17   18 1   
    32   18   19 ar  
    33   18   24 ar  
    34   19   20 ar  
    35   19   38 1   
    36   20   21 ar  
    37   20   39 1   
    38   21   22 1   
    39   21   23 ar  
    40   22   40 1   
    41   23   24 ar  
    42   23   41 1   
    43   24   25 1   
    44   25   42 1   
@<TRIPOS>SUBSTRUCTURE
     1 1GS         1 TEMP              0 ****  ****    0 ROOT
