@<TRIPOS>MOLECULE
1GT
   40    42     1     0     0
SMALL
bcc


@<TRIPOS>ATOM
      1 C01        -3.2800    4.6600   -0.3250 c2        1 1GT     -0.208000
      2 C02        -3.3770    3.3530   -0.0910 c2        1 1GT     -0.173200
      3 C03        -2.3110    2.3760   -0.4220 c3        1 1GT     -0.074200
      4 C04        -1.9920    1.5260    0.8120 c3        1 1GT      0.053300
      5 N05        -0.9170    0.5630    0.6190 na        1 1GT      0.101900
      6 N06         0.3680    0.9840    0.6260 nc        1 1GT     -0.512100
      7 C07         1.1680   -0.0140    0.1880 cd        1 1GT      0.408500
      8 C08         2.6190    0.0280    0.1310 ca        1 1GT     -0.222900
      9 C09         3.3430   -1.0360    0.6980 ca        1 1GT     -0.046000
     10 C10         4.7280   -1.0600    0.6830 ca        1 1GT     -0.196000
     11 C11         5.4220    0.0090    0.0840 ca        1 1GT      0.170100
     12 O12         6.7930   -0.0680    0.1000 oh        1 1GT     -0.492100
     13 C13         4.7390    1.0810   -0.4930 ca        1 1GT     -0.257000
     14 C14         3.3320    1.0860   -0.4640 ca        1 1GT      0.203100
     15 O15         2.7560    2.1750   -1.0650 oh        1 1GT     -0.492100
     16 C16         0.3470   -1.1710   -0.1650 ca        1 1GT     -0.216900
     17 C17         0.6290   -2.4400   -0.6530 ca        1 1GT     -0.028000
     18 C18        -0.4280   -3.3140   -0.8730 ca        1 1GT     -0.173000
     19 C19        -1.7460   -2.9280   -0.5950 ca        1 1GT     -0.048000
     20 C20        -2.0640   -1.6630   -0.1000 ca        1 1GT     -0.185300
     21 C21        -3.5250   -1.3580    0.1910 c3        1 1GT      0.693200
     22 F22        -4.0500   -0.3110   -0.5300 f         1 1GT     -0.237633
     23 F23        -4.3930   -2.3910   -0.0710 f         1 1GT     -0.237633
     24 F24        -3.7960   -1.0380    1.5010 f         1 1GT     -0.237633
     25 C25        -1.0150   -0.7490    0.1120 ca        1 1GT      0.003800
     26 H1         -2.3880    5.1230   -0.7650 ha        1 1GT      0.115000
     27 H2         -4.0960    5.3560   -0.0900 ha        1 1GT      0.115000
     28 H4         -4.2870    2.9160    0.3520 ha        1 1GT      0.126000
     29 H5         -2.6740    1.7110   -1.2540 hc        1 1GT      0.061700
     30 H6         -1.6940    2.2090    1.6600 h1        1 1GT      0.079200
     31 H7         -2.9080    0.9560    1.1280 h1        1 1GT      0.079200
     32 H8          2.7890   -1.8630    1.1700 ha        1 1GT      0.142000
     33 H9          5.2920   -1.8890    1.1310 ha        1 1GT      0.155000
     34 H10         7.1450    0.7280   -0.3270 ho        1 1GT      0.425000
     35 H11         5.2720    1.9190   -0.9630 ha        1 1GT      0.156000
     36 H12         1.7930    2.0830   -1.0370 ho        1 1GT      0.437000
     37 H13         1.6690   -2.7360   -0.8580 ha        1 1GT      0.151000
     38 H14        -0.2370   -4.3240   -1.2650 ha        1 1GT      0.146000
     39 H15        -2.5580   -3.6530   -0.7750 ha        1 1GT      0.155000
     40 H3         -1.3860    2.8990   -0.7810 hc        1 1GT      0.061700
@<TRIPOS>BOND
     1    1    2 2   
     2    1   26 1   
     3    1   27 1   
     4    2    3 1   
     5    2   28 1   
     6    3    4 1   
     7    3   29 1   
     8    3   40 1   
     9    4    5 1   
    10    4   30 1   
    11    4   31 1   
    12    5    6 1   
    13    5   25 1   
    14    6    7 2   
    15    7    8 1   
    16    7   16 1   
    17    8    9 ar  
    18    8   14 ar  
    19    9   10 ar  
    20    9   32 1   
    21   10   11 ar  
    22   10   33 1   
    23   11   12 1   
    24   11   13 ar  
    25   12   34 1   
    26   13   14 ar  
    27   13   35 1   
    28   14   15 1   
    29   15   36 1   
    30   16   17 ar  
    31   16   25 ar  
    32   17   18 ar  
    33   17   37 1   
    34   18   19 ar  
    35   18   38 1   
    36   19   20 ar  
    37   19   39 1   
    38   20   21 1   
    39   20   25 ar  
    40   21   22 1   
    41   21   23 1   
    42   21   24 1   
@<TRIPOS>SUBSTRUCTURE
     1 1GT         1 TEMP              0 ****  ****    0 ROOT
