@<TRIPOS>MOLECULE
1GT
   40    42     1     0     0
SMALL
bcc


@<TRIPOS>ATOM
      1 C01        -0.1710    0.0820    0.3350 c2        1 1GT     -0.213000
      2 C02         1.1520   -0.0360    0.2470 c2        1 1GT     -0.169200
      3 C03         2.0630   -0.0030    1.4170 c3        1 1GT     -0.077200
      4 C04         2.9960   -1.2160    1.3790 c3        1 1GT      0.053300
      5 N05         3.9040   -1.3190    2.5130 na        1 1GT      0.098900
      6 N06         3.4280   -1.7460    3.7080 nc        1 1GT     -0.478100
      7 C07         4.3320   -1.4690    4.6710 cd        1 1GT      0.420500
      8 C08         4.2050   -1.8270    6.0730 ca        1 1GT     -0.164900
      9 C09         5.2600   -2.4890    6.7160 ca        1 1GT     -0.049000
     10 C10         5.1820   -2.8560    8.0520 ca        1 1GT     -0.196000
     11 C11         4.0130   -2.5540    8.7740 ca        1 1GT      0.174100
     12 O12         3.9900   -2.9430   10.0910 oh        1 1GT     -0.491100
     13 C13         2.9420   -1.8900    8.1690 ca        1 1GT     -0.310000
     14 C14         3.0440   -1.5280    6.8170 ca        1 1GT      0.195100
     15 O15         2.0340   -0.8520    6.1800 oh        1 1GT     -0.476100
     16 C16         5.4730   -0.7680    4.0820 ca        1 1GT     -0.214900
     17 C17         6.6610   -0.2610    4.5890 ca        1 1GT     -0.032000
     18 C18         7.5480    0.3530    3.7130 ca        1 1GT     -0.174000
     19 C19         7.2540    0.4440    2.3470 ca        1 1GT     -0.053000
     20 C20         6.0730   -0.0600    1.8030 ca        1 1GT     -0.185300
     21 C21         5.8690    0.0620    0.3010 c3        1 1GT      0.693200
     22 F22         4.7860    0.8210   -0.0760 f         1 1GT     -0.239300
     23 F23         6.9140    0.6450   -0.3770 f         1 1GT     -0.239300
     24 F24         5.6920   -1.1320   -0.3570 f         1 1GT     -0.239300
     25 C25         5.1450   -0.6630    2.6710 ca        1 1GT      0.001800
     26 H1         -0.6970    0.1940    1.2930 ha        1 1GT      0.113500
     27 H2         -0.8180    0.0770   -0.5510 ha        1 1GT      0.113500
     28 H4          1.6530   -0.1470   -0.7300 ha        1 1GT      0.124000
     29 H5          2.6710    0.9430    1.3750 hc        1 1GT      0.065200
     30 H6          3.6220   -1.1850    0.4450 h1        1 1GT      0.076200
     31 H7          2.3730   -2.1560    1.3530 h1        1 1GT      0.076200
     32 H8          6.1690   -2.7270    6.1390 ha        1 1GT      0.145000
     33 H9          6.0090   -3.3780    8.5520 ha        1 1GT      0.156000
     34 H10         3.1350   -2.6880   10.4670 ho        1 1GT      0.422000
     35 H11         2.0330   -1.6550    8.7390 ha        1 1GT      0.138000
     36 H12         1.2950   -0.7620    6.8010 ho        1 1GT      0.420000
     37 H13         6.8880   -0.3500    5.6630 ha        1 1GT      0.148000
     38 H14         8.4940    0.7700    4.0870 ha        1 1GT      0.144000
     39 H15         7.9870    0.9300    1.6790 ha        1 1GT      0.152000
     40 H3          1.4830    0.0080    2.3780 hc        1 1GT      0.065200
@<TRIPOS>BOND
     1    1    2 2   
     2    1   26 1   
     3    1   27 1   
     4    2    3 1   
     5    2   28 1   
     6    3    4 1   
     7    3   29 1   
     8    3   40 1   
     9    4    5 1   
    10    4   30 1   
    11    4   31 1   
    12    5    6 1   
    13    5   25 1   
    14    6    7 2   
    15    7    8 1   
    16    7   16 1   
    17    8    9 ar  
    18    8   14 ar  
    19    9   10 ar  
    20    9   32 1   
    21   10   11 ar  
    22   10   33 1   
    23   11   12 1   
    24   11   13 ar  
    25   12   34 1   
    26   13   14 ar  
    27   13   35 1   
    28   14   15 1   
    29   15   36 1   
    30   16   17 ar  
    31   16   25 ar  
    32   17   18 ar  
    33   17   37 1   
    34   18   19 ar  
    35   18   38 1   
    36   19   20 ar  
    37   19   39 1   
    38   20   21 1   
    39   20   25 ar  
    40   21   22 1   
    41   21   23 1   
    42   21   24 1   
@<TRIPOS>SUBSTRUCTURE
     1 1GT         1 TEMP              0 ****  ****    0 ROOT
