@<TRIPOS>MOLECULE
1GT
   40    32     1     0     0
SMALL
bcc


@<TRIPOS>ATOM
      1 C01        -4.2470   -3.9950    0.2610 c1        1 1GT     -0.138833
      2 C02        -3.8880   -2.8490   -0.3490 c1        1 1GT     -0.138833
      3 C03        -2.7310   -2.0240    0.1980 c2        1 1GT     -0.137000
      4 C04        -1.7550   -1.7080   -0.9290 c3        1 1GT     -0.001000
      5 N05        -0.5970   -1.0330   -0.3900 n3        1 1GT     -0.148000
      6 N06        -0.8580    0.2330    0.1120 n2        1 1GT     -0.006000
      7 C07         0.2750    0.9650    0.0130 c1        1 1GT     -0.043000
      8 C08         0.3700    2.3880    0.5740 c1        1 1GT     -0.078000
      9 C09         0.1100    3.4770   -0.2500 c1        1 1GT     -0.138833
     10 C10         0.2490    4.7710    0.2430 c1        1 1GT     -0.138833
     11 C11         0.6480    4.9750    1.5590 c1        1 1GT      0.128000
     12 O12         0.8840    6.2830    2.0290 o         1 1GT     -0.245000
     13 C13         0.9090    3.8850    2.3820 c1        1 1GT     -0.310000
     14 C14         0.7690    2.5910    1.8880 c1        1 1GT      0.149000
     15 O15         0.9690    1.4900    2.7380 oh        1 1GT     -0.229000
     16 C16         1.2580    0.1610   -0.5540 c1        1 1GT     -0.130000
     17 C17         2.5880    0.4280   -0.9390 c1        1 1GT     -0.138833
     18 C18         3.3400   -0.5560   -1.5650 c1        1 1GT     -0.138833
     19 C19         2.7840   -1.8000   -1.8120 c1        1 1GT     -0.050000
     20 C20         1.4720   -2.0640   -1.4320 c1        1 1GT     -0.180000
     21 C21         1.5800   -3.5270   -1.1270 c3        1 1GT      0.473000
     22 F22         2.7680   -3.7780   -0.5640 f         1 1GT     -0.168333
     23 F23         1.4670   -4.2280   -2.2600 f         1 1GT     -0.168333
     24 F24         0.6040   -3.8810   -0.2860 f         1 1GT     -0.168333
     25 C25         0.7100   -1.0660   -0.7980 c1        1 1GT      0.045000
     26 H1         -3.7660   -4.2970    1.0540 DU        1 1GT      0.113000
     27 H2         -4.9900   -4.5250   -0.0910 ha        1 1GT      0.137833
     28 H4         -4.3710   -2.5470   -1.1440 ha        1 1GT      0.137833
     29 H5         -2.2690   -2.5320    0.8980 ha        1 1GT      0.109000
     30 H6         -2.1950   -1.1280   -1.5890 h1        1 1GT      0.105000
     31 H7         -1.4750   -2.5440   -1.3630 h1        1 1GT      0.105000
     32 H8         -0.1700    3.3340   -1.1690 ha        1 1GT      0.137833
     33 H9          0.0650    5.5390   -0.3380 ha        1 1GT      0.137833
     34 H10         0.1470    6.5950    2.4210 ho        1 1GT      0.221000
     35 H11         1.1890    4.0270    3.3040 ha        1 1GT      0.138000
     36 H12         0.6760    1.6880    3.5530 ho        1 1GT      0.219000
     37 H13         2.9810    1.3070   -0.7650 ha        1 1GT      0.137833
     38 H14         4.2590   -0.3710   -1.8310 ha        1 1GT      0.137833
     39 H15         3.3150   -2.4950   -2.2540 ha        1 1GT      0.152000
     40 H3         -3.0750   -1.1890    0.5750 ha        1 1GT      0.109000
@<TRIPOS>BOND
     1    1    2 1   
     2    1   27 1   
     3    2   28 1   
     4    3    4 1   
     5    3   29 1   
     6    3   40 1   
     7    4    5 1   
     8    4   30 1   
     9    4   31 1   
    10    5    6 1   
    11    5   25 1   
    12    6    7 1   
    13    7   16 1   
    14    8   14 1   
    15    9   10 1   
    16    9   32 1   
    17   10   33 1   
    18   11   13 1   
    19   12   34 1   
    20   13   35 1   
    21   14   15 1   
    22   15   36 1   
    23   16   25 1   
    24   17   18 1   
    25   17   37 1   
    26   18   38 1   
    27   19   20 1   
    28   19   39 1   
    29   20   21 1   
    30   21   22 1   
    31   21   23 1   
    32   21   24 1   
@<TRIPOS>SUBSTRUCTURE
     1 1GT         1 TEMP              0 ****  ****    0 ROOT
