@<TRIPOS>MOLECULE
1GT
   40    42     1     0     0
SMALL
bcc


@<TRIPOS>ATOM
      1 C01        -0.1740    0.1050    0.3460 c2        1 1GT     -0.213000
      2 C02         1.1470   -0.0190    0.2550 c2        1 1GT     -0.169200
      3 C03         2.0610    0.0090    1.4230 c3        1 1GT     -0.077200
      4 C04         2.9890   -1.2080    1.3810 c3        1 1GT      0.053300
      5 N05         3.8990   -1.3170    2.5130 na        1 1GT      0.098900
      6 N06         3.4250   -1.7440    3.7080 nc        1 1GT     -0.478100
      7 C07         4.3310   -1.4710    4.6690 cd        1 1GT      0.420500
      8 C08         4.2060   -1.8300    6.0710 ca        1 1GT     -0.164900
      9 C09         5.2600   -2.4980    6.7110 ca        1 1GT     -0.049000
     10 C10         5.1830   -2.8660    8.0470 ca        1 1GT     -0.196000
     11 C11         4.0180   -2.5600    8.7720 ca        1 1GT      0.174100
     12 O12         3.9960   -2.9500   10.0890 oh        1 1GT     -0.491100
     13 C13         2.9470   -1.8900    8.1710 ca        1 1GT     -0.310000
     14 C14         3.0490   -1.5270    6.8180 ca        1 1GT      0.195100
     15 O15         2.0400   -0.8460    6.1850 oh        1 1GT     -0.476100
     16 C16         5.4740   -0.7740    4.0780 ca        1 1GT     -0.214900
     17 C17         6.6660   -0.2740    4.5840 ca        1 1GT     -0.032000
     18 C18         7.5530    0.3380    3.7060 ca        1 1GT     -0.174000
     19 C19         7.2570    0.4320    2.3410 ca        1 1GT     -0.053000
     20 C20         6.0720   -0.0670    1.7990 ca        1 1GT     -0.185300
     21 C21         5.8650    0.0590    0.2980 c3        1 1GT      0.693200
     22 F22         4.7850    0.8220   -0.0760 f         1 1GT     -0.239300
     23 F23         6.9120    0.6380   -0.3820 f         1 1GT     -0.239300
     24 F24         5.6820   -1.1340   -0.3610 f         1 1GT     -0.239300
     25 C25         5.1430   -0.6670    2.6680 ca        1 1GT      0.001800
     26 H1         -0.6980    0.2170    1.3050 ha        1 1GT      0.113500
     27 H2         -0.8240    0.1030   -0.5390 ha        1 1GT      0.113500
     28 H4          1.6460   -0.1310   -0.7230 ha        1 1GT      0.124000
     29 H5          2.6740    0.9510    1.3800 hc        1 1GT      0.065200
     30 H6          3.6130   -1.1790    0.4460 h1        1 1GT      0.076200
     31 H7          2.3620   -2.1460    1.3560 h1        1 1GT      0.076200
     32 H8          6.1670   -2.7390    6.1320 ha        1 1GT      0.145000
     33 H9          6.0080   -3.3930    8.5440 ha        1 1GT      0.156000
     34 H10         3.1420   -2.6920   10.4670 ho        1 1GT      0.422000
     35 H11         2.0410   -1.6520    8.7430 ha        1 1GT      0.138000
     36 H12         1.3020   -0.7540    6.8070 ho        1 1GT      0.420000
     37 H13         6.8940   -0.3640    5.6570 ha        1 1GT      0.148000
     38 H14         8.5010    0.7510    4.0790 ha        1 1GT      0.144000
     39 H15         7.9900    0.9160    1.6730 ha        1 1GT      0.152000
     40 H3          1.4830    0.0200    2.3850 hc        1 1GT      0.065200
@<TRIPOS>BOND
     1    1    2 2   
     2    1   26 1   
     3    1   27 1   
     4    2    3 1   
     5    2   28 1   
     6    3    4 1   
     7    3   29 1   
     8    3   40 1   
     9    4    5 1   
    10    4   30 1   
    11    4   31 1   
    12    5    6 1   
    13    5   25 1   
    14    6    7 2   
    15    7    8 1   
    16    7   16 1   
    17    8    9 ar  
    18    8   14 ar  
    19    9   10 ar  
    20    9   32 1   
    21   10   11 ar  
    22   10   33 1   
    23   11   12 1   
    24   11   13 ar  
    25   12   34 1   
    26   13   14 ar  
    27   13   35 1   
    28   14   15 1   
    29   15   36 1   
    30   16   17 ar  
    31   16   25 ar  
    32   17   18 ar  
    33   17   37 1   
    34   18   19 ar  
    35   18   38 1   
    36   19   20 ar  
    37   19   39 1   
    38   20   21 1   
    39   20   25 ar  
    40   21   22 1   
    41   21   23 1   
    42   21   24 1   
@<TRIPOS>SUBSTRUCTURE
     1 1GT         1 TEMP              0 ****  ****    0 ROOT
