@<TRIPOS>MOLECULE
1GU
   40    42     1     0     0
SMALL
bcc


@<TRIPOS>ATOM
      1 C01         0.0490   -1.1930   -0.3430 c2        1 1GU     -0.207000
      2 C02         1.0810   -0.4930    0.1210 c2        1 1GU     -0.178200
      3 C03         1.6500   -0.6700    1.4800 c3        1 1GU     -0.062200
      4 C04         3.1670   -0.8280    1.3840 c3        1 1GU      0.052300
      5 N05         3.8570   -0.8580    2.6710 na        1 1GU      0.192800
      6 N06         3.3450   -1.4570    3.7490 nc        1 1GU     -0.261400
      7 C07         4.2670   -1.2980    4.7560 ca        1 1GU     -0.054000
      8 C08         4.2520   -1.7290    6.1120 ca        1 1GU     -0.138300
      9 C09         3.0500   -2.5020    6.6310 c3        1 1GU      0.697200
     10 F10         1.8590   -1.8230    6.5550 f         1 1GU     -0.238300
     11 F11         2.8080   -3.6870    5.9800 f         1 1GU     -0.238300
     12 F12         3.1340   -2.8680    7.9550 f         1 1GU     -0.238300
     13 C13         5.3260   -1.4340    6.9130 ca        1 1GU     -0.056000
     14 C14         6.4470   -0.7100    6.4190 ca        1 1GU     -0.168000
     15 C15         6.5040   -0.2730    5.1190 ca        1 1GU     -0.042000
     16 C16         5.4230   -0.5520    4.2620 ca        1 1GU     -0.133000
     17 C17         5.1150   -0.2880    2.8960 cc        1 1GU     -0.027300
     18 C18         5.9250    0.4310    1.9350 ca        1 1GU     -0.104800
     19 C19         6.4550    1.6820    2.2940 ca        1 1GU     -0.044000
     20 C20         7.2800    2.3960    1.4380 ca        1 1GU     -0.191000
     21 C21         7.5960    1.8510    0.1800 ca        1 1GU      0.176100
     22 O22         8.4190    2.6000   -0.6220 oh        1 1GU     -0.487100
     23 C23         7.0890    0.6080   -0.2150 ca        1 1GU     -0.304000
     24 C24         6.2530   -0.0930    0.6670 ca        1 1GU      0.178100
     25 O25         5.7120   -1.3080    0.3200 oh        1 1GU     -0.496100
     26 H1         -0.4500   -1.9780    0.2410 ha        1 1GU      0.116000
     27 H2         -0.3700   -1.0230   -1.3440 ha        1 1GU      0.116000
     28 H4          1.5600    0.2900   -0.4910 ha        1 1GU      0.118000
     29 H6          1.3940    0.2310    2.1030 hc        1 1GU      0.072700
     30 H7          1.2020   -1.5640    1.9900 hc        1 1GU      0.072700
     31 H8          3.6070    0.0280    0.7980 h1        1 1GU      0.073200
     32 H9          3.4160   -1.7880    0.8450 h1        1 1GU      0.073200
     33 H10         5.3340   -1.7590    7.9670 ha        1 1GU      0.149000
     34 H11         7.2780   -0.5080    7.1120 ha        1 1GU      0.138000
     35 H12         7.3710    0.2850    4.7350 ha        1 1GU      0.138000
     36 H13         6.2050    2.0970    3.2850 ha        1 1GU      0.152000
     37 H14         7.6900    3.3740    1.7230 ha        1 1GU      0.160000
     38 H15         8.5640    2.1160   -1.4480 ho        1 1GU      0.424000
     39 H16         7.3420    0.1840   -1.1960 ha        1 1GU      0.141000
     40 H17         6.1340   -1.6050   -0.5000 ho        1 1GU      0.427000
@<TRIPOS>BOND
     1    1    2 2   
     2    1   26 1   
     3    1   27 1   
     4    2    3 1   
     5    2   28 1   
     6    3    4 1   
     7    3   29 1   
     8    3   30 1   
     9    4    5 1   
    10    4   31 1   
    11    4   32 1   
    12    5    6 1   
    13    5   17 1   
    14    6    7 2   
    15    7    8 ar  
    16    7   16 ar  
    17    8    9 1   
    18    8   13 ar  
    19    9   10 1   
    20    9   11 1   
    21    9   12 1   
    22   13   14 ar  
    23   13   33 1   
    24   14   15 ar  
    25   14   34 1   
    26   15   16 ar  
    27   15   35 1   
    28   16   17 2   
    29   17   18 1   
    30   18   19 ar  
    31   18   24 ar  
    32   19   20 ar  
    33   19   36 1   
    34   20   21 ar  
    35   20   37 1   
    36   21   22 1   
    37   21   23 ar  
    38   22   38 1   
    39   23   24 ar  
    40   23   39 1   
    41   24   25 1   
    42   25   40 1   
@<TRIPOS>SUBSTRUCTURE
     1 1GU         1 TEMP              0 ****  ****    0 ROOT
