@<TRIPOS>MOLECULE
1GU
   40    42     1     0     0
SMALL
bcc


@<TRIPOS>ATOM
      1 C01         0.0240   -1.0870   -0.3310 c2        1 1GU     -0.207000
      2 C02         1.0680   -0.4080    0.1380 c2        1 1GU     -0.178200
      3 C03         1.6410   -0.6120    1.4920 c3        1 1GU     -0.062200
      4 C04         3.1550   -0.7910    1.3860 c3        1 1GU      0.052300
      5 N05         3.8510   -0.8480    2.6680 na        1 1GU      0.192800
      6 N06         3.3360   -1.4550    3.7410 nc        1 1GU     -0.261400
      7 C07         4.2650   -1.3230    4.7460 ca        1 1GU     -0.054000
      8 C08         4.2490   -1.7720    6.0950 ca        1 1GU     -0.138300
      9 C09         3.0390   -2.5340    6.6100 c3        1 1GU      0.697200
     10 F10         1.8570   -1.8370    6.5500 f         1 1GU     -0.238300
     11 F11         2.7760   -3.7060    5.9440 f         1 1GU     -0.238300
     12 F12         3.1240   -2.9190    7.9290 f         1 1GU     -0.238300
     13 C13         5.3320   -1.5030    6.8950 ca        1 1GU     -0.056000
     14 C14         6.4610   -0.7890    6.4050 ca        1 1GU     -0.168000
     15 C15         6.5180   -0.3350    5.1100 ca        1 1GU     -0.042000
     16 C16         5.4290   -0.5870    4.2550 ca        1 1GU     -0.133000
     17 C17         5.1180   -0.3000    2.8950 cc        1 1GU     -0.027300
     18 C18         5.9340    0.4200    1.9390 ca        1 1GU     -0.104800
     19 C19         6.4830    1.6580    2.3130 ca        1 1GU     -0.044000
     20 C20         7.3150    2.3710    1.4620 ca        1 1GU     -0.191000
     21 C21         7.6170    1.8380    0.1960 ca        1 1GU      0.176100
     22 O22         8.4470    2.5870   -0.6000 oh        1 1GU     -0.487100
     23 C23         7.0900    0.6090   -0.2140 ca        1 1GU     -0.304000
     24 C24         6.2480   -0.0920    0.6630 ca        1 1GU      0.178100
     25 O25         5.6880   -1.2940    0.3020 oh        1 1GU     -0.496100
     26 H1         -0.4830   -1.8730    0.2450 ha        1 1GU      0.116000
     27 H2         -0.3970   -0.8970   -1.3270 ha        1 1GU      0.116000
     28 H4          1.5550    0.3760   -0.4650 ha        1 1GU      0.118000
     29 H6          1.4010    0.2840    2.1280 hc        1 1GU      0.072700
     30 H7          1.1820   -1.5070    1.9910 hc        1 1GU      0.072700
     31 H8          3.6040    0.0670    0.8090 h1        1 1GU      0.073200
     32 H9          3.3870   -1.7480    0.8320 h1        1 1GU      0.073200
     33 H10         5.3400   -1.8430    7.9440 ha        1 1GU      0.149000
     34 H11         7.2980   -0.6080    7.0960 ha        1 1GU      0.138000
     35 H12         7.3910    0.2150    4.7300 ha        1 1GU      0.138000
     36 H13         6.2450    2.0630    3.3100 ha        1 1GU      0.152000
     37 H14         7.7410    3.3400    1.7580 ha        1 1GU      0.160000
     38 H15         8.5810    2.1110   -1.4340 ho        1 1GU      0.424000
     39 H16         7.3320    0.1940   -1.2020 ha        1 1GU      0.141000
     40 H17         6.1010   -1.5860   -0.5240 ho        1 1GU      0.427000
@<TRIPOS>BOND
     1    1    2 2   
     2    1   26 1   
     3    1   27 1   
     4    2    3 1   
     5    2   28 1   
     6    3    4 1   
     7    3   29 1   
     8    3   30 1   
     9    4    5 1   
    10    4   31 1   
    11    4   32 1   
    12    5    6 1   
    13    5   17 1   
    14    6    7 2   
    15    7    8 ar  
    16    7   16 ar  
    17    8    9 1   
    18    8   13 ar  
    19    9   10 1   
    20    9   11 1   
    21    9   12 1   
    22   13   14 ar  
    23   13   33 1   
    24   14   15 ar  
    25   14   34 1   
    26   15   16 ar  
    27   15   35 1   
    28   16   17 2   
    29   17   18 1   
    30   18   19 ar  
    31   18   24 ar  
    32   19   20 ar  
    33   19   36 1   
    34   20   21 ar  
    35   20   37 1   
    36   21   22 1   
    37   21   23 ar  
    38   22   38 1   
    39   23   24 ar  
    40   23   39 1   
    41   24   25 1   
    42   25   40 1   
@<TRIPOS>SUBSTRUCTURE
     1 1GU         1 TEMP              0 ****  ****    0 ROOT
