@<TRIPOS>MOLECULE
1GU
   40    31     1     0     0
SMALL
bcc


@<TRIPOS>ATOM
      1 C01        -4.7830    0.4200   -2.9270 c1        1 1GU     -0.145833
      2 C02        -3.3950    0.1950   -2.9120 c1        1 1GU     -0.145833
      3 C03        -2.6390    0.1580   -1.5780 c2        1 1GU     -0.144000
      4 C04        -1.2960   -0.4690   -1.7800 c3        1 1GU     -0.008000
      5 N05        -0.5820   -0.4580   -0.5510 n3        1 1GU     -0.032000
      6 N06        -1.1510   -1.4530    0.2130 n2        1 1GU     -0.082000
      7 C07        -0.4810   -1.5080    1.4090 c1        1 1GU     -0.054000
      8 C08        -0.6160   -2.3500    2.5250 c1        1 1GU     -0.131000
      9 C09        -1.6310   -3.4870    2.7180 c3        1 1GU      0.476000
     10 F10        -2.5110   -3.5110    1.6400 f         1 1GU     -0.166667
     11 F11        -0.9860   -4.6460    2.7910 f         1 1GU     -0.166667
     12 F12        -2.3420   -3.2800    3.8930 f         1 1GU     -0.166667
     13 C13         0.2490   -2.2120    3.6090 c1        1 1GU     -0.056000
     14 C14         1.2590   -1.2260    3.5830 c1        1 1GU     -0.145833
     15 C15         1.3870   -0.4090    2.4970 c1        1 1GU     -0.145833
     16 C16         0.5010   -0.5510    1.3870 c1        1 1GU     -0.134000
     17 C17         0.4360    0.0990    0.1710 c1        1 1GU     -0.012000
     18 C18         1.4380    1.1450   -0.2820 c1        1 1GU     -0.093000
     19 C19         1.2040    2.4830   -0.0440 c1        1 1GU     -0.145833
     20 C20         2.1290    3.4260   -0.4510 c1        1 1GU     -0.145833
     21 C21         3.2980    3.0150   -1.1020 c1        1 1GU      0.131000
     22 O22         4.2050    3.9560   -1.5740 o         1 1GU     -0.244000
     23 C23         3.5220    1.6680   -1.3350 c1        1 1GU     -0.249000
     24 C24         2.6110    0.7450   -0.9330 c1        1 1GU      0.129000
     25 O25         2.8400   -0.6150   -1.1850 oh        1 1GU     -0.250000
     26 H1         -5.2690    0.5540   -2.0820 DU        1 1GU      0.118000
     27 H2         -5.2700    0.4470   -3.7860 ha        1 1GU      0.133333
     28 H4         -2.8830    0.0550   -3.8020 ha        1 1GU      0.133333
     29 H6         -3.1380   -0.3590   -0.9420 ha        1 1GU      0.111500
     30 H7         -2.5250    1.0770   -1.2370 ha        1 1GU      0.111500
     31 H8         -1.4090   -1.3970   -2.0870 h1        1 1GU      0.113000
     32 H9         -0.7840    0.0500   -2.4690 h1        1 1GU      0.113000
     33 H10         0.1520   -2.8160    4.4110 ha        1 1GU      0.149000
     34 H11         1.8330   -1.1330    4.3000 ha        1 1GU      0.133333
     35 H12         2.1170    0.3030    2.4780 ha        1 1GU      0.133333
     36 H13         0.3830    2.7640    0.4110 ha        1 1GU      0.133333
     37 H14         1.9610    4.4040   -0.2770 ha        1 1GU      0.133333
     38 H15         4.6960    4.2380   -0.9200 ho        1 1GU      0.226000
     39 H16         4.3090    1.3910   -1.7700 ha        1 1GU      0.158000
     40 H17         3.1570   -0.7150   -2.0100 ho        1 1GU      0.229000
@<TRIPOS>BOND
     1    1    2 1   
     2    1   27 1   
     3    2   28 1   
     4    3    4 1   
     5    3   29 1   
     6    3   30 1   
     7    4    5 1   
     8    4   31 1   
     9    4   32 1   
    10    5    6 1   
    11    5   17 1   
    12    6    7 1   
    13    7   16 1   
    14    8    9 1   
    15    8   13 1   
    16    9   10 1   
    17    9   11 1   
    18    9   12 1   
    19   13   33 1   
    20   14   15 1   
    21   14   34 1   
    22   15   35 1   
    23   18   24 1   
    24   19   20 1   
    25   19   36 1   
    26   20   37 1   
    27   21   23 1   
    28   22   38 1   
    29   23   39 1   
    30   24   25 1   
    31   25   40 1   
@<TRIPOS>SUBSTRUCTURE
     1 1GU         1 TEMP              0 ****  ****    0 ROOT
