@<TRIPOS>MOLECULE
1GU
   40    42     1     0     0
SMALL
bcc


@<TRIPOS>ATOM
      1 C01         1.3960    5.6230    0.4410 c2        1 1GU     -0.199000
      2 C02         1.7830    4.3510    0.3780 c2        1 1GU     -0.183200
      3 C03         0.8870    3.2050    0.6700 c3        1 1GU     -0.065200
      4 C04         0.9780    2.1820   -0.4640 c3        1 1GU      0.040300
      5 N05         0.1650    0.9880   -0.2470 na        1 1GU      0.180800
      6 N06        -1.1700    1.0360   -0.2220 nc        1 1GU     -0.252400
      7 C07        -1.6000   -0.2500    0.0020 ca        1 1GU     -0.054000
      8 C08        -2.9130   -0.7870    0.1220 ca        1 1GU     -0.137300
      9 C09        -4.1090    0.1410   -0.0160 c3        1 1GU      0.697200
     10 F10        -4.1520    1.1560    0.9080 f         1 1GU     -0.236300
     11 F11        -4.1970    0.7790   -1.2290 f         1 1GU     -0.236300
     12 F12        -5.3310   -0.4780    0.1190 f         1 1GU     -0.236300
     13 C13        -3.0580   -2.1310    0.3610 ca        1 1GU     -0.054000
     14 C14        -1.9320   -2.9920    0.4870 ca        1 1GU     -0.160000
     15 C15        -0.6490   -2.5190    0.3750 ca        1 1GU     -0.051000
     16 C16        -0.4510   -1.1450    0.1300 ca        1 1GU     -0.146000
     17 C17         0.6800   -0.2970   -0.0290 cc        1 1GU     -0.046300
     18 C18         2.0860   -0.6430    0.0250 ca        1 1GU     -0.169800
     19 C19         2.9330   -0.0180    0.9550 ca        1 1GU     -0.046000
     20 C20         4.2750   -0.3480    1.0460 ca        1 1GU     -0.195000
     21 C21         4.7970   -1.3350    0.1860 ca        1 1GU      0.174100
     22 O22         6.1330   -1.6170    0.3210 oh        1 1GU     -0.489100
     23 C23         3.9860   -1.9820   -0.7490 ca        1 1GU     -0.256000
     24 C24         2.6260   -1.6320   -0.8220 ca        1 1GU      0.198100
     25 O25         1.8980   -2.3130   -1.7630 oh        1 1GU     -0.493100
     26 H1          0.3710    5.9230    0.6950 ha        1 1GU      0.118000
     27 H2          2.0870    6.4540    0.2430 ha        1 1GU      0.118000
     28 H4          2.8210    4.0820    0.1180 ha        1 1GU      0.120000
     29 H6          1.2030    2.7330    1.6400 hc        1 1GU      0.067700
     30 H7         -0.1760    3.5460    0.7940 hc        1 1GU      0.067700
     31 H8          0.6390    2.6650   -1.4250 h1        1 1GU      0.079200
     32 H9          2.0450    1.8400   -0.5870 h1        1 1GU      0.079200
     33 H10        -4.0660   -2.5670    0.4600 ha        1 1GU      0.152000
     34 H11        -2.1170   -4.0600    0.6810 ha        1 1GU      0.142000
     35 H12         0.2240   -3.1840    0.4720 ha        1 1GU      0.145000
     36 H13         2.5140    0.7470    1.6300 ha        1 1GU      0.143000
     37 H14         4.9380    0.1380    1.7760 ha        1 1GU      0.158000
     38 H15         6.3630   -2.3090   -0.3170 ho        1 1GU      0.427000
     39 H16         4.3830   -2.7530   -1.4230 ha        1 1GU      0.158000
     40 H17         0.9740   -2.0140   -1.7170 ho        1 1GU      0.440000
@<TRIPOS>BOND
     1    1    2 2   
     2    1   26 1   
     3    1   27 1   
     4    2    3 1   
     5    2   28 1   
     6    3    4 1   
     7    3   29 1   
     8    3   30 1   
     9    4    5 1   
    10    4   31 1   
    11    4   32 1   
    12    5    6 1   
    13    5   17 1   
    14    6    7 2   
    15    7    8 ar  
    16    7   16 ar  
    17    8    9 1   
    18    8   13 ar  
    19    9   10 1   
    20    9   11 1   
    21    9   12 1   
    22   13   14 ar  
    23   13   33 1   
    24   14   15 ar  
    25   14   34 1   
    26   15   16 ar  
    27   15   35 1   
    28   16   17 2   
    29   17   18 1   
    30   18   19 ar  
    31   18   24 ar  
    32   19   20 ar  
    33   19   36 1   
    34   20   21 ar  
    35   20   37 1   
    36   21   22 1   
    37   21   23 ar  
    38   22   38 1   
    39   23   24 ar  
    40   23   39 1   
    41   24   25 1   
    42   25   40 1   
@<TRIPOS>SUBSTRUCTURE
     1 1GU         1 TEMP              0 ****  ****    0 ROOT
