@<TRIPOS>MOLECULE
1GV
   37    39     1     0     0
SMALL
bcc


@<TRIPOS>ATOM
      1 C01         0.0900   -0.1900    0.0270 ca        1 1GV      0.128100
      2 C02         1.3400   -0.8280    0.0910 ca        1 1GV     -0.158000
      3 C03         2.0360   -0.8190    1.2910 ca        1 1GV     -0.081000
      4 C04         1.5200   -0.1900    2.4410 ca        1 1GV     -0.033000
      5 C05         0.2710    0.4580    2.3560 ca        1 1GV     -0.035300
      6 C06        -0.4400    0.4510    1.1510 ca        1 1GV     -0.212000
      7 C07         2.2880   -0.2330    3.6640 cc        1 1GV     -0.063100
      8 S01         2.0620    0.8160    4.9620 ss        1 1GV      0.035200
      9 C08         3.2990    0.1530    5.8940 cc        1 1GV     -0.063100
     10 C09         3.9070   -0.8910    5.2110 cd        1 1GV     -0.153000
     11 C10         3.3250   -1.1140    3.9340 cd        1 1GV     -0.153000
     12 C11         3.6470    0.6020    7.2220 ca        1 1GV     -0.033000
     13 C12         4.3970   -0.2510    8.0550 ca        1 1GV     -0.081000
     14 C13         4.7770    0.1280    9.3340 ca        1 1GV     -0.158000
     15 C14         4.3990    1.3950    9.8060 ca        1 1GV      0.128100
     16 C15         3.6440    2.2570    9.0040 ca        1 1GV     -0.212000
     17 C16         3.2620    1.8650    7.7170 ca        1 1GV     -0.035300
     18 O01         4.8030    1.7250   11.0790 oh        1 1GV     -0.496100
     19 O02        -0.5610   -0.2310   -1.1840 oh        1 1GV     -0.496100
     20 C17         2.4470    2.8000    6.9060 c3        1 1GV     -0.068800
     21 C18        -0.3160    1.1640    3.5190 c3        1 1GV     -0.068800
     22 H1          1.7470   -1.3210   -0.8030 ha        1 1GV      0.152000
     23 H2          3.0200   -1.3110    1.3390 ha        1 1GV      0.139000
     24 H3         -1.4170    0.9520    1.0880 ha        1 1GV      0.134000
     25 H4          4.7430   -1.4850    5.5870 ha        1 1GV      0.152000
     26 H5          3.6700   -1.9030    3.2610 ha        1 1GV      0.152000
     27 H6          4.6860   -1.2480    7.6880 ha        1 1GV      0.139000
     28 H7          5.3630   -0.5420    9.9780 ha        1 1GV      0.152000
     29 H8          3.3490    3.2450    9.3870 ha        1 1GV      0.134000
     30 H9          4.4800    2.6160   11.2740 ho        1 1GV      0.419000
     31 H10        -1.4020    0.2400   -1.0860 ho        1 1GV      0.419000
     32 H11         1.4160    2.3830    6.7550 hc        1 1GV      0.053367
     33 H12         2.9170    2.9680    5.9020 hc        1 1GV      0.053367
     34 H13         2.3430    3.7930    7.4090 hc        1 1GV      0.053367
     35 H14        -0.3550    0.4900    4.4140 hc        1 1GV      0.053367
     36 H15        -1.3570    1.5110    3.3030 hc        1 1GV      0.053367
     37 H16         0.3000    2.0670    3.7750 hc        1 1GV      0.053367
@<TRIPOS>BOND
     1    1    2 ar  
     2    1    6 ar  
     3    1   19 1   
     4    2    3 ar  
     5    2   22 1   
     6    3    4 ar  
     7    3   23 1   
     8    4    5 ar  
     9    4    7 1   
    10    5    6 ar  
    11    5   21 1   
    12    6   24 1   
    13    7    8 1   
    14    7   11 2   
    15    8    9 1   
    16    9   10 2   
    17    9   12 1   
    18   10   11 1   
    19   10   25 1   
    20   11   26 1   
    21   12   13 ar  
    22   12   17 ar  
    23   13   14 ar  
    24   13   27 1   
    25   14   15 ar  
    26   14   28 1   
    27   15   16 ar  
    28   15   18 1   
    29   16   17 ar  
    30   16   29 1   
    31   17   20 1   
    32   18   30 1   
    33   19   31 1   
    34   20   32 1   
    35   20   33 1   
    36   20   34 1   
    37   21   35 1   
    38   21   36 1   
    39   21   37 1   
@<TRIPOS>SUBSTRUCTURE
     1 1GV         1 TEMP              0 ****  ****    0 ROOT
