@<TRIPOS>MOLECULE
1GV
   37    30     1     0     0
SMALL
bcc


@<TRIPOS>ATOM
      1 C01        -3.1420   -1.1970   -4.2600 c1        1 1GV      0.089000
      2 C02        -3.7740   -0.9210   -3.0580 c2        1 1GV     -0.221000
      3 C03        -3.0300   -0.8050   -1.8950 c1        1 1GV     -0.072000
      4 C04        -1.6540   -0.9640   -1.9330 c1        1 1GV     -0.056000
      5 C05        -1.0210   -1.2400   -3.1350 c1        1 1GV     -0.010000
      6 C06        -1.7650   -1.3570   -4.2990 c1        1 1GV     -0.164000
      7 C07        -0.8510   -0.9050   -0.6510 c2        1 1GV     -0.329000
      8 S01        -0.3190    0.3830    0.0330 ss        1 1GV      0.564000
      9 C08         0.3480   -0.0390    1.3700 c1        1 1GV     -0.329000
     10 C09         0.2320   -1.4800    1.4920 c1        1 1GV     -0.151000
     11 C10        -0.5310   -2.0300    0.2070 c1        1 1GV     -0.150000
     12 C11         0.9300    0.8970    2.4070 c1        1 1GV     -0.056000
     13 C12         0.1370    1.3590    3.4460 c2        1 1GV     -0.078000
     14 C13         0.6630    2.2360    4.3820 c1        1 1GV     -0.164000
     15 C14         1.9810    2.6520    4.2780 c1        1 1GV      0.089000
     16 C15         2.7730    2.1910    3.2390 c1        1 1GV     -0.220000
     17 C16         2.2480    1.3140    2.3030 c1        1 1GV     -0.005000
     18 O01         2.5020    3.5720    5.2060 oh        1 1GV     -0.251000
     19 O02        -3.9010   -1.3580   -5.4340 o         1 1GV     -0.251000
     20 C17         3.1350    0.7500    1.2160 c2        1 1GV     -0.185000
     21 C18         0.4830   -1.3920   -3.1800 c3        1 1GV     -0.185000
     22 H1         -4.7440   -0.8090   -3.0320 ha        1 1GV      0.135000
     23 H2         -3.4760   -0.6100   -1.0480 ha        1 1GV      0.139000
     24 H3         -1.3200   -1.5510   -5.1450 ha        1 1GV      0.152000
     25 H4          0.5640   -2.0190    2.2340 DU        1 1GV      0.156000
     26 H5         -0.7460   -2.9650    0.0270 DU        1 1GV      0.156000
     27 H6         -0.7910    1.0650    3.5190 ha        1 1GV      0.140000
     28 H7          0.1040    2.5600    5.1140 ha        1 1GV      0.152000
     29 H8          3.7020    2.4840    3.1660 ha        1 1GV      0.135000
     30 H9          2.8890    3.1320    5.8750 ho        1 1GV      0.218000
     31 H10        -4.0300   -0.5650   -5.8150 ho        1 1GV      0.219000
     32 H11         4.0050    1.2000    1.2380 ha        1 1GV      0.089333
     33 H12         3.2600   -0.2110    1.3610 ha        1 1GV      0.089333
     34 H13         2.7140    0.8960    0.3430 ha        1 1GV      0.089333
     35 H14         0.9040   -0.5770   -2.8350 hc        1 1GV      0.089333
     36 H15         0.7690   -1.5400   -4.1060 hc        1 1GV      0.089333
     37 H16         0.7510   -2.1570   -2.6290 hc        1 1GV      0.089333
@<TRIPOS>BOND
     1    1    2 1   
     2    1    6 1   
     3    2    3 1   
     4    2   22 1   
     5    3   23 1   
     6    4    5 1   
     7    4    7 1   
     8    5   21 1   
     9    6   24 1   
    10    7    8 1   
    11    7   11 1   
    12    8    9 1   
    13    9   10 1   
    14   10   11 1   
    15   12   13 1   
    16   12   17 1   
    17   13   14 1   
    18   13   27 1   
    19   14   28 1   
    20   15   16 1   
    21   15   18 1   
    22   16   29 1   
    23   18   30 1   
    24   19   31 1   
    25   20   32 1   
    26   20   33 1   
    27   20   34 1   
    28   21   35 1   
    29   21   36 1   
    30   21   37 1   
@<TRIPOS>SUBSTRUCTURE
     1 1GV         1 TEMP              0 ****  ****    0 ROOT
