@<TRIPOS>MOLECULE
1GV
   37    39     1     0     0
SMALL
bcc


@<TRIPOS>ATOM
      1 C01         0.0630   -0.2140    0.0430 ca        1 1GV      0.128100
      2 C02         1.3080   -0.8620    0.1070 ca        1 1GV     -0.158000
      3 C03         2.0090   -0.8480    1.3040 ca        1 1GV     -0.081000
      4 C04         1.5030   -0.2050    2.4510 ca        1 1GV     -0.033000
      5 C05         0.2590    0.4530    2.3660 ca        1 1GV     -0.035300
      6 C06        -0.4570    0.4410    1.1640 ca        1 1GV     -0.212000
      7 C07         2.2760   -0.2430    3.6700 cc        1 1GV     -0.063100
      8 S01         2.0640    0.8180    4.9610 ss        1 1GV      0.035200
      9 C08         3.3000    0.1530    5.8930 cc        1 1GV     -0.063100
     10 C09         3.8980   -0.9010    5.2160 cd        1 1GV     -0.153000
     11 C10         3.3090   -1.1300    3.9430 cd        1 1GV     -0.153000
     12 C11         3.6570    0.6110    7.2160 ca        1 1GV     -0.033000
     13 C12         4.4060   -0.2400    8.0520 ca        1 1GV     -0.081000
     14 C13         4.7950    0.1460    9.3250 ca        1 1GV     -0.158000
     15 C14         4.4270    1.4190    9.7900 ca        1 1GV      0.128100
     16 C15         3.6740    2.2800    8.9850 ca        1 1GV     -0.212000
     17 C16         3.2830    1.8800    7.7020 ca        1 1GV     -0.035300
     18 O01         4.8400    1.7570   11.0580 oh        1 1GV     -0.496100
     19 O02        -0.5950   -0.2600   -1.1640 oh        1 1GV     -0.496100
     20 C17         2.4700    2.8130    6.8880 c3        1 1GV     -0.068800
     21 C18        -0.3170    1.1740    3.5250 c3        1 1GV     -0.068800
     22 H1          1.7060   -1.3660   -0.7840 ha        1 1GV      0.152000
     23 H2          2.9890   -1.3480    1.3510 ha        1 1GV      0.139000
     24 H3         -1.4300    0.9490    1.1010 ha        1 1GV      0.134000
     25 H4          4.7320   -1.4970    5.5930 ha        1 1GV      0.152000
     26 H5          3.6450   -1.9270    3.2760 ha        1 1GV      0.152000
     27 H6          4.6870   -1.2420    7.6910 ha        1 1GV      0.139000
     28 H7          5.3800   -0.5220    9.9730 ha        1 1GV      0.152000
     29 H8          3.3860    3.2720    9.3610 ha        1 1GV      0.134000
     30 H9          4.5230    2.6520   11.2470 ho        1 1GV      0.419000
     31 H10        -1.4310    0.2180   -1.0670 ho        1 1GV      0.419000
     32 H11         1.4360    2.4010    6.7440 hc        1 1GV      0.053367
     33 H12         2.9370    2.9710    5.8800 hc        1 1GV      0.053367
     34 H13         2.3740    3.8110    7.3840 hc        1 1GV      0.053367
     35 H14        -0.3570    0.5080    4.4260 hc        1 1GV      0.053367
     36 H15        -1.3550    1.5280    3.3100 hc        1 1GV      0.053367
     37 H16         0.3080    2.0740    3.7700 hc        1 1GV      0.053367
@<TRIPOS>BOND
     1    1    2 ar  
     2    1    6 ar  
     3    1   19 1   
     4    2    3 ar  
     5    2   22 1   
     6    3    4 ar  
     7    3   23 1   
     8    4    5 ar  
     9    4    7 1   
    10    5    6 ar  
    11    5   21 1   
    12    6   24 1   
    13    7    8 1   
    14    7   11 2   
    15    8    9 1   
    16    9   10 2   
    17    9   12 1   
    18   10   11 1   
    19   10   25 1   
    20   11   26 1   
    21   12   13 ar  
    22   12   17 ar  
    23   13   14 ar  
    24   13   27 1   
    25   14   15 ar  
    26   14   28 1   
    27   15   16 ar  
    28   15   18 1   
    29   16   17 ar  
    30   16   29 1   
    31   17   20 1   
    32   18   30 1   
    33   19   31 1   
    34   20   32 1   
    35   20   33 1   
    36   20   34 1   
    37   21   35 1   
    38   21   36 1   
    39   21   37 1   
@<TRIPOS>SUBSTRUCTURE
     1 1GV         1 TEMP              0 ****  ****    0 ROOT
