@<TRIPOS>MOLECULE
1GV
   37    39     1     0     0
SMALL
bcc


@<TRIPOS>ATOM
      1 C01        -5.3080    0.2940   -0.5200 ca        1 1GV      0.131100
      2 C02        -4.6850   -0.6700   -1.3290 ca        1 1GV     -0.161500
      3 C03        -3.3460   -0.9630   -1.1100 ca        1 1GV     -0.077500
      4 C04        -2.6140   -0.3130   -0.1030 ca        1 1GV     -0.045000
      5 C05        -3.2480    0.6470    0.7060 ca        1 1GV     -0.025800
      6 C06        -4.5970    0.9490    0.4920 ca        1 1GV     -0.216000
      7 C07        -1.2200   -0.6630    0.0790 cc        1 1GV     -0.060100
      8 S01         0.0480    0.3480   -0.3600 ss        1 1GV      0.024200
      9 C08         1.2500   -0.7380    0.1170 cc        1 1GV     -0.060100
     10 C09         0.6780   -1.9040    0.6040 cd        1 1GV     -0.150500
     11 C10        -0.7460   -1.8610    0.5820 cd        1 1GV     -0.150500
     12 C11         2.6660   -0.4650    0.0340 ca        1 1GV     -0.045000
     13 C12         3.5580   -1.2630    0.7770 ca        1 1GV     -0.077500
     14 C13         4.9290   -1.0640    0.7290 ca        1 1GV     -0.161500
     15 C14         5.4360   -0.0360   -0.0830 ca        1 1GV      0.131100
     16 C15         4.5730    0.7780   -0.8220 ca        1 1GV     -0.216000
     17 C16         3.1900    0.5720   -0.7640 ca        1 1GV     -0.025800
     18 O01         6.8030    0.1190   -0.1000 oh        1 1GV     -0.496600
     19 O02        -6.6350    0.5510   -0.7800 oh        1 1GV     -0.496600
     20 C17         2.3080    1.4690   -1.5480 c3        1 1GV     -0.065800
     21 C18        -2.5210    1.3350    1.8000 c3        1 1GV     -0.065800
     22 H1         -5.2610   -1.1760   -2.1170 ha        1 1GV      0.152000
     23 H2         -2.8460   -1.7200   -1.7350 ha        1 1GV      0.139500
     24 H3         -5.0970    1.7000    1.1210 ha        1 1GV      0.134000
     25 H4          1.2320   -2.7750    0.9610 ha        1 1GV      0.154500
     26 H5         -1.3740   -2.6860    0.9250 ha        1 1GV      0.154500
     27 H6          3.1600   -2.0640    1.4200 ha        1 1GV      0.139500
     28 H7          5.6200   -1.6900    1.3100 ha        1 1GV      0.152000
     29 H8          4.9800    1.5840   -1.4500 ha        1 1GV      0.134000
     30 H9          7.0130    0.8540   -0.6950 ho        1 1GV      0.419000
     31 H10        -6.9370    1.2230   -0.1520 ho        1 1GV      0.419000
     32 H11         1.6910    2.1040   -0.8590 hc        1 1GV      0.052533
     33 H12         2.9020    2.1540   -2.2030 hc        1 1GV      0.052533
     34 H13         1.6200    0.8750   -2.2050 hc        1 1GV      0.052533
     35 H14        -3.0370    2.2800    2.0990 hc        1 1GV      0.052533
     36 H15        -2.4640    0.6650    2.6950 hc        1 1GV      0.052533
     37 H16        -1.4750    1.5830    1.4860 hc        1 1GV      0.052533
@<TRIPOS>BOND
     1    1    2 ar  
     2    1    6 ar  
     3    1   19 1   
     4    2    3 ar  
     5    2   22 1   
     6    3    4 ar  
     7    3   23 1   
     8    4    5 ar  
     9    4    7 1   
    10    5    6 ar  
    11    5   21 1   
    12    6   24 1   
    13    7    8 1   
    14    7   11 2   
    15    8    9 1   
    16    9   10 2   
    17    9   12 1   
    18   10   11 1   
    19   10   25 1   
    20   11   26 1   
    21   12   13 ar  
    22   12   17 ar  
    23   13   14 ar  
    24   13   27 1   
    25   14   15 ar  
    26   14   28 1   
    27   15   16 ar  
    28   15   18 1   
    29   16   17 ar  
    30   16   29 1   
    31   17   20 1   
    32   18   30 1   
    33   19   31 1   
    34   20   32 1   
    35   20   33 1   
    36   20   34 1   
    37   21   35 1   
    38   21   36 1   
    39   21   37 1   
@<TRIPOS>SUBSTRUCTURE
     1 1GV         1 TEMP              0 ****  ****    0 ROOT
