@<TRIPOS>MOLECULE
1H1
   22    21     1     0     0
SMALL
bcc


@<TRIPOS>ATOM
      1 O2         -0.1680   -0.5730    0.1410 o         1 1H1     -0.557000
      2 C3          1.0260   -0.2950   -0.0170 c         1 1H1      0.635100
      3 O1          1.7750    0.0210    1.0760 os        1 1H1     -0.436900
      4 C2          1.1030   -0.0100    2.3510 c3        1 1H1      0.138400
      5 C1          2.1400    0.3640    3.3810 c3        1 1H1     -0.101100
      6 C4          1.8050   -0.2630   -1.2930 c3        1 1H1     -0.173400
      7 C5          0.8740   -0.1280   -2.5000 c3        1 1H1      0.160100
      8 O3          0.0730   -1.2890   -2.6460 oh        1 1H1     -0.602800
      9 C6          1.7020   -0.0130   -3.7860 c3        1 1H1     -0.023300
     10 C7          1.0220    0.7710   -4.7910 c1        1 1H1      0.211700
     11 N           0.4830    1.4000   -5.6070 n1        1 1H1     -0.364800
     12 H1          0.6970   -1.0420    2.5150 h1        1 1H1      0.054700
     13 H2          0.2530    0.7210    2.3230 h1        1 1H1      0.054700
     14 H3          1.6650    0.3540    4.3920 hc        1 1H1      0.050033
     15 H4          2.9870   -0.3630    3.3680 hc        1 1H1      0.050033
     16 H5          2.5470    1.3830    3.1780 hc        1 1H1      0.050033
     17 H6          2.5310    0.5900   -1.2630 hc        1 1H1      0.092700
     18 H7          2.3870   -1.2210   -1.3660 hc        1 1H1      0.092700
     19 H8          0.2190    0.7770   -2.3630 h1        1 1H1      0.058700
     20 H9         -0.5480   -1.3030   -1.9030 ho        1 1H1      0.434000
     21 H10         2.6930    0.4670   -3.5590 hc        1 1H1      0.087700
     22 H11         1.8930   -1.0470   -4.1910 hc        1 1H1      0.087700
@<TRIPOS>BOND
     1    1    2 2   
     2    2    3 1   
     3    2    6 1   
     4    3    4 1   
     5    4    5 1   
     6    4   12 1   
     7    4   13 1   
     8    5   14 1   
     9    5   15 1   
    10    5   16 1   
    11    6    7 1   
    12    6   17 1   
    13    6   18 1   
    14    7    8 1   
    15    7    9 1   
    16    7   19 1   
    17    8   20 1   
    18    9   10 1   
    19    9   21 1   
    20    9   22 1   
    21   10   11 3   
@<TRIPOS>SUBSTRUCTURE
     1 1H1         1 TEMP              0 ****  ****    0 ROOT
