@<TRIPOS>MOLECULE
1H1
   22    21     1     0     0
SMALL
bcc


@<TRIPOS>ATOM
      1 O2          0.0600    1.2080    0.1320 o         1 1H1     -0.536000
      2 C3          1.1150    0.5960   -0.0440 c         1 1H1      0.640100
      3 O1          1.7390    0.0340    1.0310 os        1 1H1     -0.440900
      4 C2          1.0820    0.1810    2.3050 c3        1 1H1      0.138400
      5 C1          1.9480   -0.5370    3.3110 c3        1 1H1     -0.101100
      6 C4          1.8680    0.3930   -1.3230 c3        1 1H1     -0.167400
      7 C5          0.9470   -0.1480   -2.4180 c3        1 1H1      0.147100
      8 O3          0.6690   -1.5200   -2.2230 oh        1 1H1     -0.574800
      9 C6          1.5890    0.1130   -3.7840 c3        1 1H1     -0.055300
     10 C7          0.7190   -0.2640   -4.8730 c1        1 1H1      0.210700
     11 N           0.0250   -0.5640   -5.7570 n1        1 1H1     -0.353800
     12 H1          0.9890    1.2750    2.5340 h1        1 1H1      0.054200
     13 H2          0.0580   -0.2680    2.2340 h1        1 1H1      0.054200
     14 H3          2.9690   -0.0880    3.3430 hc        1 1H1      0.049033
     15 H4          2.0460   -1.6160    3.0450 hc        1 1H1      0.049033
     16 H5          1.4780   -0.4500    4.3200 hc        1 1H1      0.049033
     17 H6          2.2820    1.3910   -1.6260 hc        1 1H1      0.083200
     18 H7          2.7250   -0.3100   -1.1530 hc        1 1H1      0.083200
     19 H8         -0.0660    0.3470   -2.3550 h1        1 1H1      0.114700
     20 H9          1.5020   -2.0040   -2.2830 ho        1 1H1      0.401000
     21 H10         2.5520   -0.4650   -3.8670 hc        1 1H1      0.078200
     22 H11         1.8320    1.2080   -3.8770 hc        1 1H1      0.078200
@<TRIPOS>BOND
     1    1    2 2   
     2    2    3 1   
     3    2    6 1   
     4    3    4 1   
     5    4    5 1   
     6    4   12 1   
     7    4   13 1   
     8    5   14 1   
     9    5   15 1   
    10    5   16 1   
    11    6    7 1   
    12    6   17 1   
    13    6   18 1   
    14    7    8 1   
    15    7    9 1   
    16    7   19 1   
    17    8   20 1   
    18    9   10 1   
    19    9   21 1   
    20    9   22 1   
    21   10   11 3   
@<TRIPOS>SUBSTRUCTURE
     1 1H1         1 TEMP              0 ****  ****    0 ROOT
