@<TRIPOS>MOLECULE
1H1
   22    21     1     0     0
SMALL
bcc


@<TRIPOS>ATOM
      1 O2         -0.0180    0.9170    0.1300 o         1 1H1     -0.544000
      2 C3          1.0680    0.3390    0.0560 c         1 1H1      0.637100
      3 O1          1.7070   -0.0050    1.2130 os        1 1H1     -0.439900
      4 C2          1.0340    0.3280    2.4420 c3        1 1H1      0.139400
      5 C1          1.9240   -0.1660    3.5560 c3        1 1H1     -0.101100
      6 C4          1.8510   -0.0410   -1.1630 c3        1 1H1     -0.132400
      7 C5          0.9440   -0.1890   -2.3840 c3        1 1H1      0.148100
      8 O3          0.6080   -1.5670   -2.4550 oh        1 1H1     -0.594800
      9 C6          1.6910    0.2480   -3.6500 c3        1 1H1     -0.061300
     10 C7          0.8330    0.2240   -4.8110 c1        1 1H1      0.201700
     11 N           0.1510    0.2100   -5.7540 n1        1 1H1     -0.360800
     12 H1          0.8870    1.4390    2.4800 h1        1 1H1      0.052700
     13 H2          0.0320   -0.1750    2.4490 h1        1 1H1      0.052700
     14 H3          2.9220    0.3310    3.5120 hc        1 1H1      0.049033
     15 H4          2.0770   -1.2690    3.4770 hc        1 1H1      0.049033
     16 H5          1.4420    0.0680    4.5360 hc        1 1H1      0.049033
     17 H6          2.6170    0.7600   -1.3370 hc        1 1H1      0.095200
     18 H7          2.3900   -1.0080   -0.9720 hc        1 1H1      0.095200
     19 H8          0.0110    0.4320   -2.2560 h1        1 1H1      0.077700
     20 H9         -0.0810   -1.6550   -3.1260 ho        1 1H1      0.414000
     21 H10         2.5640   -0.4410   -3.8220 hc        1 1H1      0.086700
     22 H11         2.0860    1.2910   -3.5100 hc        1 1H1      0.086700
@<TRIPOS>BOND
     1    1    2 2   
     2    2    3 1   
     3    2    6 1   
     4    3    4 1   
     5    4    5 1   
     6    4   12 1   
     7    4   13 1   
     8    5   14 1   
     9    5   15 1   
    10    5   16 1   
    11    6    7 1   
    12    6   17 1   
    13    6   18 1   
    14    7    8 1   
    15    7    9 1   
    16    7   19 1   
    17    8   20 1   
    18    9   10 1   
    19    9   21 1   
    20    9   22 1   
    21   10   11 3   
@<TRIPOS>SUBSTRUCTURE
     1 1H1         1 TEMP              0 ****  ****    0 ROOT
