@<TRIPOS>MOLECULE
1H1
   22    20     1     0     0
SMALL
bcc


@<TRIPOS>ATOM
      1 O2         -1.3660   -1.0130    0.6300 o         1 1H1     -0.373000
      2 C3         -0.2640   -0.4820    0.5600 c1        1 1H1      0.307000
      3 O1          0.3200    0.0980    1.7150 o         1 1H1     -0.271000
      4 C2         -0.1560   -0.4470    2.9520 c3        1 1H1     -0.012000
      5 C1          0.6140    0.1640    4.0990 c3        1 1H1     -0.220000
      6 C4          0.5250   -0.4940   -0.7790 c3        1 1H1     -0.204000
      7 C5         -0.3140    0.1850   -1.8750 c3        1 1H1      0.050000
      8 O3         -1.4100   -0.6200   -2.1840 oh        1 1H1     -0.333000
      9 C6          0.5340    0.3860   -3.1170 c3        1 1H1     -0.079000
     10 C7         -0.2710    1.2130   -4.1520 c1        1 1H1     -0.148000
     11 N          -0.8820    1.8390   -4.9310 n1        1 1H1     -0.039000
     12 H1         -0.0280   -1.4340    2.9530 h1        1 1H1      0.093500
     13 H2         -1.0990   -0.2430    3.0540 h1        1 1H1      0.093500
     14 H3          0.4620    1.1330    4.1140 hc        1 1H1      0.089333
     15 H4          1.5810   -0.0160    3.9810 hc        1 1H1      0.089333
     16 H5          0.3020   -0.2370    4.9630 hc        1 1H1      0.089333
     17 H6          1.3900    0.0040   -0.6610 hc        1 1H1      0.136000
     18 H7          0.7080   -1.3950   -1.0330 hc        1 1H1      0.136000
     19 H8         -0.6360    1.0730   -1.5470 h1        1 1H1      0.096000
     20 H9         -2.1160   -0.1040   -2.3650 ho        1 1H1      0.234000
     21 H10         0.7620   -0.4730   -3.4950 hc        1 1H1      0.132500
     22 H11         1.3460    0.8620   -2.8820 hc        1 1H1      0.132500
@<TRIPOS>BOND
     1    1    2 1   
     2    2    6 1   
     3    3    4 1   
     4    4    5 1   
     5    4   12 1   
     6    4   13 1   
     7    5   14 1   
     8    5   15 1   
     9    5   16 1   
    10    6    7 1   
    11    6   17 1   
    12    6   18 1   
    13    7    8 1   
    14    7    9 1   
    15    7   19 1   
    16    8   20 1   
    17    9   10 1   
    18    9   21 1   
    19    9   22 1   
    20   10   11 1   
@<TRIPOS>SUBSTRUCTURE
     1 1H1         1 TEMP              0 ****  ****    0 ROOT
