@<TRIPOS>MOLECULE
1H1
   22    21     1     0     0
SMALL
bcc


@<TRIPOS>ATOM
      1 O2          1.1650   -0.7720    1.5490 o         1 1H1     -0.536000
      2 C3          1.1270    0.0910    0.6710 c         1 1H1      0.640100
      3 O1          2.2740    0.4020    0.0010 os        1 1H1     -0.440900
      4 C2          3.4530   -0.3410    0.3650 c3        1 1H1      0.138400
      5 C1          4.5630    0.1690   -0.5210 c3        1 1H1     -0.101100
      6 C4         -0.0450    0.9110    0.2260 c3        1 1H1     -0.167400
      7 C5         -1.2490    0.0200   -0.0840 c3        1 1H1      0.147100
      8 O3         -1.0910   -0.6420   -1.3230 oh        1 1H1     -0.574800
      9 C6         -2.5220    0.8730   -0.0530 c3        1 1H1     -0.055300
     10 C7         -3.7130    0.0730   -0.2190 c1        1 1H1      0.210700
     11 N          -4.6780   -0.5620   -0.3510 n1        1 1H1     -0.353800
     12 H1          3.6660   -0.1620    1.4520 h1        1 1H1      0.054200
     13 H2          3.2530   -1.4320    0.2040 h1        1 1H1      0.054200
     14 H3          4.3140    0.0040   -1.5960 hc        1 1H1      0.049033
     15 H4          4.7240    1.2620   -0.3610 hc        1 1H1      0.049033
     16 H5          5.5040   -0.3800   -0.2750 hc        1 1H1      0.049033
     17 H6         -0.2930    1.6160    1.0640 hc        1 1H1      0.083200
     18 H7          0.2340    1.5170   -0.6760 hc        1 1H1      0.083200
     19 H8         -1.3160   -0.8200    0.6680 h1        1 1H1      0.114700
     20 H9         -1.0450    0.0290   -2.0150 ho        1 1H1      0.401000
     21 H10        -2.5820    1.4120    0.9320 hc        1 1H1      0.078200
     22 H11        -2.4810    1.6450   -0.8710 hc        1 1H1      0.078200
@<TRIPOS>BOND
     1    1    2 2   
     2    2    3 1   
     3    2    6 1   
     4    3    4 1   
     5    4    5 1   
     6    4   12 1   
     7    4   13 1   
     8    5   14 1   
     9    5   15 1   
    10    5   16 1   
    11    6    7 1   
    12    6   17 1   
    13    6   18 1   
    14    7    8 1   
    15    7    9 1   
    16    7   19 1   
    17    8   20 1   
    18    9   10 1   
    19    9   21 1   
    20    9   22 1   
    21   10   11 3   
@<TRIPOS>SUBSTRUCTURE
     1 1H1         1 TEMP              0 ****  ****    0 ROOT
