@<TRIPOS>MOLECULE
1H2
   39    41     1     0     0
SMALL
bcc


@<TRIPOS>ATOM
      1 C4         -0.0360   -0.2550   -0.4100 ca        1 1H2     -0.147000
      2 C14         3.7200    1.5200    1.4620 ca        1 1H2     -0.129000
      3 C5          0.9550   -1.1970   -0.6890 ca        1 1H2     -0.080300
      4 C6          0.6930   -2.5580   -0.5140 ca        1 1H2     -0.202000
      5 C11         2.9150    1.6820   -1.2040 ca        1 1H2     -0.117500
      6 C7         -0.5660   -2.9570   -0.0470 ca        1 1H2      0.125100
      7 C8         -1.5680   -2.0180    0.2400 ca        1 1H2     -0.146000
      8 C9          2.2850   -0.7490   -1.2350 c3        1 1H2      0.230700
      9 C10         2.8090    0.4670   -0.5200 ca        1 1H2     -0.116300
     10 C12         3.4180    2.8100   -0.5570 ca        1 1H2     -0.129000
     11 C13         3.8230    2.7310    0.7750 ca        1 1H2     -0.124000
     12 C3         -1.3010   -0.6570    0.0510 ca        1 1H2      0.030000
     13 O1          3.2400   -1.8000   -1.2350 oh        1 1H2     -0.585800
     14 C15         3.2150    0.3920    0.8170 ca        1 1H2     -0.117500
     15 O          -0.8940   -4.2780    0.1570 oh        1 1H2     -0.497100
     16 C2         -2.3110    0.3330    0.3330 cc        1 1H2     -0.279600
     17 C16        -2.1490    1.5950    0.8860 cd        1 1H2      0.284000
     18 C17        -1.0230    2.3860    1.3760 c3        1 1H2     -0.143400
     19 O2         -3.4270    2.1940    0.9680 os        1 1H2     -0.119100
     20 N          -4.3440    1.3770    0.4900 nd        1 1H2     -0.366300
     21 C1         -3.7590    0.2310    0.0870 cc        1 1H2      0.340600
     22 C          -4.4550   -0.9250   -0.5090 c3        1 1H2     -0.137400
     23 H1          0.1730    0.8170   -0.5530 ha        1 1H2      0.142000
     24 H3          1.4650   -3.3050   -0.7540 ha        1 1H2      0.149000
     25 H4          2.6050    1.7480   -2.2580 ha        1 1H2      0.133500
     26 H5         -2.5430   -2.3600    0.6160 ha        1 1H2      0.156000
     27 H6          2.1530   -0.5230   -2.3380 h1        1 1H2      0.092700
     28 H7          3.5000    3.7620   -1.1010 ha        1 1H2      0.135500
     29 H8          4.2240    3.6190    1.2840 ha        1 1H2      0.135000
     30 H9          3.4750   -1.9810   -0.3160 ho        1 1H2      0.402000
     31 H10         3.1290   -0.5580    1.3650 ha        1 1H2      0.133500
     32 H11        -0.1330   -4.8180   -0.1020 ho        1 1H2      0.421000
     33 H12        -0.6320    3.0420    0.5550 hc        1 1H2      0.068367
     34 H13        -1.3400    3.0390    2.2280 hc        1 1H2      0.068367
     35 H14        -0.2010    1.7070    1.7150 hc        1 1H2      0.068367
     36 H15        -4.7700   -1.6340    0.2980 hc        1 1H2      0.061367
     37 H16        -5.3660   -0.6080   -1.0750 hc        1 1H2      0.061367
     38 H17        -3.7640   -1.4610   -1.2070 hc        1 1H2      0.061367
     39 H2          4.0400    1.4540    2.5120 ha        1 1H2      0.135500
@<TRIPOS>BOND
     1    1    3 ar  
     2    1   12 ar  
     3    1   23 1   
     4    2   11 ar  
     5    2   14 ar  
     6    2   39 1   
     7    3    4 ar  
     8    3    8 1   
     9    4    6 ar  
    10    4   24 1   
    11    5    9 ar  
    12    5   10 ar  
    13    5   25 1   
    14    6    7 ar  
    15    6   15 1   
    16    7   12 ar  
    17    7   26 1   
    18    8    9 1   
    19    8   13 1   
    20    8   27 1   
    21    9   14 ar  
    22   10   11 ar  
    23   10   28 1   
    24   11   29 1   
    25   12   16 1   
    26   13   30 1   
    27   14   31 1   
    28   15   32 1   
    29   16   17 2   
    30   16   21 1   
    31   17   18 1   
    32   17   19 1   
    33   18   33 1   
    34   18   34 1   
    35   18   35 1   
    36   19   20 1   
    37   20   21 2   
    38   21   22 1   
    39   22   36 1   
    40   22   37 1   
    41   22   38 1   
@<TRIPOS>SUBSTRUCTURE
     1 1H2         1 TEMP              0 ****  ****    0 ROOT
