@<TRIPOS>MOLECULE
1H2
   39    41     1     0     0
SMALL
bcc


@<TRIPOS>ATOM
      1 C4          0.1210    0.0650   -0.0420 ca        1 1H2     -0.148000
      2 C14         4.1540    3.4040   -1.4730 ca        1 1H2     -0.132500
      3 C5          1.5130   -0.0680   -0.0370 ca        1 1H2     -0.088300
      4 C6          2.1890   -0.3560    1.1480 ca        1 1H2     -0.141000
      5 C11         1.6630    2.3700   -2.1860 ca        1 1H2     -0.109500
      6 C7          1.4490   -0.5110    2.3310 ca        1 1H2      0.127100
      7 C8          0.0550   -0.3810    2.3380 ca        1 1H2     -0.201000
      8 C9          2.2750    0.0980   -1.3270 c3        1 1H2      0.235700
      9 C10         2.6140    1.5410   -1.5790 ca        1 1H2     -0.082300
     10 C12         1.9570    3.7100   -2.4290 ca        1 1H2     -0.132500
     11 C13         3.2030    4.2290   -2.0730 ca        1 1H2     -0.124000
     12 C3         -0.6150   -0.0890    1.1420 ca        1 1H2      0.036000
     13 O1          3.4940   -0.6410   -1.3170 oh        1 1H2     -0.592800
     14 C15         3.8620    2.0630   -1.2260 ca        1 1H2     -0.109500
     15 O           2.1700   -0.7990    3.4670 oh        1 1H2     -0.495100
     16 C2         -2.0480    0.0630    1.1250 cc        1 1H2     -0.280600
     17 C16        -2.8070    0.9800    0.4100 cd        1 1H2      0.285000
     18 C17        -2.5260    2.0670   -0.5240 c3        1 1H2     -0.145400
     19 O2         -4.1660    0.7440    0.7190 os        1 1H2     -0.117100
     20 N          -4.2730   -0.2600    1.5660 nd        1 1H2     -0.363300
     21 C1         -3.0450   -0.7280    1.8650 cc        1 1H2      0.336600
     22 C          -2.7500   -1.8520    2.7730 c3        1 1H2     -0.135400
     23 H1         -0.4050    0.2920   -0.9820 ha        1 1H2      0.136000
     24 H3          3.2850   -0.4520    1.1660 ha        1 1H2      0.164000
     25 H4          0.6810    1.9620   -2.4690 ha        1 1H2      0.138000
     26 H5         -0.5100   -0.4950    3.2740 ha        1 1H2      0.141000
     27 H6          1.6360   -0.2850   -2.1780 h1        1 1H2      0.048700
     28 H7          1.2070    4.3580   -2.9050 ha        1 1H2      0.132000
     29 H8          3.4330    5.2860   -2.2670 ha        1 1H2      0.132000
     30 H9          3.2640   -1.5460   -1.0730 ho        1 1H2      0.408000
     31 H10         4.6120    1.4040   -0.7600 ha        1 1H2      0.138000
     32 H11         1.5530   -0.8350    4.2120 ho        1 1H2      0.420000
     33 H12        -3.1930    2.9430   -0.3200 hc        1 1H2      0.069033
     34 H13        -2.7080    1.7250   -1.5750 hc        1 1H2      0.069033
     35 H14        -1.4570    2.3850   -0.4270 hc        1 1H2      0.069033
     36 H15        -2.6400   -1.4730    3.8210 hc        1 1H2      0.059700
     37 H16        -3.5690   -2.6140    2.7590 hc        1 1H2      0.059700
     38 H17        -1.7940   -2.3440    2.4660 hc        1 1H2      0.059700
     39 H2          5.1370    3.8100   -1.1950 ha        1 1H2      0.132000
@<TRIPOS>BOND
     1    1    3 ar  
     2    1   12 ar  
     3    1   23 1   
     4    2   11 ar  
     5    2   14 ar  
     6    2   39 1   
     7    3    4 ar  
     8    3    8 1   
     9    4    6 ar  
    10    4   24 1   
    11    5    9 ar  
    12    5   10 ar  
    13    5   25 1   
    14    6    7 ar  
    15    6   15 1   
    16    7   12 ar  
    17    7   26 1   
    18    8    9 1   
    19    8   13 1   
    20    8   27 1   
    21    9   14 ar  
    22   10   11 ar  
    23   10   28 1   
    24   11   29 1   
    25   12   16 1   
    26   13   30 1   
    27   14   31 1   
    28   15   32 1   
    29   16   17 2   
    30   16   21 1   
    31   17   18 1   
    32   17   19 1   
    33   18   33 1   
    34   18   34 1   
    35   18   35 1   
    36   19   20 1   
    37   20   21 2   
    38   21   22 1   
    39   22   36 1   
    40   22   37 1   
    41   22   38 1   
@<TRIPOS>SUBSTRUCTURE
     1 1H2         1 TEMP              0 ****  ****    0 ROOT
