@<TRIPOS>MOLECULE
1H2
   39    33     1     0     0
SMALL
bcc


@<TRIPOS>ATOM
      1 C4         -0.7690   -0.5860   -0.3000 c1        1 1H2     -0.149000
      2 C14         4.5650    1.3520   -1.4400 c1        1 1H2     -0.124000
      3 C5          0.6170   -0.5640   -0.2780 c1        1 1H2     -0.032000
      4 C6          1.2900   -0.5090    0.9330 c2        1 1H2     -0.179000
      5 C11         1.9870    1.5690   -2.4350 c1        1 1H2     -0.124000
      6 C7          0.5770   -0.4760    2.1220 c1        1 1H2      0.077000
      7 C8         -0.8090   -0.4980    2.0990 c1        1 1H2     -0.150000
      8 C9          1.3950   -0.7110   -1.5660 c2        1 1H2      0.110000
      9 C10         2.3570    0.4470   -1.7090 c1        1 1H2     -0.122000
     10 C12         2.9060    2.5820   -2.6630 c1        1 1H2     -0.124000
     11 C13         4.1940    2.4730   -2.1660 c1        1 1H2     -0.124000
     12 C3         -1.4820   -0.5530    0.8890 c1        1 1H2      0.028000
     13 O1          2.1150   -1.9190   -1.5450 oh        1 1H2     -0.325000
     14 C15         3.6470    0.3390   -1.2120 c1        1 1H2     -0.114000
     15 O           1.2600   -0.4800    3.3520 oh        1 1H2     -0.253000
     16 C2         -2.9850   -0.5560    1.0610 c2        1 1H2     -0.146000
     17 C16        -3.7910    0.5540    1.1370 c1        1 1H2     -0.005000
     18 C17        -3.3230    1.9920    1.1580 c2        1 1H2     -0.163000
     19 O2         -5.0730    0.1330    1.2390 os        1 1H2     -0.061000
     20 N          -5.0720   -1.2570    1.2280 n2        1 1H2     -0.031000
     21 C1         -3.7920   -1.6730    1.1190 c1        1 1H2     -0.085000
     22 C          -3.3270   -3.1110    1.0490 c2        1 1H2     -0.163000
     23 H1         -1.2430   -0.6250   -1.1520 ha        1 1H2      0.137000
     24 H2          5.4730    1.2760   -1.0900 ha        1 1H2      0.133500
     25 H3          2.2660   -0.4930    0.9490 ha        1 1H2      0.154000
     26 H4          1.0790    1.6450   -2.7850 ha        1 1H2      0.133500
     27 H5         -1.3110   -0.4750    2.9360 ha        1 1H2      0.151000
     28 H6          0.7750   -0.7140   -2.3220 h4        1 1H2      0.088000
     29 H7          2.6450    3.3710   -3.1740 ha        1 1H2      0.133500
     30 H8          4.8410    3.1860   -2.3260 ha        1 1H2      0.133500
     31 H9          2.5170   -2.0390   -2.3290 ho        1 1H2      0.209000
     32 H10         3.9080   -0.4500   -0.7010 ha        1 1H2      0.142000
     33 H11         1.9100    0.1260    3.3320 ho        1 1H2      0.221000
     34 H12        -2.5820    2.0850    1.7930 ha        1 1H2      0.103500
     35 H13        -4.0630    2.5720    1.4310 ha        1 1H2      0.103500
     36 H14        -3.0190    2.2500    0.2620 ha        1 1H2      0.103500
     37 H15        -4.1050   -3.7070    1.0630 ha        1 1H2      0.103500
     38 H16        -2.7530   -3.3060    1.8190 ha        1 1H2      0.103500
     39 H17        -2.8230   -3.2510    0.2210 ha        1 1H2      0.103500
@<TRIPOS>BOND
     1    1    3 1   
     2    1   23 1   
     3    2   11 1   
     4    2   24 1   
     5    3    4 1   
     6    4    6 1   
     7    4   25 1   
     8    5   10 1   
     9    5   26 1   
    10    6   15 1   
    11    7   12 1   
    12    7   27 1   
    13    8    9 1   
    14    8   13 1   
    15    8   28 1   
    16    9   14 1   
    17   10   29 1   
    18   11   30 1   
    19   12   16 1   
    20   13   31 1   
    21   14   32 1   
    22   15   33 1   
    23   16   17 1   
    24   16   21 1   
    25   17   19 1   
    26   18   34 1   
    27   18   35 1   
    28   18   36 1   
    29   19   20 1   
    30   20   21 1   
    31   22   37 1   
    32   22   38 1   
    33   22   39 1   
@<TRIPOS>SUBSTRUCTURE
     1 1H2         1 TEMP              0 ****  ****    0 ROOT
