@<TRIPOS>MOLECULE
1H2
   39    41     1     0     0
SMALL
bcc


@<TRIPOS>ATOM
      1 C4          0.2510    0.0760    0.0660 ca        1 1H2     -0.151000
      2 C14         3.6150    3.5720   -1.3930 ca        1 1H2     -0.131000
      3 C5          1.6250   -0.1980    0.0920 ca        1 1H2     -0.047300
      4 C6          2.2340   -0.6350    1.2660 ca        1 1H2     -0.121000
      5 C11         1.6330    1.9570   -2.5100 ca        1 1H2     -0.115500
      6 C7          1.4450   -0.7970    2.4180 ca        1 1H2      0.121100
      7 C8          0.0720   -0.5320    2.4040 ca        1 1H2     -0.203000
      8 C9          2.4140   -0.0280   -1.1780 c3        1 1H2      0.235700
      9 C10         2.5230    1.4200   -1.5740 ca        1 1H2     -0.130300
     10 C12         1.7340    3.2960   -2.8830 ca        1 1H2     -0.131000
     11 C13         2.7240    4.1050   -2.3250 ca        1 1H2     -0.122000
     12 C3         -0.5300   -0.0910    1.2160 ca        1 1H2      0.031000
     13 O1          3.7000   -0.6130   -0.9840 oh        1 1H2     -0.594800
     14 C15         3.5150    2.2330   -1.0180 ca        1 1H2     -0.115500
     15 O           2.1020   -1.2290    3.5480 oh        1 1H2     -0.495100
     16 C2         -1.9430    0.2000    1.1800 cc        1 1H2     -0.276600
     17 C16        -2.5920    1.2440    0.5380 cd        1 1H2      0.282000
     18 C17        -2.1830    2.3820   -0.2830 c3        1 1H2     -0.143400
     19 O2         -3.9760    1.1090    0.7920 os        1 1H2     -0.119100
     20 N          -4.2010    0.0470    1.5390 nd        1 1H2     -0.365300
     21 C1         -3.0290   -0.5590    1.8200 cc        1 1H2      0.336600
     22 C          -2.8650   -1.7840    2.6260 c3        1 1H2     -0.135400
     23 H1         -0.2180    0.4260   -0.8660 ha        1 1H2      0.135000
     24 H3          3.3110   -0.8610    1.2990 ha        1 1H2      0.172000
     25 H4          0.8520    1.3200   -2.9540 ha        1 1H2      0.139000
     26 H5         -0.5310   -0.6570    3.3140 ha        1 1H2      0.139000
     27 H6          1.8910   -0.6010   -2.0020 h1        1 1H2      0.050700
     28 H7          1.0330    3.7140   -3.6200 ha        1 1H2      0.134500
     29 H8          2.8030    5.1620   -2.6200 ha        1 1H2      0.134000
     30 H9          4.2320   -0.3680   -1.7500 ho        1 1H2      0.410000
     31 H10         4.2140    1.8050   -0.2810 ha        1 1H2      0.139000
     32 H11         1.4560   -1.2830    4.2670 ho        1 1H2      0.418000
     33 H12        -2.7850    3.2890   -0.0250 hc        1 1H2      0.068367
     34 H13        -1.0980    2.5980   -0.1170 hc        1 1H2      0.068367
     35 H14        -2.3450    2.1490   -1.3670 hc        1 1H2      0.068367
     36 H15        -2.7660   -1.5140    3.7080 hc        1 1H2      0.060033
     37 H16        -1.9390   -2.3240    2.3040 hc        1 1H2      0.060033
     38 H17        -3.7410   -2.4690    2.5130 hc        1 1H2      0.060033
     39 H2          4.3960    4.2080   -0.9510 ha        1 1H2      0.134500
@<TRIPOS>BOND
     1    1    3 ar  
     2    1   12 ar  
     3    1   23 1   
     4    2   11 ar  
     5    2   14 ar  
     6    2   39 1   
     7    3    4 ar  
     8    3    8 1   
     9    4    6 ar  
    10    4   24 1   
    11    5    9 ar  
    12    5   10 ar  
    13    5   25 1   
    14    6    7 ar  
    15    6   15 1   
    16    7   12 ar  
    17    7   26 1   
    18    8    9 1   
    19    8   13 1   
    20    8   27 1   
    21    9   14 ar  
    22   10   11 ar  
    23   10   28 1   
    24   11   29 1   
    25   12   16 1   
    26   13   30 1   
    27   14   31 1   
    28   15   32 1   
    29   16   17 2   
    30   16   21 1   
    31   17   18 1   
    32   17   19 1   
    33   18   33 1   
    34   18   34 1   
    35   18   35 1   
    36   19   20 1   
    37   20   21 2   
    38   21   22 1   
    39   22   36 1   
    40   22   37 1   
    41   22   38 1   
@<TRIPOS>SUBSTRUCTURE
     1 1H2         1 TEMP              0 ****  ****    0 ROOT
