@<TRIPOS>MOLECULE
1H3
   39    41     1     0     0
SMALL
bcc


@<TRIPOS>ATOM
      1 C4          0.1340    0.0260    0.1850 ca        1 1H3     -0.153000
      2 C14         3.7360   -3.1950   -1.9550 ca        1 1H3     -0.128500
      3 C5          1.5250    0.0740    0.3030 ca        1 1H3     -0.038300
      4 C6          2.1260    0.0100    1.5620 ca        1 1H3     -0.178000
      5 C11         1.6000   -1.5230   -2.6070 ca        1 1H3     -0.115000
      6 C7          1.3130   -0.1060    2.6970 ca        1 1H3      0.122100
      7 C8         -0.0840   -0.1630    2.5920 ca        1 1H3     -0.145000
      8 C9          2.3580    0.2010   -0.9440 c3        1 1H3      0.235700
      9 C10         2.5220   -1.1270   -1.6330 ca        1 1H3     -0.129300
     10 C12         1.7470   -2.7510   -3.2510 ca        1 1H3     -0.128500
     11 C13         2.8150   -3.5880   -2.9270 ca        1 1H3     -0.122000
     12 C3         -0.6750   -0.0990    1.3250 ca        1 1H3      0.027000
     13 O1          3.6170    0.7610   -0.5750 oh        1 1H3     -0.597800
     14 C15         3.5900   -1.9690   -1.3090 ca        1 1H3     -0.115000
     15 O           1.8320   -0.1730    3.9720 oh        1 1H3     -0.498100
     16 C2         -2.1100   -0.1480    1.1850 cc        1 1H3     -0.274600
     17 C16        -2.9140    0.5570    0.3010 cd        1 1H3      0.279000
     18 C17        -2.6940    1.5500   -0.7480 c3        1 1H3     -0.141400
     19 O2         -4.2530    0.1730    0.5400 os        1 1H3     -0.119100
     20 N          -4.3050   -0.7230    1.5050 nd        1 1H3     -0.366300
     21 C1         -3.0580   -0.9730    1.9520 cc        1 1H3      0.340600
     22 C          -2.7020   -1.9210    3.0250 c3        1 1H3     -0.137400
     23 H1         -0.3350    0.0760   -0.8090 ha        1 1H3      0.133000
     24 H3          3.2210    0.0620    1.6530 ha        1 1H3      0.154000
     25 H4          0.7550   -0.8660   -2.8630 ha        1 1H3      0.136000
     26 H5         -0.6960   -0.2470    3.5020 ha        1 1H3      0.155000
     27 H6          1.8470    0.9220   -1.6510 h1        1 1H3      0.047700
     28 H7          1.0180   -3.0600   -4.0150 ha        1 1H3      0.135000
     29 H8          2.9300   -4.5560   -3.4350 ha        1 1H3      0.134000
     30 H9          4.1740    0.7250   -1.3620 ho        1 1H3      0.410000
     31 H10         4.3110   -1.6560   -0.5370 ha        1 1H3      0.136000
     32 H11         2.7950   -0.0960    3.9050 ho        1 1H3      0.422000
     33 H12        -3.5340    2.2880   -0.7750 hc        1 1H3      0.067033
     34 H13        -2.6360    1.0440   -1.7460 hc        1 1H3      0.067033
     35 H14        -1.7320    2.0910   -0.5620 hc        1 1H3      0.067033
     36 H15        -1.6720   -2.3200    2.8480 hc        1 1H3      0.061367
     37 H16        -2.7190   -1.3960    4.0140 hc        1 1H3      0.061367
     38 H17        -3.4200   -2.7780    3.0690 hc        1 1H3      0.061367
     39 H2          4.5780   -3.8540   -1.6960 ha        1 1H3      0.135000
@<TRIPOS>BOND
     1    1    3 ar  
     2    1   12 ar  
     3    1   23 1   
     4    2   11 ar  
     5    2   14 ar  
     6    2   39 1   
     7    3    4 ar  
     8    3    8 1   
     9    4    6 ar  
    10    4   24 1   
    11    5    9 ar  
    12    5   10 ar  
    13    5   25 1   
    14    6    7 ar  
    15    6   15 1   
    16    7   12 ar  
    17    7   26 1   
    18    8    9 1   
    19    8   13 1   
    20    8   27 1   
    21    9   14 ar  
    22   10   11 ar  
    23   10   28 1   
    24   11   29 1   
    25   12   16 1   
    26   13   30 1   
    27   14   31 1   
    28   15   32 1   
    29   16   17 2   
    30   16   21 1   
    31   17   18 1   
    32   17   19 1   
    33   18   33 1   
    34   18   34 1   
    35   18   35 1   
    36   19   20 1   
    37   20   21 2   
    38   21   22 1   
    39   22   36 1   
    40   22   37 1   
    41   22   38 1   
@<TRIPOS>SUBSTRUCTURE
     1 1H3         1 TEMP              0 ****  ****    0 ROOT
