@<TRIPOS>MOLECULE
1H3
   39    41     1     0     0
SMALL
bcc


@<TRIPOS>ATOM
      1 C4          0.1380    0.0270    0.1830 ca        1 1H3     -0.153000
      2 C14         3.7150   -3.2190   -1.9600 ca        1 1H3     -0.128500
      3 C5          1.5300    0.0700    0.2960 ca        1 1H3     -0.038300
      4 C6          2.1360    0.0100    1.5510 ca        1 1H3     -0.178000
      5 C11         1.5850   -1.5380   -2.6100 ca        1 1H3     -0.115000
      6 C7          1.3280   -0.0980    2.6910 ca        1 1H3      0.122100
      7 C8         -0.0700   -0.1500    2.5920 ca        1 1H3     -0.145000
      8 C9          2.3580    0.1880   -0.9560 c3        1 1H3      0.235700
      9 C10         2.5120   -1.1430   -1.6400 ca        1 1H3     -0.129300
     10 C12         1.7220   -2.7690   -3.2490 ca        1 1H3     -0.128500
     11 C13         2.7870   -3.6100   -2.9260 ca        1 1H3     -0.122000
     12 C3         -0.6670   -0.0890    1.3270 ca        1 1H3      0.027000
     13 O1          3.6210    0.7430   -0.5950 oh        1 1H3     -0.597800
     14 C15         3.5780   -1.9900   -1.3180 ca        1 1H3     -0.115000
     15 O           1.8510   -0.1610    3.9630 oh        1 1H3     -0.498100
     16 C2         -2.1020   -0.1340    1.1940 cc        1 1H3     -0.274600
     17 C16        -2.9070    0.5700    0.3090 cd        1 1H3      0.279000
     18 C17        -2.6880    1.5560   -0.7460 c3        1 1H3     -0.141400
     19 O2         -4.2470    0.1920    0.5560 os        1 1H3     -0.119100
     20 N          -4.2980   -0.6990    1.5260 nd        1 1H3     -0.366300
     21 C1         -3.0500   -0.9520    1.9690 cc        1 1H3      0.340600
     22 C          -2.6930   -1.8950    3.0450 c3        1 1H3     -0.137400
     23 H1         -0.3350    0.0740   -0.8090 ha        1 1H3      0.133000
     24 H3          3.2320    0.0580    1.6370 ha        1 1H3      0.154000
     25 H4          0.7420   -0.8780   -2.8650 ha        1 1H3      0.136000
     26 H5         -0.6780   -0.2260    3.5050 ha        1 1H3      0.155000
     27 H6          1.8470    0.9100   -1.6630 h1        1 1H3      0.047700
     28 H7          0.9890   -3.0770   -4.0090 ha        1 1H3      0.135000
     29 H8          2.8950   -4.5810   -3.4320 ha        1 1H3      0.134000
     30 H9          4.1750    0.7020   -1.3840 ho        1 1H3      0.410000
     31 H10         4.3020   -1.6780   -0.5490 ha        1 1H3      0.136000
     32 H11         2.8140   -0.0870    3.8920 ho        1 1H3      0.422000
     33 H12        -3.5260    2.2970   -0.7730 hc        1 1H3      0.067033
     34 H13        -1.7230    2.0950   -0.5670 hc        1 1H3      0.067033
     35 H14        -2.6360    1.0450   -1.7420 hc        1 1H3      0.067033
     36 H15        -1.6660   -2.2990    2.8660 hc        1 1H3      0.061367
     37 H16        -3.4140   -2.7480    3.0970 hc        1 1H3      0.061367
     38 H17        -2.7030   -1.3640    4.0320 hc        1 1H3      0.061367
     39 H2          4.5530   -3.8810   -1.7020 ha        1 1H3      0.135000
@<TRIPOS>BOND
     1    1    3 ar  
     2    1   12 ar  
     3    1   23 1   
     4    2   11 ar  
     5    2   14 ar  
     6    2   39 1   
     7    3    4 ar  
     8    3    8 1   
     9    4    6 ar  
    10    4   24 1   
    11    5    9 ar  
    12    5   10 ar  
    13    5   25 1   
    14    6    7 ar  
    15    6   15 1   
    16    7   12 ar  
    17    7   26 1   
    18    8    9 1   
    19    8   13 1   
    20    8   27 1   
    21    9   14 ar  
    22   10   11 ar  
    23   10   28 1   
    24   11   29 1   
    25   12   16 1   
    26   13   30 1   
    27   14   31 1   
    28   15   32 1   
    29   16   17 2   
    30   16   21 1   
    31   17   18 1   
    32   17   19 1   
    33   18   33 1   
    34   18   34 1   
    35   18   35 1   
    36   19   20 1   
    37   20   21 2   
    38   21   22 1   
    39   22   36 1   
    40   22   37 1   
    41   22   38 1   
@<TRIPOS>SUBSTRUCTURE
     1 1H3         1 TEMP              0 ****  ****    0 ROOT
