@<TRIPOS>MOLECULE
1H3
   39    33     1     0     0
SMALL
bcc


@<TRIPOS>ATOM
      1 C4         -0.5540    0.6160   -0.1430 c1        1 1H3     -0.151000
      2 C14         3.9160   -2.1790   -1.7450 c1        1 1H3     -0.124250
      3 C5          0.8320    0.6470   -0.1720 c1        1 1H3     -0.038000
      4 C6          1.5500    0.6670    1.0150 c2        1 1H3     -0.119000
      5 C11         1.5260   -1.3320   -2.8660 c1        1 1H3     -0.124250
      6 C7          0.8820    0.6560    2.2290 c1        1 1H3      0.077000
      7 C8         -0.5030    0.6250    2.2580 c1        1 1H3     -0.202000
      8 C9          1.5560    0.7700   -1.4940 c2        1 1H3      0.111000
      9 C10         2.1350   -0.5730   -1.8780 c1        1 1H3     -0.123000
     10 C12         2.1120   -2.5140   -3.2920 c1        1 1H3     -0.124250
     11 C13         3.3070   -2.9370   -2.7320 c1        1 1H3     -0.124250
     12 C3         -1.2210    0.6050    1.0720 c1        1 1H3      0.031000
     13 O1          2.5940    1.7120   -1.3740 oh        1 1H3     -0.322000
     14 C15         3.3310   -0.9970   -1.3180 c1        1 1H3     -0.113000
     15 O           1.6110    0.6550    3.4320 oh        1 1H3     -0.249000
     16 C2         -2.7270    0.5950    1.2150 c2        1 1H3     -0.144000
     17 C16        -3.5590    1.6760    1.0620 c1        1 1H3     -0.009000
     18 C17        -3.1290    3.0940    0.7570 c2        1 1H3     -0.162500
     19 O2         -4.8320    1.2530    1.2470 os        1 1H3     -0.061000
     20 N          -4.7960   -0.1100    1.5200 n2        1 1H3     -0.029000
     21 C1         -3.5060   -0.5070    1.4990 c1        1 1H3     -0.086000
     22 C          -3.0020   -1.9070    1.7730 c2        1 1H3     -0.162500
     23 H1         -1.0590    0.6020   -0.9770 ha        1 1H3      0.133000
     24 H2          4.7580   -2.4770   -1.3510 ha        1 1H3      0.133250
     25 H3          2.5250    0.6890    0.9940 ha        1 1H3      0.169000
     26 H4          0.6850   -1.0350   -3.2600 ha        1 1H3      0.133250
     27 H5         -0.9740    0.6170    3.1130 ha        1 1H3      0.139000
     28 H6          0.9280    1.0630   -2.1830 h4        1 1H3      0.086000
     29 H7          1.6830   -3.0480   -3.9870 ha        1 1H3      0.133250
     30 H8          3.7200   -3.7690   -3.0330 ha        1 1H3      0.133250
     31 H9          2.5920    2.2470   -2.0830 ho        1 1H3      0.208000
     32 H10         3.7600   -0.4630   -0.6230 ha        1 1H3      0.145000
     33 H11         1.6500    1.4830    3.7560 ho        1 1H3      0.217000
     34 H12        -2.7810    3.1400   -0.1580 ha        1 1H3      0.103167
     35 H13        -3.8990    3.6950    0.8450 ha        1 1H3      0.103167
     36 H14        -2.4290    3.3660    1.3870 ha        1 1H3      0.103167
     37 H15        -2.7880   -1.9970    2.7250 ha        1 1H3      0.103167
     38 H16        -3.6950   -2.5570    1.5310 ha        1 1H3      0.103167
     39 H17        -2.1970   -2.0740    1.2390 ha        1 1H3      0.103167
@<TRIPOS>BOND
     1    1    3 1   
     2    1   23 1   
     3    2   11 1   
     4    2   24 1   
     5    3    4 1   
     6    4    6 1   
     7    4   25 1   
     8    5   10 1   
     9    5   26 1   
    10    6   15 1   
    11    7   12 1   
    12    7   27 1   
    13    8    9 1   
    14    8   13 1   
    15    8   28 1   
    16    9   14 1   
    17   10   29 1   
    18   11   30 1   
    19   12   16 1   
    20   13   31 1   
    21   14   32 1   
    22   15   33 1   
    23   16   17 1   
    24   16   21 1   
    25   17   19 1   
    26   18   34 1   
    27   18   35 1   
    28   18   36 1   
    29   19   20 1   
    30   20   21 1   
    31   22   37 1   
    32   22   38 1   
    33   22   39 1   
@<TRIPOS>SUBSTRUCTURE
     1 1H3         1 TEMP              0 ****  ****    0 ROOT
