@<TRIPOS>MOLECULE
1H3
   39    41     1     0     0
SMALL
bcc


@<TRIPOS>ATOM
      1 C4         -0.0440   -0.3790    0.3250 ca        1 1H3     -0.147000
      2 C14         3.5660    1.9550   -0.9140 ca        1 1H3     -0.128000
      3 C5          0.9550   -1.3500    0.4180 ca        1 1H3     -0.081300
      4 C6          0.7160   -2.6450   -0.0490 ca        1 1H3     -0.201000
      5 C11         2.8910    1.3250    1.7190 ca        1 1H3     -0.116000
      6 C7         -0.5300   -2.9480   -0.6110 ca        1 1H3      0.124100
      7 C8         -1.5390   -1.9800   -0.7140 ca        1 1H3     -0.146000
      8 C9          2.2720   -1.0220    1.0710 c3        1 1H3      0.230700
      9 C10         2.7560    0.3580    0.7180 ca        1 1H3     -0.118300
     10 C12         3.3580    2.6010    1.4030 ca        1 1H3     -0.128000
     11 C13         3.6960    2.9170    0.0880 ca        1 1H3     -0.122000
     12 C3         -1.2910   -0.6850   -0.2450 ca        1 1H3      0.029000
     13 O1          3.2600   -2.0010    0.7850 oh        1 1H3     -0.586800
     14 C15         3.0980    0.6800   -0.6010 ca        1 1H3     -0.116000
     15 O          -0.8380   -4.2010   -1.0940 oh        1 1H3     -0.498100
     16 C2         -2.3080    0.3340   -0.3330 cc        1 1H3     -0.277600
     17 C16        -2.5910    1.3460    0.5740 cd        1 1H3      0.283000
     18 C17        -2.0550    1.7760    1.8640 c3        1 1H3     -0.142400
     19 O2         -3.6710    2.0960    0.0560 os        1 1H3     -0.118100
     20 N          -4.0480    1.6070   -1.1080 nd        1 1H3     -0.365300
     21 C1         -3.2810    0.5410   -1.4180 cc        1 1H3      0.339600
     22 C          -3.3940   -0.2710   -2.6440 c3        1 1H3     -0.137400
     23 H1          0.1500    0.6420    0.6900 ha        1 1H3      0.143000
     24 H3          1.4960   -3.4160    0.0400 ha        1 1H3      0.150000
     25 H4          2.6350    1.0780    2.7600 ha        1 1H3      0.133000
     26 H5         -2.5110   -2.2510   -1.1500 ha        1 1H3      0.156000
     27 H6          2.1390   -1.1110    2.1930 h1        1 1H3      0.089700
     28 H7          3.4620    3.3570    2.1960 ha        1 1H3      0.135000
     29 H8          4.0650    3.9230   -0.1600 ha        1 1H3      0.135000
     30 H9          3.4950   -1.9140   -0.1470 ho        1 1H3      0.403000
     31 H10         2.9880   -0.0740   -1.3950 ha        1 1H3      0.133000
     32 H11        -0.0790   -4.7790   -0.9270 ho        1 1H3      0.422000
     33 H12        -1.2560    2.5450    1.7070 hc        1 1H3      0.067700
     34 H13        -2.8610    2.2260    2.4960 hc        1 1H3      0.067700
     35 H14        -1.6100    0.9000    2.4000 hc        1 1H3      0.067700
     36 H15        -4.1010   -1.1220   -2.4690 hc        1 1H3      0.061033
     37 H16        -3.7780    0.3350   -3.5020 hc        1 1H3      0.061033
     38 H17        -2.3910   -0.6860   -2.9140 hc        1 1H3      0.061033
     39 H2          3.8320    2.2010   -1.9520 ha        1 1H3      0.135000
@<TRIPOS>BOND
     1    1    3 ar  
     2    1   12 ar  
     3    1   23 1   
     4    2   11 ar  
     5    2   14 ar  
     6    2   39 1   
     7    3    4 ar  
     8    3    8 1   
     9    4    6 ar  
    10    4   24 1   
    11    5    9 ar  
    12    5   10 ar  
    13    5   25 1   
    14    6    7 ar  
    15    6   15 1   
    16    7   12 ar  
    17    7   26 1   
    18    8    9 1   
    19    8   13 1   
    20    8   27 1   
    21    9   14 ar  
    22   10   11 ar  
    23   10   28 1   
    24   11   29 1   
    25   12   16 1   
    26   13   30 1   
    27   14   31 1   
    28   15   32 1   
    29   16   17 2   
    30   16   21 1   
    31   17   18 1   
    32   17   19 1   
    33   18   33 1   
    34   18   34 1   
    35   18   35 1   
    36   19   20 1   
    37   20   21 2   
    38   21   22 1   
    39   22   36 1   
    40   22   37 1   
    41   22   38 1   
@<TRIPOS>SUBSTRUCTURE
     1 1H3         1 TEMP              0 ****  ****    0 ROOT
