@<TRIPOS>MOLECULE
1H4
   65    62     1     0     0
SMALL
bcc


@<TRIPOS>ATOM
      1 C14        -0.8240   -5.1490   -0.5750 cx        1 1H4     -0.210500
      2 C11         1.0000   -3.1640   -2.9420 c1        1 1H4      0.023000
      3 C10         1.3290   -0.9030   -2.3830 c1        1 1H4      0.180000
      4 C12        -0.0940   -3.2020   -2.1180 c1        1 1H4     -0.257000
      5 C13        -0.8870   -4.5080   -1.9530 cx        1 1H4     -0.108000
      6 C01        -7.2190    1.6200    1.0910 cy        1 1H4     -0.161500
      7 C02        -7.5840    3.0310    0.9100 cy        1 1H4     -0.173000
      8 C03        -6.9080    3.3890    2.1640 cy        1 1H4     -0.161500
      9 C04        -6.5090    1.9440    2.3920 cy        1 1H4     -0.154000
     10 C05        -5.1340    1.6150    2.2140 c1        1 1H4      0.310000
     11 O01        -4.3110    2.5000    2.0650 o         1 1H4     -0.361000
     12 N01        -4.7070    0.2430    2.2910 n2        1 1H4     -0.379000
     13 C06        -3.3220   -0.0940    2.0790 c3        1 1H4     -0.028000
     14 C07        -3.2220   -1.2210    1.0350 c3        1 1H4     -0.201000
     15 C08        -2.1240   -0.8780    0.0130 c3        1 1H4     -0.031000
     16 N02        -1.6790   -2.0860   -0.6410 n3        1 1H4     -0.292000
     17 C09        -0.4710   -2.0770   -1.4270 c1        1 1H4      0.196000
     18 N03         0.2360   -0.9390   -1.5600 n1        1 1H4     -0.283000
     19 N04         1.7050   -2.0240   -3.0730 n2        1 1H4     -0.235000
     20 C15        -0.0550   -5.7620   -1.7340 cx        1 1H4     -0.210500
     21 N05         2.0330    0.3340   -2.5880 n2        1 1H4     -0.226000
     22 C16         3.4280    0.4310   -2.2540 c1        1 1H4      0.076000
     23 C17         3.8170    1.0630   -1.0770 c1        1 1H4     -0.204000
     24 C18         5.1690    1.2530   -0.8020 c1        1 1H4      0.106000
     25 C19         6.1310    0.8100   -1.7050 c2        1 1H4     -0.193000
     26 C20         5.7420    0.1780   -2.8820 c1        1 1H4     -0.098000
     27 C21         4.3900   -0.0120   -3.1570 c1        1 1H4     -0.132000
     28 N           5.5680    1.9840    0.3720 n2        1 1H4     -0.289000
     29 C22         5.8250    1.3890    1.7580 c3        1 1H4     -0.029000
     30 C23         6.7680    2.1780    2.3450 c3        1 1H4     -0.174000
     31 C24         6.5680    3.5960    1.7200 c3        1 1H4     -0.188000
     32 C           5.5600    3.2860    0.5090 c2        1 1H4      0.315000
     33 O           5.1630    4.0900   -0.3170 o         1 1H4     -0.340000
     34 H1         -0.2830   -4.6740    0.0910 hc        1 1H4      0.111000
     35 H2         -1.6300   -5.6350   -0.2930 hc        1 1H4      0.111000
     36 H3          1.2700   -3.9680   -3.4360 ha        1 1H4      0.163000
     37 H4         -1.7290   -4.6350   -2.4440 hc        1 1H4      0.126000
     38 H5         -8.0030    1.0400    1.2220 hc        1 1H4      0.099250
     39 H6         -6.6050    1.2970    0.3960 hc        1 1H4      0.099250
     40 H7         -7.1560    3.4340    0.1210 hc        1 1H4      0.093000
     41 H8         -8.5560    3.1780    0.9480 hc        1 1H4      0.093000
     42 H9         -7.5320    3.7220    2.8490 hc        1 1H4      0.099250
     43 H10        -6.1340    3.9770    2.0220 hc        1 1H4      0.099250
     44 H11        -6.6940    1.6220    3.3020 hc        1 1H4      0.123000
     45 H12        -5.3050   -0.4100    2.5330 hn        1 1H4      0.217000
     46 H13        -2.9240   -0.3960    2.9280 h1        1 1H4      0.106500
     47 H14        -2.8400    0.6970    1.7540 h1        1 1H4      0.106500
     48 H15        -2.9980   -2.0660    1.4860 hc        1 1H4      0.088500
     49 H16        -4.0830   -1.3160    0.5710 hc        1 1H4      0.088500
     50 H17        -1.3660   -0.4580    0.4750 h1        1 1H4      0.095500
     51 H18        -2.4840   -0.2560   -0.6590 h1        1 1H4      0.095500
     52 H19        -2.1900   -2.8460   -0.5940 hn        1 1H4      0.220000
     53 H20         0.9170   -5.6310   -1.7170 hc        1 1H4      0.111000
     54 H21        -0.4310   -6.5930   -2.1030 hc        1 1H4      0.111000
     55 H22         1.6010    1.0500   -2.9660 hn        1 1H4      0.235000
     56 H23         3.1390    1.3760   -0.4400 ha        1 1H4      0.171000
     57 H24         7.0840    0.9440   -1.5120 ha        1 1H4      0.131000
     58 H25         6.4200   -0.1350   -3.5190 ha        1 1H4      0.133000
     59 H26         4.1160   -0.4580   -3.9870 ha        1 1H4      0.157000
     60 H27         4.9970    1.4000    2.2880 h1        1 1H4      0.093000
     61 H28         6.6270    2.2120    3.3190 hc        1 1H4      0.098500
     62 H29         7.3330    4.1020    1.3650 hc        1 1H4      0.123500
     63 H30         6.2280    4.2030    2.4140 hc        1 1H4      0.123500
     64 H31         6.1590    0.4680    1.6730 h1        1 1H4      0.093000
     65 H32         7.6690    1.8400    2.1430 hc        1 1H4      0.098500
@<TRIPOS>BOND
     1    1    5 1   
     2    1   20 1   
     3    1   34 1   
     4    1   35 1   
     5    2   19 1   
     6    2   36 1   
     7    3   18 1   
     8    3   19 1   
     9    4    5 1   
    10    4   17 1   
    11    5   20 1   
    12    5   37 1   
    13    6    7 1   
    14    6    9 1   
    15    6   38 1   
    16    6   39 1   
    17    7    8 1   
    18    7   40 1   
    19    7   41 1   
    20    8    9 1   
    21    8   42 1   
    22    8   43 1   
    23    9   10 1   
    24    9   44 1   
    25   10   11 1   
    26   12   13 1   
    27   12   45 1   
    28   13   14 1   
    29   13   46 1   
    30   13   47 1   
    31   14   15 1   
    32   14   48 1   
    33   14   49 1   
    34   15   16 1   
    35   15   50 1   
    36   15   51 1   
    37   16   17 1   
    38   16   52 1   
    39   20   53 1   
    40   20   54 1   
    41   21   22 1   
    42   21   55 1   
    43   22   27 1   
    44   23   24 1   
    45   23   56 1   
    46   24   25 1   
    47   25   26 1   
    48   25   57 1   
    49   26   58 1   
    50   27   59 1   
    51   28   29 1   
    52   28   32 1   
    53   29   30 1   
    54   29   60 1   
    55   29   64 1   
    56   30   31 1   
    57   30   61 1   
    58   30   65 1   
    59   31   32 1   
    60   31   62 1   
    61   31   63 1   
    62   32   33 1   
@<TRIPOS>SUBSTRUCTURE
     1 1H4         1 TEMP              0 ****  ****    0 ROOT
