@<TRIPOS>MOLECULE
1H4
   65    69     1     0     0
SMALL
bcc


@<TRIPOS>ATOM
      1 C14        -2.0130    5.1700    0.4180 cx        1 1H4     -0.131400
      2 C11         1.2360    3.5820    0.4570 ca        1 1H4      0.488200
      3 C10         1.4760    1.4760   -0.4690 ca        1 1H4      0.897900
      4 C12        -0.1450    3.4010    0.6240 ca        1 1H4     -0.394900
      5 C13        -0.9860    4.4250    1.2380 cx        1 1H4     -0.062400
      6 C01        -9.0240   -2.7830    0.9320 cy        1 1H4     -0.081400
      7 C02        -9.7660   -2.9020   -0.4150 cy        1 1H4     -0.094400
      8 C03        -9.0370   -1.6440   -0.9330 cy        1 1H4     -0.081400
      9 C04        -8.3140   -1.5020    0.4290 cy        1 1H4     -0.165700
     10 C05        -6.8080   -1.5920    0.3940 c         1 1H4      0.669100
     11 O01        -6.1740   -2.4050    1.0940 o         1 1H4     -0.602100
     12 N01        -6.1550   -0.7270   -0.4680 n         1 1H4     -0.574900
     13 C06        -4.7260   -0.6210   -0.5300 c3        1 1H4      0.091000
     14 C07        -4.1620    0.6650    0.0810 c3        1 1H4     -0.121400
     15 C08        -2.6520    0.6940   -0.1530 c3        1 1H4      0.205800
     16 C09        -0.6750    2.1280    0.2080 ca        1 1H4      0.717200
     17 N03         0.1320    1.1700   -0.3420 nb        1 1H4     -0.808000
     18 N04         2.0640    2.6670   -0.0690 nb        1 1H4     -0.761000
     19 C15        -0.7890    5.8820    0.9080 cx        1 1H4     -0.131400
     20 N05         2.2590    0.4960   -1.1220 nh        1 1H4     -0.706300
     21 C16         3.6700    0.4690   -1.0000 ca        1 1H4      0.157600
     22 C17         4.2890   -0.7030   -0.5170 ca        1 1H4     -0.202000
     23 C18         5.6940   -0.8090   -0.4740 ca        1 1H4      0.098600
     24 C19         6.4720    0.2920   -0.9050 ca        1 1H4     -0.193000
     25 C20         5.8480    1.4420   -1.3730 ca        1 1H4     -0.098000
     26 C21         4.4630    1.5470   -1.4360 ca        1 1H4     -0.133000
     27 N           6.3250   -1.9740   -0.0050 n         1 1H4     -0.387000
     28 C22         7.7680   -2.0130    0.1890 c3        1 1H4      0.088000
     29 C23         8.1180   -3.4000    0.7650 c3        1 1H4     -0.095400
     30 C24         6.8010   -4.1600    0.8420 c3        1 1H4     -0.159400
     31 C           5.7290   -3.1930    0.3490 c         1 1H4      0.707500
     32 O           4.5230   -3.4660    0.2750 o         1 1H4     -0.613500
     33 H1         -2.1040    4.9490   -0.6600 hc        1 1H4      0.071700
     34 H2         -2.9900    5.4030    0.8770 hc        1 1H4      0.071700
     35 H3          1.7150    4.5290    0.7690 h4        1 1H4      0.026100
     36 H4         -1.2610    4.1700    2.2850 hc        1 1H4      0.086700
     37 H6         -8.3240   -3.6190    1.1490 hc        1 1H4      0.060950
     38 H7         -9.5280   -3.8270   -0.9820 hc        1 1H4      0.053700
     39 H8        -10.8670   -2.7860   -0.3370 hc        1 1H4      0.053700
     40 H9         -8.3640   -1.8390   -1.7940 hc        1 1H4      0.060950
     41 H10        -9.7100   -0.7930   -1.1690 hc        1 1H4      0.060950
     42 H11        -8.6080   -0.5870    0.9940 hc        1 1H4      0.077700
     43 H12        -6.6850   -0.0360   -0.9390 hn        1 1H4      0.305500
     44 H13        -4.2730   -1.5080    0.0010 h1        1 1H4      0.065700
     45 H14        -4.4200   -0.6680   -1.6160 h1        1 1H4      0.065700
     46 H15        -4.6440    1.5620   -0.3890 hc        1 1H4      0.049700
     47 H16        -4.3860    0.6940    1.1790 hc        1 1H4      0.049700
     48 H17        -2.1880   -0.2250    0.3070 h1        1 1H4      0.056200
     49 H18        -2.4560    0.6510   -1.2650 h1        1 1H4      0.056200
     50 H20        -0.0090    6.1660    0.1790 hc        1 1H4      0.071700
     51 H21        -0.8860    6.6250    1.7190 hc        1 1H4      0.071700
     52 H22         1.8390   -0.4130   -1.1490 hn        1 1H4      0.439800
     53 H23         3.6640   -1.5470   -0.1760 ha        1 1H4      0.171000
     54 H24         7.5700    0.2580   -0.8800 ha        1 1H4      0.131000
     55 H25         6.4670    2.2890   -1.7070 ha        1 1H4      0.133000
     56 H26         4.0040    2.4690   -1.8230 ha        1 1H4      0.156000
     57 H27         8.2890   -1.8530   -0.7940 h1        1 1H4      0.053200
     58 H28         8.8490   -3.9210    0.1010 hc        1 1H4      0.059200
     59 H29         6.7990   -5.0680    0.1900 hc        1 1H4      0.084200
     60 H30         6.5550   -4.4730    1.8860 hc        1 1H4      0.084200
     61 H31         8.0800   -1.1960    0.8950 h1        1 1H4      0.053200
     62 H32         8.5830   -3.2930    1.7750 hc        1 1H4      0.059200
     63 N02        -2.0220    1.8520    0.4350 nh        1 1H4     -0.848900
     64 H5         -9.6850   -2.6070    1.8060 hc        1 1H4      0.060950
     65 H19        -2.5960    2.6610    0.5390 hn        1 1H4      0.425800
@<TRIPOS>BOND
     1    1    5 1   
     2    1   19 1   
     3    1   33 1   
     4    1   34 1   
     5    2    4 ar  
     6    2   18 ar  
     7    2   35 1   
     8    3   17 ar  
     9    3   18 ar  
    10    3   20 1   
    11    4    5 1   
    12    4   16 ar  
    13    5   19 1   
    14    5   36 1   
    15    6    7 1   
    16    6    9 1   
    17    6   37 1   
    18    6   64 1   
    19    7    8 1   
    20    7   38 1   
    21    7   39 1   
    22    8    9 1   
    23    8   40 1   
    24    8   41 1   
    25    9   10 1   
    26    9   42 1   
    27   10   11 2   
    28   10   12 1   
    29   12   13 1   
    30   12   43 1   
    31   13   14 1   
    32   13   44 1   
    33   13   45 1   
    34   14   15 1   
    35   14   46 1   
    36   14   47 1   
    37   15   48 1   
    38   15   49 1   
    39   15   63 1   
    40   16   17 ar  
    41   16   63 1   
    42   19   50 1   
    43   19   51 1   
    44   20   21 1   
    45   20   52 1   
    46   21   22 ar  
    47   21   26 ar  
    48   22   23 ar  
    49   22   53 1   
    50   23   24 ar  
    51   23   27 1   
    52   24   25 ar  
    53   24   54 1   
    54   25   26 ar  
    55   25   55 1   
    56   26   56 1   
    57   27   28 1   
    58   27   31 1   
    59   28   29 1   
    60   28   57 1   
    61   28   61 1   
    62   29   30 1   
    63   29   58 1   
    64   29   62 1   
    65   30   31 1   
    66   30   59 1   
    67   30   60 1   
    68   31   32 2   
    69   63   65 1   
@<TRIPOS>SUBSTRUCTURE
     1 1H4         1 TEMP              0 ****  ****    0 ROOT
