@<TRIPOS>MOLECULE
1H4
   66    64     1     0     0
SMALL
bcc


@<TRIPOS>ATOM
      1 C14        -0.3830   -2.0570   -4.1080 c2        1 1H4     -0.445000
      2 C11         2.6170    1.1800    0.2640 c2        1 1H4     -0.006000
      3 C10         2.0550    3.2770   -0.5470 c2        1 1H4      0.125000
      4 C12         2.5100    0.6030   -1.0270 c2        1 1H4     -0.146000
      5 C13         2.7630   -0.8280   -1.2610 c3        1 1H4     -0.188000
      6 C01         6.3340   -2.4070   -4.7770 cx        1 1H4     -0.174500
      7 C02         5.9710   -2.6610   -3.3500 cx        1 1H4     -0.174500
      8 C03         8.1760   -1.3200   -3.3330 c3        1 1H4     -0.191000
      9 C04         6.7350   -1.4010   -3.7140 cx        1 1H4     -0.160000
     10 C05         5.9470   -0.1240   -3.6910 c2        1 1H4      0.353000
     11 O01         4.7090   -0.1250   -3.9470 o         1 1H4     -0.497000
     12 N01         6.5520    1.0560   -3.3900 nt        1 1H4     -0.406000
     13 C06         2.9480    2.3040   -6.7310 c3        1 1H4     -0.220000
     14 C07         2.7920    1.1310   -5.7950 c3        1 1H4     -0.190000
     15 C08         2.8290    1.5830   -4.3730 c2        1 1H4      0.185000
     16 C09         2.1780    1.5090   -2.0650 c2        1 1H4      0.084000
     17 N03         1.9330    2.8300   -1.8450 n2        1 1H4     -0.207000
     18 N04         2.4190    2.4740    0.5270 n2        1 1H4     -0.145000
     19 C15         0.4180   -1.0700   -3.8900 c1        1 1H4      0.075000
     20 C16         2.8690    5.4630    0.2050 c3        1 1H4      0.034000
     21 C17         3.9110    5.6400   -0.7990 c1        1 1H4     -0.045000
     22 C18         4.7520    5.7720   -1.6410 c1        1 1H4     -0.132000
     23 C19         2.5040    6.8980    2.9190 c1        1 1H4     -0.173500
     24 C20         1.5900    6.1290    2.7280 c1        1 1H4     -0.173500
     25 C21         2.4990    6.8240    0.6950 c1        1 1H4     -0.084000
     26 N           5.7010    5.8650   -2.6180 n         1 1H4      0.058000
     27 C22         6.1960    7.0170   -2.9700 c2        1 1H4      0.013000
     28 C23         8.5850    5.2430   -3.1390 c3        1 1H4     -0.140000
     29 C24         7.4640    4.3890   -3.5410 c2        1 1H4     -0.433000
     30 C           6.1290    4.5480   -3.3140 c2        1 1H4      0.265000
     31 O           5.1420    3.8040   -3.5570 o         1 1H4     -0.485000
     32 H1          1.8590   -1.3170   -1.7090 hc        1 1H4      0.104000
     33 H2         -1.4880   -1.9750   -4.0930 ha        1 1H4      0.231500
     34 H3          2.8900    0.5480    1.1340 h4        1 1H4      0.189000
     35 H4         -0.0540   -3.0910   -4.3350 ha        1 1H4      0.231500
     36 H7          8.2930   -0.9190   -2.2960 hc        1 1H4      0.089000
     37 H8          8.6410   -2.3370   -3.3630 hc        1 1H4      0.089000
     38 H9          6.5020   -3.4460   -2.7830 hc        1 1H4      0.122500
     39 H10         4.9140   -2.5560   -3.0440 hc        1 1H4      0.122500
     40 H11         8.7400   -0.6650   -4.0420 hc        1 1H4      0.089000
     41 H12         3.5340    2.4240   -4.1320 h4        1 1H4      0.232000
     42 H13         6.0310    1.9060   -3.4030 hn        1 1H4      0.247000
     43 H14         3.0080    1.9320   -7.7840 hc        1 1H4      0.098667
     44 H15         2.0770    2.9970   -6.6520 hc        1 1H4      0.098667
     45 H16         3.8810    2.8760   -6.5040 hc        1 1H4      0.098667
     46 H17         3.6630    0.4180   -5.9150 hc        1 1H4      0.140000
     47 H18         1.8560    0.5610   -6.0370 hc        1 1H4      0.140000
     48 H20         3.6200   -0.9610   -1.9750 hc        1 1H4      0.104000
     49 H21         3.0110   -1.3550   -0.3060 hc        1 1H4      0.104000
     50 H23         3.3350    4.9150    1.0940 h1        1 1H4      0.184000
     51 H24         0.7850    5.4410    2.6250 ha        1 1H4      0.241500
     52 H25         3.2960    7.5820    3.1170 ha        1 1H4      0.241500
     53 H26         1.4860    7.1910    0.4780 ha        1 1H4      0.076000
     54 H27         5.9050    7.9670   -2.4810 h4        1 1H4      0.184000
     55 H28         8.3780    5.8320   -2.2100 hc        1 1H4      0.065333
     56 H29         6.9390    7.0490   -3.7940 h4        1 1H4      0.184000
     57 H30         9.4860    4.6090   -2.9370 hc        1 1H4      0.065333
     58 H31         8.8620    5.9630   -3.9530 hc        1 1H4      0.065333
     59 H32         7.7320    3.4900   -4.1170 ha        1 1H4      0.147000
     60 N02         2.1040    1.0430   -3.4260 nu        1 1H4     -0.144000
     61 H5          5.5350   -2.1240   -5.4870 hc        1 1H4      0.122500
     62 H19         1.4640    0.2030   -3.5920 hn        1 1H4      0.339000
     63 H012        7.5220    1.1040   -3.2000 hn        1 1H4      0.247000
     64 N05         1.7450    4.6490   -0.2770 nu        1 1H4     -0.246000
     65 H6          7.1310   -3.0060   -5.2530 hc        1 1H4      0.122500
     66 H22         1.2820    5.0830   -1.0570 hn        1 1H4      0.201000
@<TRIPOS>BOND
     1    1   19 1   
     2    1   33 1   
     3    1   35 1   
     4    2    4 1   
     5    2   18 1   
     6    2   34 1   
     7    3   17 1   
     8    3   18 1   
     9    3   64 1   
    10    4    5 1   
    11    4   16 1   
    12    5   32 1   
    13    5   48 1   
    14    5   49 1   
    15    6    7 1   
    16    6    9 1   
    17    6   61 1   
    18    6   65 1   
    19    7    9 1   
    20    7   38 1   
    21    7   39 1   
    22    8    9 1   
    23    8   36 1   
    24    8   37 1   
    25    8   40 1   
    26    9   10 1   
    27   10   11 1   
    28   10   12 1   
    29   12   42 1   
    30   12   63 1   
    31   13   14 1   
    32   13   43 1   
    33   13   44 1   
    34   13   45 1   
    35   14   15 1   
    36   14   46 1   
    37   14   47 1   
    38   15   41 1   
    39   15   60 1   
    40   16   17 1   
    41   16   60 1   
    42   20   21 1   
    43   20   25 1   
    44   20   50 1   
    45   20   64 1   
    46   21   22 1   
    47   22   26 1   
    48   23   24 1   
    49   23   52 1   
    50   24   51 1   
    51   25   53 1   
    52   26   27 1   
    53   26   30 1   
    54   27   54 1   
    55   27   56 1   
    56   28   29 1   
    57   28   55 1   
    58   28   57 1   
    59   28   58 1   
    60   29   30 1   
    61   29   59 1   
    62   30   31 1   
    63   60   62 1   
    64   64   66 1   
@<TRIPOS>SUBSTRUCTURE
     1 1H4         1 TEMP              0 ****  ****    0 ROOT
