@<TRIPOS>MOLECULE
1H4
   68    69     1     0     0
SMALL
bcc


@<TRIPOS>ATOM
      1 C14       -79.3130  611.6210  628.6520 c1        1 1H4     -0.188000
      2 C11       -77.2110  617.0490  623.1530 ca        1 1H4      0.465200
      3 C10       -78.5890  615.3520  623.8180 ca        1 1H4      0.696900
      4 C12       -76.2970  616.7280  624.1770 ca        1 1H4     -0.253900
      5 C13       -75.0460  617.4920  624.3280 c3        1 1H4     -0.082800
      6 C01       256.8900-1837.6290-1889.9070 cy        1 1H4     -0.078400
      7 C02       255.4250-1837.1500-1889.9270 cy        1 1H4     -0.083400
      8 C03       255.6570-1836.3400-1888.6340 cy        1 1H4     -0.078400
      9 C04       257.1230-1836.8500-1888.5800 cy        1 1H4     -0.192700
     10 C05       258.1760-1835.8050-1888.6720 c         1 1H4      0.569100
     11 O01       259.0510-1835.6200-1889.4950 o         1 1H4     -0.381100
     12 N01       258.1650-1834.7870-1887.5310 n4        1 1H4     -0.773400
     13 C06       -74.9860  612.6250  628.2000 c3        1 1H4     -0.080100
     14 C07       -75.2050  614.1220  628.1790 c3        1 1H4     -0.171300
     15 C08       -76.1620  614.4720  627.1010 c1        1 1H4     -0.035100
     16 C09       -76.6480  615.6350  625.0480 ca        1 1H4      0.701200
     17 N03       -77.8120  614.9330  624.8590 nb        1 1H4     -0.673000
     18 N04       -78.3690  616.3870  622.9520 nb        1 1H4     -0.667000
     19 C15       -78.5940  612.4570  628.1840 c1        1 1H4     -0.188000
     20 C16       -80.7600  614.6320  624.7050 c2        1 1H4     -0.129200
     21 C17       -82.0740  615.3670  624.5870 c3        1 1H4     -0.123500
     22 C18       -82.7000  615.1760  625.9680 ce        1 1H4      0.393900
     23 C19       -81.7590  614.3910  626.7880 ce        1 1H4     -0.286600
     24 C20       -81.8560  613.9810  628.0660 c2        1 1H4      0.023000
     25 C21       -80.5870  614.0960  625.9440 ce        1 1H4      0.027000
     26 N         -83.8820  615.6560  626.2930 n         1 1H4     -0.273400
     27 C22       -84.5500  615.5110  627.5930 c3        1 1H4      0.039000
     28 C23       -85.9150  616.2210  627.5060 c3        1 1H4     -0.097400
     29 C24       -86.0250  616.7980  626.1020 c3        1 1H4     -0.146400
     30 C         -84.7600  616.4370  625.3750 c         1 1H4      0.709500
     31 O         -84.3860  616.6740  624.2380 o         1 1H4     -0.483500
     32 H1        -74.9780  617.9500  625.3490 hc        1 1H4      0.085033
     33 H2        -79.7260  613.5250  626.3350 ha        1 1H4      0.232000
     34 H3        -77.0140  617.8850  622.4470 h4        1 1H4      0.084100
     35 H4        -79.9160  610.8550  629.0760 ha        1 1H4      0.188500
     36 H7        255.5490-1835.2430-1888.7690 hc        1 1H4      0.080700
     37 H8        255.0460-1836.6780-1887.7690 hc        1 1H4      0.080700
     38 H9        254.6800-1837.9680-1889.8160 hc        1 1H4      0.086200
     39 H10       255.1620-1836.5290-1890.8100 hc        1 1H4      0.086200
     40 H11       257.3350-1837.5210-1887.7100 hc        1 1H4      0.120700
     41 H12       257.2310-1834.3740-1887.4480 hn        1 1H4      0.467467
     42 H13       258.8510-1834.0430-1887.7090 hn        1 1H4      0.467467
     43 H14       -74.3530  612.3550  629.0800 hc        1 1H4      0.054033
     44 H15       -74.4640  612.2880  627.2730 hc        1 1H4      0.054033
     45 H16       -75.9590  612.0820  628.2810 hc        1 1H4      0.054033
     46 H17       -75.6950  614.4420  629.1430 hc        1 1H4      0.071200
     47 H18       -74.2090  614.6420  628.1260 hc        1 1H4      0.071200
     48 H20       -74.1550  616.8280  624.1750 hc        1 1H4      0.085033
     49 H21       -74.9860  618.3210  623.5770 hc        1 1H4      0.085033
     50 H23       -82.7410  614.9390  623.7870 hc        1 1H4      0.142700
     51 H24       -82.7120  614.1890  628.7260 ha        1 1H4      0.177500
     52 H25       -81.9370  616.4620  624.3620 hc        1 1H4      0.142700
     53 H26       -81.0360  613.3860  628.5280 ha        1 1H4      0.177500
     54 H27       -83.9100  615.9820  628.3910 h1        1 1H4      0.101700
     55 H28       -85.9780  617.0280  628.2800 hc        1 1H4      0.107700
     56 H29       -84.6880  614.4160  627.8180 h1        1 1H4      0.101700
     57 H30       -86.7410  615.4920  627.7080 hc        1 1H4      0.107700
     58 H31       -86.1330  617.9180  626.1110 hc        1 1H4      0.140200
     59 H32       -86.9020  616.3760  625.5370 hc        1 1H4      0.140200
     60 N02       -75.7830  615.2740  626.1040 nh        1 1H4     -0.577700
     61 H5        257.5070-1837.2690-1890.7590 hc        1 1H4      0.080700
     62 H19       -74.8630  615.6810  626.0230 hn        1 1H4      0.416800
     63 H012      258.3990-1835.2520-1886.6500 hn        1 1H4      0.467467
     64 H022      -77.9050  613.1820  627.7920 ha        1 1H4      0.188500
     65 N05       -79.8460  614.5540  623.5870 n4        1 1H4     -0.587500
     66 H6        257.0170-1838.7270-1889.7870 hc        1 1H4      0.080700
     67 H22       -79.5700  613.5690  623.4380 hn        1 1H4      0.489800
     68 H052      -80.3120  614.9080  622.7340 hn        1 1H4      0.489800
@<TRIPOS>BOND
     1    1   19 3   
     2    1   35 1   
     3    2    4 ar  
     4    2   18 ar  
     5    2   34 1   
     6    3   17 ar  
     7    3   18 ar  
     8    3   65 1   
     9    4    5 1   
    10    4   16 ar  
    11    5   32 1   
    12    5   48 1   
    13    5   49 1   
    14    6    7 1   
    15    6    9 1   
    16    6   61 1   
    17    6   66 1   
    18    7    8 1   
    19    7   38 1   
    20    7   39 1   
    21    8    9 1   
    22    8   36 1   
    23    8   37 1   
    24    9   10 1   
    25    9   40 1   
    26   10   11 2   
    27   10   12 1   
    28   12   41 1   
    29   12   42 1   
    30   12   63 1   
    31   13   14 1   
    32   13   43 1   
    33   13   44 1   
    34   13   45 1   
    35   14   15 1   
    36   14   46 1   
    37   14   47 1   
    38   15   60 3   
    39   16   17 ar  
    40   16   60 1   
    41   19   64 1   
    42   20   21 1   
    43   20   25 2   
    44   20   65 1   
    45   21   22 1   
    46   21   50 1   
    47   21   52 1   
    48   22   23 1   
    49   22   26 2   
    50   23   24 2   
    51   23   25 1   
    52   24   51 1   
    53   24   53 1   
    54   25   33 1   
    55   26   27 1   
    56   26   30 1   
    57   27   28 1   
    58   27   54 1   
    59   27   56 1   
    60   28   29 1   
    61   28   55 1   
    62   28   57 1   
    63   29   30 1   
    64   29   58 1   
    65   29   59 1   
    66   30   31 2   
    67   60   62 1   
    68   65   67 1   
    69   65   68 1   
@<TRIPOS>SUBSTRUCTURE
     1 1H4         1 TEMP              0 ****  ****    0 ROOT
