@<TRIPOS>MOLECULE
1H5
   43    45     1     0     0
SMALL
bcc


@<TRIPOS>ATOM
      1 C2         -0.0140   -1.0830   -0.0220 ca        1 1H5     -0.102000
      2 C3          1.3360   -1.3110    0.1610 ca        1 1H5     -0.125000
      3 C4          1.9820   -0.9690    1.3680 ca        1 1H5      0.108900
      4 C5          1.2500   -0.3820    2.4180 ca        1 1H5     -0.126300
      5 C6         -0.1190   -0.1440    2.2150 ca        1 1H5     -0.159000
      6 C8          1.8120    0.0720    3.7570 c3        1 1H5      0.139500
      7 C9          1.7270    1.6500    3.7960 c3        1 1H5      0.187900
      8 C10         3.3130   -0.3140    4.0200 c3        1 1H5      0.111600
      9 C11         3.4170   -1.8180    4.3170 c3        1 1H5      0.103400
     10 C13         1.3890   -1.4870    5.5010 c2        1 1H5      0.670500
     11 N14         0.9670   -0.4600    4.8420 n2        1 1H5     -0.570900
     12 C1         -0.7750   -0.4860    1.0130 ca        1 1H5      0.078600
     13 F7          3.3120   -1.2220    1.4500 f         1 1H5     -0.143900
     14 O12         2.5580   -2.2230    5.4100 os        1 1H5     -0.438400
     15 F15         3.8150    0.4120    5.0890 f         1 1H5     -0.214300
     16 N16         0.6020   -2.0770    6.6160 n4        1 1H5     -0.791600
     17 N17        -2.1390   -0.1970    0.8840 n         1 1H5     -0.459100
     18 C18        -3.0090   -0.7660   -0.0390 c         1 1H5      0.582600
     19 C19        -4.4500   -0.3180   -0.0060 ca        1 1H5      0.356800
     20 O20        -2.6400   -1.6020   -0.8820 o         1 1H5     -0.570100
     21 N21        -4.9790    0.2010    1.1320 nb        1 1H5     -0.670000
     22 C22        -6.2680    0.5610    1.1110 ca        1 1H5      0.432200
     23 C23        -7.0950    0.4280   -0.0350 ca        1 1H5     -0.090300
     24 C24        -6.5380   -0.1080   -1.2010 ca        1 1H5     -0.059000
     25 C25        -5.1930   -0.4910   -1.1900 ca        1 1H5     -0.181300
     26 C26        -8.4520    0.8320    0.0180 cg        1 1H5      0.212800
     27 N27        -9.5660    1.1650    0.0640 n1        1 1H5     -0.308800
     28 F28         2.5960    2.1960    2.8810 f         1 1H5     -0.209300
     29 H1         -0.4870   -1.3680   -0.9800 ha        1 1H5      0.194000
     30 H2          1.9360   -1.7620   -0.6480 ha        1 1H5      0.172000
     31 H3         -0.7010    0.3420    3.0160 ha        1 1H5      0.144000
     32 H4          0.6780    1.9700    3.5480 h1        1 1H5      0.073700
     33 H5          2.0070    2.0130    4.8240 h1        1 1H5      0.073700
     34 H6          3.9260   -0.0560    3.1060 h1        1 1H5      0.145700
     35 H7          3.1330   -2.4260    3.4190 h1        1 1H5      0.115200
     36 H8          4.4410   -2.0940    4.6920 h1        1 1H5      0.115200
     37 H9          1.1850   -2.0590    7.4650 hn        1 1H5      0.486133
     38 H10        -0.2660   -1.5480    6.7720 hn        1 1H5      0.486133
     39 H11        -2.5200    0.4180    1.5710 hn        1 1H5      0.342500
     40 H12        -6.6720    0.9780    2.0530 h4        1 1H5      0.044100
     41 H13        -7.1450   -0.2300   -2.1120 ha        1 1H5      0.170000
     42 H14        -4.7170   -0.9310   -2.0810 ha        1 1H5      0.182000
     43 H163        0.3840   -3.0520    6.3750 hn        1 1H5      0.486133
@<TRIPOS>BOND
     1    1    2 ar  
     2    1   12 ar  
     3    1   29 1   
     4    2    3 ar  
     5    2   30 1   
     6    3    4 ar  
     7    3   13 1   
     8    4    5 ar  
     9    4    6 1   
    10    5   12 ar  
    11    5   31 1   
    12    6    7 1   
    13    6    8 1   
    14    6   11 1   
    15    7   28 1   
    16    7   32 1   
    17    7   33 1   
    18    8    9 1   
    19    8   15 1   
    20    8   34 1   
    21    9   14 1   
    22    9   35 1   
    23    9   36 1   
    24   10   11 2   
    25   10   14 1   
    26   10   16 1   
    27   12   17 1   
    28   16   37 1   
    29   16   38 1   
    30   16   43 1   
    31   17   18 1   
    32   17   39 1   
    33   18   19 1   
    34   18   20 2   
    35   19   21 ar  
    36   19   25 ar  
    37   21   22 ar  
    38   22   23 ar  
    39   22   40 1   
    40   23   24 ar  
    41   23   26 1   
    42   24   25 ar  
    43   24   41 1   
    44   25   42 1   
    45   26   27 3   
@<TRIPOS>SUBSTRUCTURE
     1 1H5         1 TEMP              0 ****  ****    0 ROOT
