@<TRIPOS>MOLECULE
1H5
   42    44     1     0     0
SMALL
bcc


@<TRIPOS>ATOM
      1 C2         -0.0680    2.4130    0.5180 ca        1 1H5     -0.124000
      2 C3         -1.3890    2.8290    0.5630 ca        1 1H5     -0.147000
      3 C4         -2.4400    1.9580    0.2230 ca        1 1H5      0.106900
      4 C5         -2.1660    0.6250   -0.1680 ca        1 1H5     -0.103300
      5 C6         -0.8280    0.2270   -0.2240 ca        1 1H5     -0.136000
      6 C8         -3.2720   -0.3490   -0.5650 c3        1 1H5      0.163500
      7 C9         -3.9690    0.1930   -1.8660 c3        1 1H5      0.178900
      8 C10        -4.3360   -0.4210    0.5920 c3        1 1H5      0.108600
      9 C11        -3.7330   -1.2560    1.7310 c3        1 1H5      0.103400
     10 C13        -2.7940   -2.6270    0.0120 c2        1 1H5      0.796500
     11 N14        -2.7650   -1.6760   -0.8910 n2        1 1H5     -0.725900
     12 C1          0.2350    1.0970    0.1170 ca        1 1H5      0.045600
     13 F7         -3.7040    2.4460    0.2820 f         1 1H5     -0.130900
     14 O12        -3.3470   -2.5610    1.3020 os        1 1H5     -0.456400
     15 F15        -5.5190   -0.9830    0.1440 f         1 1H5     -0.225300
     16 N16        -2.2310   -3.8970   -0.1670 nh        1 1H5     -0.877800
     17 N17         1.5460    0.5900    0.0510 n         1 1H5     -0.444100
     18 C18         2.7160    1.3050    0.2090 c         1 1H5      0.576600
     19 C19         4.0230    0.5540    0.0510 ca        1 1H5      0.370800
     20 O20         2.7580    2.5150    0.5030 o         1 1H5     -0.589100
     21 N21         4.0690   -0.6170   -0.6330 nb        1 1H5     -0.659000
     22 C22         5.2580   -1.2210   -0.7590 ca        1 1H5      0.434200
     23 C23         6.4570   -0.7000   -0.2110 ca        1 1H5     -0.110300
     24 C24         6.3980    0.5090    0.4940 ca        1 1H5     -0.063000
     25 C25         5.1640    1.1490    0.6270 ca        1 1H5     -0.192300
     26 C26         7.6810   -1.3950   -0.3800 cg        1 1H5      0.226800
     27 N27         8.6850   -1.9660   -0.5180 n1        1 1H5     -0.335800
     28 F28        -4.6950    1.3390   -1.6290 f         1 1H5     -0.235300
     29 H1          0.7280    3.1260    0.7910 ha        1 1H5      0.180000
     30 H2         -1.6310    3.8610    0.8640 ha        1 1H5      0.155000
     31 H3         -0.5810   -0.7970   -0.5550 ha        1 1H5      0.158000
     32 H4         -3.1790    0.4110   -2.6340 h1        1 1H5      0.063700
     33 H5         -4.6730   -0.5930   -2.2570 h1        1 1H5      0.063700
     34 H6         -4.5670    0.6150    0.9680 h1        1 1H5      0.100700
     35 H7         -2.8330   -0.7320    2.1480 h1        1 1H5      0.078200
     36 H8         -4.4900   -1.4540    2.5350 h1        1 1H5      0.078200
     37 H9         -2.1480   -4.1910   -1.1150 hn        1 1H5      0.420800
     38 H10        -2.5890   -4.5860    0.4570 hn        1 1H5      0.420800
     39 H11         1.6160   -0.3630   -0.2410 hn        1 1H5      0.341500
     40 H12         5.2600   -2.1710   -1.3260 h4        1 1H5      0.042100
     41 H13         7.3060    0.9500    0.9330 ha        1 1H5      0.160000
     42 H14         5.0700    2.1090    1.1610 ha        1 1H5      0.181000
@<TRIPOS>BOND
     1    1    2 ar  
     2    1   12 ar  
     3    1   29 1   
     4    2    3 ar  
     5    2   30 1   
     6    3    4 ar  
     7    3   13 1   
     8    4    5 ar  
     9    4    6 1   
    10    5   12 ar  
    11    5   31 1   
    12    6    7 1   
    13    6    8 1   
    14    6   11 1   
    15    7   28 1   
    16    7   32 1   
    17    7   33 1   
    18    8    9 1   
    19    8   15 1   
    20    8   34 1   
    21    9   14 1   
    22    9   35 1   
    23    9   36 1   
    24   10   11 2   
    25   10   14 1   
    26   10   16 1   
    27   12   17 1   
    28   16   37 1   
    29   16   38 1   
    30   17   18 1   
    31   17   39 1   
    32   18   19 1   
    33   18   20 2   
    34   19   21 ar  
    35   19   25 ar  
    36   21   22 ar  
    37   22   23 ar  
    38   22   40 1   
    39   23   24 ar  
    40   23   26 1   
    41   24   25 ar  
    42   24   41 1   
    43   25   42 1   
    44   26   27 3   
@<TRIPOS>SUBSTRUCTURE
     1 1H5         1 TEMP              0 ****  ****    0 ROOT
