@<TRIPOS>MOLECULE
1H5
   43    45     1     0     0
SMALL
bcc


@<TRIPOS>ATOM
      1 C2         -0.0090   -1.0950   -0.0160 ca        1 1H5     -0.102000
      2 C3          1.3410   -1.3190    0.1700 ca        1 1H5     -0.125000
      3 C4          1.9840   -0.9710    1.3780 ca        1 1H5      0.108900
      4 C5          1.2490   -0.3820    2.4240 ca        1 1H5     -0.126300
      5 C6         -0.1200   -0.1480    2.2170 ca        1 1H5     -0.159000
      6 C8          1.8070    0.0780    3.7620 c3        1 1H5      0.139500
      7 C9          1.7190    1.6560    3.7950 c3        1 1H5      0.187900
      8 C10         3.3090   -0.3040    4.0290 c3        1 1H5      0.111600
      9 C11         3.4150   -1.8070    4.3330 c3        1 1H5      0.103400
     10 C13         1.3840   -1.4750    5.5120 c2        1 1H5      0.670500
     11 N14         0.9620   -0.4510    4.8480 n2        1 1H5     -0.570900
     12 C1         -0.7730   -0.4960    1.0150 ca        1 1H5      0.078600
     13 F7          3.3140   -1.2210    1.4630 f         1 1H5     -0.143900
     14 O12         2.5550   -2.2090    5.4250 os        1 1H5     -0.438400
     15 F15         3.8070    0.4270    5.0970 f         1 1H5     -0.214300
     16 N16         0.5960   -2.0620    6.6270 nz        1 1H5     -0.791600
     17 N17        -2.1380   -0.2090    0.8830 ns        1 1H5     -0.459100
     18 C18        -3.0040   -0.7840   -0.0400 c         1 1H5      0.582600
     19 C19        -4.4470   -0.3390   -0.0110 ca        1 1H5      0.356800
     20 O20        -2.6320   -1.6210   -0.8800 o         1 1H5     -0.570100
     21 N21        -4.9790    0.1810    1.1260 nb        1 1H5     -0.670000
     22 C22        -6.2690    0.5370    1.1010 ca        1 1H5      0.432200
     23 C23        -7.0930    0.3990   -0.0460 ca        1 1H5     -0.090300
     24 C24        -6.5330   -0.1380   -1.2100 ca        1 1H5     -0.059000
     25 C25        -5.1870   -0.5170   -1.1950 ca        1 1H5     -0.181300
     26 C26        -8.4520    0.8000    0.0040 cg        1 1H5      0.212800
     27 N27        -9.5670    1.1290    0.0460 n1        1 1H5     -0.308800
     28 F28         2.5890    2.2000    2.8800 f         1 1H5     -0.209300
     29 H1         -0.4800   -1.3840   -0.9730 ha        1 1H5      0.194000
     30 H2          1.9440   -1.7720   -0.6360 ha        1 1H5      0.172000
     31 H3         -0.7050    0.3400    3.0160 ha        1 1H5      0.144000
     32 H4          0.6700    1.9730    3.5440 h1        1 1H5      0.073700
     33 H5          1.9960    2.0230    4.8220 h1        1 1H5      0.073700
     34 H6          3.9230   -0.0480    3.1160 h1        1 1H5      0.145700
     35 H7          3.1340   -2.4180    3.4360 h1        1 1H5      0.115200
     36 H8          4.4390   -2.0790    4.7110 h1        1 1H5      0.115200
     37 H9          0.3830   -3.0390    6.3910 hn        1 1H5      0.486133
     38 H10         1.1760   -2.0380    7.4770 hn        1 1H5      0.486133
     39 H11        -2.5210    0.4070    1.5670 hn        1 1H5      0.342500
     40 H12        -6.6760    0.9550    2.0420 h4        1 1H5      0.044100
     41 H13        -7.1380   -0.2640   -2.1220 ha        1 1H5      0.170000
     42 H14        -4.7080   -0.9580   -2.0850 ha        1 1H5      0.182000
     43 H163       -0.2740   -1.5350    6.7780 hn        1 1H5      0.486133
@<TRIPOS>BOND
     1    1    2 ar  
     2    1   12 ar  
     3    1   29 1   
     4    2    3 ar  
     5    2   30 1   
     6    3    4 ar  
     7    3   13 1   
     8    4    5 ar  
     9    4    6 1   
    10    5   12 ar  
    11    5   31 1   
    12    6    7 1   
    13    6    8 1   
    14    6   11 1   
    15    7   28 1   
    16    7   32 1   
    17    7   33 1   
    18    8    9 1   
    19    8   15 1   
    20    8   34 1   
    21    9   14 1   
    22    9   35 1   
    23    9   36 1   
    24   10   11 2   
    25   10   14 1   
    26   10   16 1   
    27   12   17 1   
    28   16   37 1   
    29   16   38 1   
    30   16   43 1   
    31   17   18 1   
    32   17   39 1   
    33   18   19 1   
    34   18   20 2   
    35   19   21 ar  
    36   19   25 ar  
    37   21   22 ar  
    38   22   23 ar  
    39   22   40 1   
    40   23   24 ar  
    41   23   26 1   
    42   24   25 ar  
    43   24   41 1   
    44   25   42 1   
    45   26   27 3   
@<TRIPOS>SUBSTRUCTURE
     1 1H5         1 TEMP              0 ****  ****    0 ROOT
