@<TRIPOS>MOLECULE
1H5
   44    46     1     0     0
SMALL
bcc


@<TRIPOS>ATOM
      1 C2          0.0650   -0.2040   -0.2460 ca        1 1H5     -0.055000
      2 C3          1.3850   -0.5750   -0.0700 ca        1 1H5     -0.132000
      3 C4          1.9700   -0.5950    1.2190 ca        1 1H5      0.202900
      4 C5          1.2150   -0.2400    2.3600 ca        1 1H5     -0.124300
      5 C6         -0.1320    0.1110    2.1660 ca        1 1H5     -0.043000
      6 C8          1.7390   -0.1230    3.7870 c3        1 1H5      0.127500
      7 C9          1.5520    1.3940    4.2160 c3        1 1H5      0.182900
      8 C10         3.2720   -0.4450    3.9700 c3        1 1H5      0.118600
      9 C11         3.4930   -1.9670    4.0120 c3        1 1H5      0.099400
     10 C13         1.4460   -2.0140    5.2060 c2        1 1H5      0.695500
     11 N14         0.9230   -0.9520    4.6860 n2        1 1H5     -0.598900
     12 C1         -0.6990    0.1510    0.8840 ca        1 1H5     -0.057400
     13 F7          3.2650   -0.9630    1.2910 f         1 1H5     -0.105900
     14 O12         2.6880   -2.5950    5.0350 os        1 1H5     -0.421400
     15 F15         3.7390    0.1170    5.1460 f         1 1H5     -0.198300
     16 N16         0.7260   -2.8420    6.2070 n4        1 1H5     -0.793600
     17 N17        -2.0810    0.5940    0.6980 n4        1 1H5     -0.533200
     18 C18        -3.1430   -0.4290    1.0850 c         1 1H5      0.475600
     19 C19        -4.5010   -0.1710    0.5570 ca        1 1H5      0.284800
     20 O20        -2.7910   -1.3520    1.8030 o         1 1H5     -0.426100
     21 N21        -4.7530    1.0160   -0.0740 nb        1 1H5     -0.681000
     22 C22        -5.9870    1.2310   -0.5230 ca        1 1H5      0.454200
     23 C23        -7.0440    0.2800   -0.3750 ca        1 1H5     -0.014300
     24 C24        -6.7730   -0.9280    0.2680 ca        1 1H5     -0.066000
     25 C25        -5.4750   -1.1660    0.7500 ca        1 1H5     -0.128300
     26 C26        -8.3340    0.5790   -0.8800 cg        1 1H5      0.172800
     27 N27        -9.3930    0.8250   -1.2950 n1        1 1H5     -0.223800
     28 F28         2.2490    2.2140    3.3630 f         1 1H5     -0.205300
     29 H1         -0.3590   -0.1850   -1.2660 ha        1 1H5      0.179000
     30 H2          2.0090   -0.8520   -0.9410 ha        1 1H5      0.203000
     31 H3         -0.7540    0.3650    3.0440 ha        1 1H5      0.166000
     32 H4          1.9400    1.5350    5.2640 h1        1 1H5      0.079200
     33 H5          0.4620    1.6640    4.1840 h1        1 1H5      0.079200
     34 H6          3.8530    0.0100    3.1150 h1        1 1H5      0.139700
     35 H7          3.2410   -2.4490    3.0330 h1        1 1H5      0.122200
     36 H8          4.5440   -2.2200    4.3320 h1        1 1H5      0.122200
     37 H9         -0.2600   -2.5600    6.2830 hn        1 1H5      0.493467
     38 H10         0.7940   -3.8310    5.9260 hn        1 1H5      0.493467
     39 H11        -2.2450    1.4420    1.2600 hn        1 1H5      0.481800
     40 H12        -6.1670    2.2030   -1.0290 h4        1 1H5      0.076100
     41 H13        -7.5610   -1.6920    0.4010 ha        1 1H5      0.196000
     42 H14        -5.2300   -2.1100    1.2650 ha        1 1H5      0.184000
     43 H163        1.1960   -2.7200    7.1180 hn        1 1H5      0.493467
     44 H172       -2.2160    0.8460   -0.2940 hn        1 1H5      0.481800
@<TRIPOS>BOND
     1    1    2 ar  
     2    1   12 ar  
     3    1   29 1   
     4    2    3 ar  
     5    2   30 1   
     6    3    4 ar  
     7    3   13 1   
     8    4    5 ar  
     9    4    6 1   
    10    5   12 ar  
    11    5   31 1   
    12    6    7 1   
    13    6    8 1   
    14    6   11 1   
    15    7   28 1   
    16    7   32 1   
    17    7   33 1   
    18    8    9 1   
    19    8   15 1   
    20    8   34 1   
    21    9   14 1   
    22    9   35 1   
    23    9   36 1   
    24   10   11 2   
    25   10   14 1   
    26   10   16 1   
    27   12   17 1   
    28   16   37 1   
    29   16   38 1   
    30   16   43 1   
    31   17   18 1   
    32   17   39 1   
    33   17   44 1   
    34   18   19 1   
    35   18   20 2   
    36   19   21 ar  
    37   19   25 ar  
    38   21   22 ar  
    39   22   23 ar  
    40   22   40 1   
    41   23   24 ar  
    42   23   26 1   
    43   24   25 ar  
    44   24   41 1   
    45   25   42 1   
    46   26   27 3   
@<TRIPOS>SUBSTRUCTURE
     1 1H5         1 TEMP              0 ****  ****    0 ROOT
