@<TRIPOS>MOLECULE
1H6
   44    46     1     0     0
SMALL
bcc


@<TRIPOS>ATOM
      1 C13         0.4540    0.2650    0.1070 c2        1 1H6      0.689500
      2 C3         -2.3650    3.2940    4.5250 ca        1 1H6     -0.137000
      3 C2         -3.5620    3.3800    3.8320 ca        1 1H6     -0.047000
      4 C1         -3.6890    2.6980    2.6100 ca        1 1H6     -0.068400
      5 C4         -1.2910    2.5370    4.0110 ca        1 1H6      0.198900
      6 C5         -1.4070    1.8560    2.7690 ca        1 1H6     -0.102300
      7 C6         -2.6200    1.9480    2.0830 ca        1 1H6     -0.049000
      8 C10         1.0600    1.9170    2.1700 c3        1 1H6      0.109600
      9 C8         -0.2420    1.0240    2.2450 c3        1 1H6      0.179500
     10 C11         2.1880    1.1270    1.4890 c3        1 1H6      0.100400
     11 O12         1.7980    0.5600    0.2180 os        1 1H6     -0.427400
     12 N14        -0.5350    0.4570    0.9180 n2        1 1H6     -0.595900
     13 F15         0.8100    3.0960    1.4950 f         1 1H6     -0.206300
     14 N16         0.2710   -0.3400   -1.2380 n4        1 1H6     -0.792600
     15 N17        -4.9600    2.7570    1.8810 n4        1 1H6     -0.533200
     16 C18        -4.8990    3.7490    0.7270 c         1 1H6      0.485600
     17 C19        -5.4220    5.1090    0.9650 ca        1 1H6      0.297800
     18 O20        -4.4290    3.3010   -0.3100 o         1 1H6     -0.439100
     19 N21        -5.8580    5.4480    2.2160 nb        1 1H6     -0.681000
     20 C22        -6.3290    6.6800    2.3950 ca        1 1H6      0.449200
     21 C23        -6.3960    7.6480    1.3460 ca        1 1H6     -0.016300
     22 C24        -5.9490    7.2890    0.0740 ca        1 1H6     -0.064000
     23 C25        -5.4490    5.9920   -0.1290 ca        1 1H6     -0.128300
     24 C26        -6.9110    8.9400    1.6160 cg        1 1H6      0.173800
     25 N27        -7.3330   10.0020    1.8370 n1        1 1H6     -0.227800
     26 H1         -2.2390    3.8160    5.4920 ha        1 1H6      0.201000
     27 H2         -4.3900    3.9810    4.2520 ha        1 1H6      0.186000
     28 H3         -2.7560    1.4340    1.1160 ha        1 1H6      0.167000
     29 H4          1.3980    2.1620    3.2210 h1        1 1H6      0.129700
     30 H8          3.0460    1.8020    1.2090 h1        1 1H6      0.122200
     31 H9          2.5370    0.2820    2.1390 h1        1 1H6      0.122200
     32 H10         0.9410   -1.1190   -1.3340 hn        1 1H6      0.492467
     33 H11        -0.6900   -0.6850   -1.3630 hn        1 1H6      0.492467
     34 H12        -5.7110    3.0200    2.5360 hn        1 1H6      0.475800
     35 H13        -6.6810    6.9320    3.4170 h4        1 1H6      0.072100
     36 H14        -5.9860    8.0060   -0.7650 ha        1 1H6      0.196000
     37 H15        -5.0900    5.6760   -1.1230 ha        1 1H6      0.187000
     38 C9          0.0050   -0.1210    3.2510 c3        1 1H6     -0.114100
     39 H5          0.3090    0.3070    4.2380 hc        1 1H6      0.078033
     40 H6         -0.9270   -0.7200    3.3940 hc        1 1H6      0.078033
     41 H7          0.8170   -0.8010    2.8950 hc        1 1H6      0.078033
     42 H163        0.4860    0.3750   -1.9480 hn        1 1H6      0.492467
     43 H172       -5.1640    1.8230    1.5000 hn        1 1H6      0.475800
     44 F7         -0.1570    2.4850    4.7400 f         1 1H6     -0.102900
@<TRIPOS>BOND
     1    1   11 1   
     2    1   12 2   
     3    1   14 1   
     4    2    3 ar  
     5    2    5 ar  
     6    2   26 1   
     7    3    4 ar  
     8    3   27 1   
     9    4    7 ar  
    10    4   15 1   
    11    5    6 ar  
    12    5   44 1   
    13    6    7 ar  
    14    6    9 1   
    15    7   28 1   
    16    8    9 1   
    17    8   10 1   
    18    8   13 1   
    19    8   29 1   
    20    9   12 1   
    21    9   38 1   
    22   10   11 1   
    23   10   30 1   
    24   10   31 1   
    25   14   32 1   
    26   14   33 1   
    27   14   42 1   
    28   15   16 1   
    29   15   34 1   
    30   15   43 1   
    31   16   17 1   
    32   16   18 2   
    33   17   19 ar  
    34   17   23 ar  
    35   19   20 ar  
    36   20   21 ar  
    37   20   35 1   
    38   21   22 ar  
    39   21   24 1   
    40   22   23 ar  
    41   22   36 1   
    42   23   37 1   
    43   24   25 3   
    44   38   39 1   
    45   38   40 1   
    46   38   41 1   
@<TRIPOS>SUBSTRUCTURE
     1 1H6         1 TEMP              0 ****  ****    0 ROOT
