@<TRIPOS>MOLECULE
1H6
   43    45     1     0     0
SMALL
bcc


@<TRIPOS>ATOM
      1 C13        -0.0840   -0.1430    0.0440 c2        1 1H6      0.658500
      2 C3         -0.9280    3.6240    4.6490 ca        1 1H6     -0.120000
      3 C2         -2.0060    4.2500    4.0480 ca        1 1H6     -0.110000
      4 C1         -2.5400    3.7370    2.8450 ca        1 1H6      0.073600
      5 C4         -0.3470    2.4770    4.0800 ca        1 1H6      0.100900
      6 C5         -0.8530    1.9500    2.8680 ca        1 1H6     -0.100300
      7 C6         -1.9450    2.5850    2.2750 ca        1 1H6     -0.142000
      8 C10         1.3300    0.9180    2.0870 c3        1 1H6      0.110600
      9 C8         -0.2250    0.7040    2.2620 c3        1 1H6      0.188500
     10 C11         1.9300   -0.2530    1.2900 c3        1 1H6      0.098400
     11 O12         1.2630   -0.4690    0.0250 os        1 1H6     -0.439400
     12 N14        -0.8290    0.3770    0.9590 n2        1 1H6     -0.561900
     13 F15         1.6060    2.1150    1.4540 f         1 1H6     -0.204300
     14 N16        -0.6180   -0.4750   -1.3030 nz        1 1H6     -0.790600
     15 N17        -3.6510    4.3000    2.2000 ns        1 1H6     -0.456100
     16 C18        -4.1680    5.5710    2.4160 c         1 1H6      0.581600
     17 C19        -5.3480    5.9990    1.5750 ca        1 1H6      0.359800
     18 O20        -3.7170    6.3460    3.2770 o         1 1H6     -0.570100
     19 N21        -5.6510    5.3420    0.4250 nb        1 1H6     -0.672000
     20 C22        -6.6960    5.7820   -0.2860 ca        1 1H6      0.430200
     21 C23        -7.4940    6.8880    0.1030 ca        1 1H6     -0.093300
     22 C24        -7.1730    7.5570    1.2890 ca        1 1H6     -0.059000
     23 C25        -6.0820    7.1090    2.0390 ca        1 1H6     -0.181300
     24 C26        -8.5880    7.2930   -0.7030 cg        1 1H6      0.214800
     25 N27        -9.4850    7.6240   -1.3650 n1        1 1H6     -0.312800
     26 H1         -0.5110    4.0200    5.5900 ha        1 1H6      0.170000
     27 H2         -2.4350    5.1520    4.5210 ha        1 1H6      0.193000
     28 H3         -2.3750    2.1870    1.3420 ha        1 1H6      0.138000
     29 H4          1.8090    0.9280    3.1110 h1        1 1H6      0.128700
     30 H8          2.9880   -0.0330    0.9780 h1        1 1H6      0.108200
     31 H9          1.8690   -1.2080    1.8710 h1        1 1H6      0.108200
     32 H10        -1.6430   -0.3930   -1.3200 hn        1 1H6      0.485467
     33 H11        -0.2010    0.1770   -1.9810 hn        1 1H6      0.485467
     34 H12        -4.0300    3.7640    1.4490 hn        1 1H6      0.337500
     35 H13        -6.9160    5.2290   -1.2190 h4        1 1H6      0.041100
     36 H14        -7.7650    8.4220    1.6270 ha        1 1H6      0.170000
     37 H15        -5.7850    7.6130    2.9740 ha        1 1H6      0.185000
     38 C9         -0.4540   -0.4660    3.2410 c3        1 1H6     -0.107100
     39 H5          0.0490   -0.2320    4.2120 hc        1 1H6      0.071033
     40 H6         -1.5470   -0.5970    3.4330 hc        1 1H6      0.071033
     41 H7         -0.0380   -1.4200    2.8400 hc        1 1H6      0.071033
     42 H163       -0.3330   -1.4350   -1.5370 hn        1 1H6      0.485467
     43 F7          0.6990    1.9010    4.7250 f         1 1H6     -0.144900
@<TRIPOS>BOND
     1    1   11 1   
     2    1   12 2   
     3    1   14 1   
     4    2    3 ar  
     5    2    5 ar  
     6    2   26 1   
     7    3    4 ar  
     8    3   27 1   
     9    4    7 ar  
    10    4   15 1   
    11    5    6 ar  
    12    5   43 1   
    13    6    7 ar  
    14    6    9 1   
    15    7   28 1   
    16    8    9 1   
    17    8   10 1   
    18    8   13 1   
    19    8   29 1   
    20    9   12 1   
    21    9   38 1   
    22   10   11 1   
    23   10   30 1   
    24   10   31 1   
    25   14   32 1   
    26   14   33 1   
    27   14   42 1   
    28   15   16 1   
    29   15   34 1   
    30   16   17 1   
    31   16   18 2   
    32   17   19 ar  
    33   17   23 ar  
    34   19   20 ar  
    35   20   21 ar  
    36   20   35 1   
    37   21   22 ar  
    38   21   24 1   
    39   22   23 ar  
    40   22   36 1   
    41   23   37 1   
    42   24   25 3   
    43   38   39 1   
    44   38   40 1   
    45   38   41 1   
@<TRIPOS>SUBSTRUCTURE
     1 1H6         1 TEMP              0 ****  ****    0 ROOT
