@<TRIPOS>MOLECULE
1H6
   42    44     1     0     0
SMALL
bcc


@<TRIPOS>ATOM
      1 C13         3.7360   -2.5760    0.2140 c2        1 1H6      0.790500
      2 C3          1.4370    2.9990   -0.1240 ca        1 1H6     -0.144000
      3 C2          0.1330    2.5270   -0.1610 ca        1 1H6     -0.126000
      4 C1         -0.1190    1.1550    0.0290 ca        1 1H6      0.042600
      5 C4          2.5170    2.1260    0.0960 ca        1 1H6      0.097900
      6 C5          2.2910    0.7410    0.2810 ca        1 1H6     -0.065300
      7 C6          0.9750    0.2830    0.2520 ca        1 1H6     -0.122000
      8 C10         4.5250   -0.0510   -0.5980 c3        1 1H6      0.107600
      9 C8          3.4510   -0.2160    0.5430 c3        1 1H6      0.200500
     10 C11         5.5540   -1.1850   -0.4710 c3        1 1H6      0.103400
     11 F7          3.7650    2.6600    0.1210 f         1 1H6     -0.149900
     12 O12         4.9550   -2.4780   -0.4820 os        1 1H6     -0.458400
     13 N14         2.9880   -1.5930    0.6480 n2        1 1H6     -0.721900
     14 F15         3.9510   -0.0590   -1.8560 f         1 1H6     -0.224300
     15 N16         3.4430   -3.9340    0.4030 nh        1 1H6     -0.875800
     16 N17        -1.4110    0.5960   -0.0150 n         1 1H6     -0.443100
     17 C18        -2.6030    1.2860    0.0440 c         1 1H6      0.575600
     18 C19        -3.8840    0.4750    0.0270 ca        1 1H6      0.371800
     19 O20        -2.6880    2.5290    0.0750 o         1 1H6     -0.590100
     20 N21        -3.8820   -0.8270    0.4060 nb        1 1H6     -0.659000
     21 C22        -5.0500   -1.4840    0.3930 ca        1 1H6      0.433200
     22 C23        -6.2730   -0.8870    0.0010 ca        1 1H6     -0.112300
     23 C24        -6.2640    0.4580   -0.3890 ca        1 1H6     -0.063000
     24 C25        -5.0530    1.1530   -0.3750 ca        1 1H6     -0.193300
     25 C26        -7.4720   -1.6430    0.0090 cg        1 1H6      0.227800
     26 N27        -8.4550   -2.2650    0.0150 n1        1 1H6     -0.337800
     27 H1          1.6390    4.0710   -0.2690 ha        1 1H6      0.151000
     28 H2         -0.6900    3.2400   -0.3350 ha        1 1H6      0.176000
     29 H3          0.7720   -0.7910    0.4090 ha        1 1H6      0.161000
     30 H4          5.0600    0.9320   -0.4600 h1        1 1H6      0.085700
     31 H8          6.2400   -1.2040   -1.3610 h1        1 1H6      0.073700
     32 H9          6.1420   -1.0670    0.4760 h1        1 1H6      0.073700
     33 H10         3.9110   -4.5360   -0.2390 hn        1 1H6      0.417800
     34 H11         2.4780   -4.1400    0.5420 hn        1 1H6      0.417800
     35 H12        -1.4410   -0.4010    0.0400 hn        1 1H6      0.339500
     36 H13        -5.0120   -2.5430    0.7130 h4        1 1H6      0.041100
     37 H14        -7.1930    0.9610   -0.6980 ha        1 1H6      0.160000
     38 H15        -4.9980    2.2160   -0.6590 ha        1 1H6      0.181000
     39 C9          4.1090    0.2230    1.8710 c3        1 1H6     -0.101100
     40 H5          4.5080    1.2600    1.7740 hc        1 1H6      0.051367
     41 H6          3.3520    0.2030    2.6910 hc        1 1H6      0.051367
     42 H7          4.9460   -0.4620    2.1450 hc        1 1H6      0.051367
@<TRIPOS>BOND
     1    1   12 1   
     2    1   13 2   
     3    1   15 1   
     4    2    3 ar  
     5    2    5 ar  
     6    2   27 1   
     7    3    4 ar  
     8    3   28 1   
     9    4    7 ar  
    10    4   16 1   
    11    5    6 ar  
    12    5   11 1   
    13    6    7 ar  
    14    6    9 1   
    15    7   29 1   
    16    8    9 1   
    17    8   10 1   
    18    8   14 1   
    19    8   30 1   
    20    9   13 1   
    21    9   39 1   
    22   10   12 1   
    23   10   31 1   
    24   10   32 1   
    25   15   33 1   
    26   15   34 1   
    27   16   17 1   
    28   16   35 1   
    29   17   18 1   
    30   17   19 2   
    31   18   20 ar  
    32   18   24 ar  
    33   20   21 ar  
    34   21   22 ar  
    35   21   36 1   
    36   22   23 ar  
    37   22   25 1   
    38   23   24 ar  
    39   23   37 1   
    40   24   38 1   
    41   25   26 3   
    42   39   40 1   
    43   39   41 1   
    44   39   42 1   
@<TRIPOS>SUBSTRUCTURE
     1 1H6         1 TEMP              0 ****  ****    0 ROOT
