@<TRIPOS>MOLECULE
1H6
   42    38     1     0     0
SMALL
bcc


@<TRIPOS>ATOM
      1 C13         2.6190   -3.1410   -0.3430 c1        1 1H6      0.217000
      2 C3         -0.8790   -0.8350    2.5560 c1        1 1H6     -0.149000
      3 C2         -0.8480    0.3010    1.7590 c1        1 1H6     -0.122000
      4 C1         -0.4380    0.2090    0.4270 c1        1 1H6      0.048000
      5 C4         -0.5020   -2.0610    2.0310 c1        1 1H6      0.075000
      6 C5         -0.0900   -2.1540    0.6950 c2        1 1H6     -0.079000
      7 C6         -0.0600   -1.0200   -0.1000 c1        1 1H6     -0.133000
      8 C10         0.7890   -4.3690    1.3490 c3        1 1H6      0.010000
      9 C9         -1.1720   -3.9460   -0.3950 c3        1 1H6     -0.199000
     10 C8          0.1790   -3.4680    0.1040 c3        1 1H6      0.062000
     11 C11         1.8200   -3.9730    1.7950 c3        1 1H6     -0.049000
     12 F7         -0.4880   -3.1510    2.8160 f         1 1H6     -0.101000
     13 O12         2.9040   -3.8410    0.8210 o         1 1H6     -0.257000
     14 N14         1.0400   -3.2340   -0.8450 n2        1 1H6     -0.311000
     15 F15        -0.2120   -4.3870    2.4430 f         1 1H6     -0.142000
     16 N16         3.4250   -2.0420   -0.7280 n3        1 1H6     -0.323000
     17 N17        -0.4710    1.3690   -0.4160 n         1 1H6     -0.297000
     18 C18        -0.9510    2.6070    0.0940 c2        1 1H6      0.359000
     19 C19        -0.9800    3.8600   -0.8160 c2        1 1H6     -0.047000
     20 O20        -1.3350    2.6830    1.2450 o         1 1H6     -0.351000
     21 N21        -1.8660    3.8980   -1.8610 n2        1 1H6     -0.134000
     22 C22        -1.9440    5.0120   -2.6550 c1        1 1H6     -0.032000
     23 C23        -1.1250    6.1030   -2.4020 c1        1 1H6     -0.042000
     24 C24        -0.2360    6.0650   -1.3560 c1        1 1H6     -0.063000
     25 C25        -0.1600    4.9470   -0.5620 c1        1 1H6     -0.128000
     26 C26        -1.2860    7.3710   -3.2120 c1        1 1H6     -0.102000
     27 N27        -1.4100    8.3300   -3.8260 n1        1 1H6     -0.011000
     28 H1         -1.1720   -0.7690    3.5050 ha        1 1H6      0.153000
     29 H2         -1.1160    1.1730    2.1320 ha        1 1H6      0.177000
     30 H3          0.2250   -1.0840   -1.0220 ha        1 1H6      0.155000
     31 H4          0.9220   -5.2860    1.0320 h1        1 1H6      0.110000
     32 H5         -1.7720   -4.0720    0.3600 hc        1 1H6      0.088667
     33 H6         -1.0620   -4.7950   -0.8700 hc        1 1H6      0.088667
     34 H7         -1.5510   -3.2770   -1.0040 hc        1 1H6      0.088667
     35 H8          2.1100   -4.5890    2.4970 h1        1 1H6      0.117000
     36 H9          1.6610   -3.0920    2.2010 h1        1 1H6      0.117000
     37 H10         4.1820   -1.8470   -0.2570 hn        1 1H6      0.216500
     38 H11         3.2410   -1.5900   -1.5110 hn        1 1H6      0.216500
     39 H12        -0.2260    1.3020   -1.2850 hn        1 1H6      0.253000
     40 H13        -2.5740    5.0380   -3.3960 ha        1 1H6      0.179000
     41 H14         0.3430    6.8340   -1.1770 ha        1 1H6      0.160000
     42 H15         0.4670    4.9190    0.1770 ha        1 1H6      0.181000
@<TRIPOS>BOND
     1    1   14 1   
     2    1   16 1   
     3    2    5 1   
     4    2   28 1   
     5    3    4 1   
     6    3   29 1   
     7    4   17 1   
     8    5    6 1   
     9    6    7 1   
    10    6   10 1   
    11    7   30 1   
    12    8   10 1   
    13    8   11 1   
    14    8   15 1   
    15    8   31 1   
    16    9   10 1   
    17    9   32 1   
    18    9   33 1   
    19    9   34 1   
    20   10   14 1   
    21   11   13 1   
    22   11   35 1   
    23   11   36 1   
    24   16   37 1   
    25   16   38 1   
    26   17   18 1   
    27   17   39 1   
    28   18   19 1   
    29   18   20 1   
    30   19   21 1   
    31   19   25 1   
    32   21   22 1   
    33   22   40 1   
    34   23   24 1   
    35   23   26 1   
    36   24   41 1   
    37   25   42 1   
    38   26   27 1   
@<TRIPOS>SUBSTRUCTURE
     1 1H6         1 TEMP              0 ****  ****    0 ROOT
