@<TRIPOS>MOLECULE
1H7
   43    45     1     0     0
SMALL
bcc


@<TRIPOS>ATOM
      1 C2          0.3300   -0.9670   -0.0050 ca        1 1H7     -0.059000
      2 C4          0.1260   -0.1350    2.2530 ca        1 1H7      0.358800
      3 C6          2.2300   -0.2380    1.3080 ca        1 1H7      0.431200
      4 C7         -0.7960    0.2150    3.3970 c         1 1H7      0.581600
      5 C10         2.5850   -1.0650   -0.9780 cg        1 1H7      0.214800
      6 C1          1.7110   -0.7630    0.0970 ca        1 1H7     -0.093300
      7 C3         -0.4790   -0.6470    1.0890 ca        1 1H7     -0.182300
      8 N5          1.4640    0.0680    2.3630 nb        1 1H7     -0.670000
      9 N8         -0.2430    0.2720    4.6700 ns        1 1H7     -0.457100
     10 O9         -2.0020    0.4150    3.1760 o         1 1H7     -0.572100
     11 N11         3.3030   -1.3130   -1.8590 n1        1 1H7     -0.311800
     12 C12        -0.9280    0.6020    5.8490 ca        1 1H7      0.069600
     13 C13        -2.3360    0.5280    5.9680 ca        1 1H7     -0.103000
     14 C14        -2.9440    0.8380    7.1700 ca        1 1H7     -0.131000
     15 C15        -2.1880    1.2360    8.2930 ca        1 1H7      0.116900
     16 C16        -0.7860    1.3200    8.2010 ca        1 1H7     -0.114300
     17 C17        -0.1790    0.9980    6.9790 ca        1 1H7     -0.147000
     18 C18         0.1510    1.7070    9.3380 c3        1 1H7      0.183500
     19 C19         1.0430    0.4870    9.6450 c3        1 1H7     -0.098100
     20 C20         0.3600    2.8630   11.6150 c3        1 1H7      0.092400
     21 O21         0.8850    4.0440   10.9770 os        1 1H7     -0.436400
     22 C22         1.2420    3.8160    9.6530 c2        1 1H7      0.644500
     23 N23         0.9750    2.8360    8.8620 n2        1 1H7     -0.556900
     24 N24         2.0290    4.9940    9.2070 nz        1 1H7     -0.789600
     25 C25        -0.5970    2.1090   10.6670 c3        1 1H7      0.127600
     26 F26        -1.1040    1.0050   11.3160 f         1 1H7     -0.183300
     27 F27        -2.8660    1.5120    9.4340 f         1 1H7     -0.134900
     28 H1         -0.1140   -1.3700   -0.9300 ha        1 1H7      0.169000
     29 H2          3.3150   -0.0600    1.4280 h4        1 1H7      0.043100
     30 H3         -1.5730   -0.7790    1.0480 ha        1 1H7      0.183000
     31 H4          0.7450    0.1690    4.7580 hn        1 1H7      0.340500
     32 H5         -2.9610    0.2250    5.1080 ha        1 1H7      0.192000
     33 H6         -4.0410    0.7730    7.2680 ha        1 1H7      0.170000
     34 H7          0.9190    1.0520    6.9000 ha        1 1H7      0.140000
     35 H8          1.7250    0.6970   10.5030 hc        1 1H7      0.070367
     36 H9          0.3740   -0.3680    9.9170 hc        1 1H7      0.070367
     37 H10         1.6520    0.1950    8.7570 hc        1 1H7      0.070367
     38 H11         1.2160    2.2210   11.9470 h1        1 1H7      0.107700
     39 H12        -0.1930    3.2740   12.5040 h1        1 1H7      0.107700
     40 H13         1.4430    5.8320    9.3180 hn        1 1H7      0.484800
     41 H14         2.8570    5.0790    9.8100 hn        1 1H7      0.484800
     42 H15        -1.4470    2.8080   10.4110 h1        1 1H7      0.101700
     43 H243        2.3140    4.8920    8.2240 hn        1 1H7      0.484800
@<TRIPOS>BOND
     1    1    6 ar  
     2    1    7 ar  
     3    1   28 1   
     4    2    4 1   
     5    2    7 ar  
     6    2    8 ar  
     7    3    6 ar  
     8    3    8 ar  
     9    3   29 1   
    10    4    9 1   
    11    4   10 2   
    12    5    6 1   
    13    5   11 3   
    14    7   30 1   
    15    9   12 1   
    16    9   31 1   
    17   12   13 ar  
    18   12   17 ar  
    19   13   14 ar  
    20   13   32 1   
    21   14   15 ar  
    22   14   33 1   
    23   15   16 ar  
    24   15   27 1   
    25   16   17 ar  
    26   16   18 1   
    27   17   34 1   
    28   18   19 1   
    29   18   23 1   
    30   18   25 1   
    31   19   35 1   
    32   19   36 1   
    33   19   37 1   
    34   20   21 1   
    35   20   25 1   
    36   20   38 1   
    37   20   39 1   
    38   21   22 1   
    39   22   23 2   
    40   22   24 1   
    41   24   40 1   
    42   24   41 1   
    43   24   43 1   
    44   25   26 1   
    45   25   42 1   
@<TRIPOS>SUBSTRUCTURE
     1 1H7         1 TEMP              0 ****  ****    0 ROOT
