@<TRIPOS>MOLECULE
1H7
   42    35     1     0     0
SMALL
bcc


@<TRIPOS>ATOM
      1 C2         -5.1240   -2.9940    1.1860 c1        1 1H7     -0.063000
      2 C4         -2.9300   -2.0920    1.4080 c1        1 1H7     -0.045000
      3 C6         -3.3570   -4.3310    1.9700 c1        1 1H7     -0.032000
      4 C7         -1.9370   -0.9420    1.1480 c1        1 1H7      0.355000
      5 C10        -5.5720   -5.4150    1.6290 c1        1 1H7     -0.101000
      6 C1         -4.6620   -4.1910    1.6400 c1        1 1H7     -0.044000
      7 C3         -4.2730   -1.9420    1.0670 c2        1 1H7     -0.128000
      8 N5         -2.4880   -3.2560    1.8470 n1        1 1H7     -0.135000
      9 N8         -2.3590    0.2170    0.3130 n2        1 1H7     -0.300000
     10 O9         -0.7720   -1.0770    1.4420 o         1 1H7     -0.341000
     11 N11        -6.2570   -6.3440    1.6220 n1        1 1H7     -0.013000
     12 C12        -1.3630    1.1890   -0.1560 c1        1 1H7      0.042000
     13 C13        -1.7480    2.2110   -1.0060 c1        1 1H7     -0.148500
     14 C14        -0.7930    3.0250   -1.5920 c1        1 1H7     -0.148500
     15 C15         0.5410    2.8180   -1.3290 c1        1 1H7      0.077000
     16 C16         0.9200    1.8110   -0.4920 c1        1 1H7     -0.077000
     17 C17        -0.0580    0.9840    0.1030 c2        1 1H7     -0.094000
     18 C18         2.4000    1.4840   -0.3180 c2        1 1H7      0.072000
     19 C19         2.7960    2.1730    0.9880 c3        1 1H7     -0.216000
     20 C20         4.2250    1.7090   -1.8270 c3        1 1H7     -0.048000
     21 O21         4.3500    0.2580   -1.9500 os        1 1H7     -0.254000
     22 C22         3.8020   -0.4860   -0.9800 c2        1 1H7      0.222000
     23 N23         2.4540    0.1750   -0.2660 n2        1 1H7     -0.310000
     24 N24         4.5800   -1.4060   -0.2900 n3        1 1H7     -0.329000
     25 C25         3.1130    2.1070   -1.6220 c3        1 1H7      0.001000
     26 F26         3.1800    3.6410   -1.4460 f         1 1H7     -0.147000
     27 F27         1.5320    3.5890   -2.0120 f         1 1H7     -0.098000
     28 H1         -6.0190   -2.8970    0.9580 ha        1 1H7      0.159000
     29 H2         -3.0480   -5.1340    2.2720 ha        1 1H7      0.178000
     30 H3         -4.5870   -1.1240    0.7590 ha        1 1H7      0.181000
     31 H4         -3.2050    0.3550    0.1620 hn        1 1H7      0.250000
     32 H5         -2.6750    2.3560   -1.1890 ha        1 1H7      0.144000
     33 H6         -1.0460    3.6870   -2.1430 ha        1 1H7      0.144000
     34 H7          0.1910    0.3170    0.6570 ha        1 1H7      0.191000
     35 H8          2.4510    3.0830    0.9930 hc        1 1H7      0.092000
     36 H9          3.7430    2.1930    1.0590 hc        1 1H7      0.092000
     37 H10         2.4060    1.6590    1.7780 hc        1 1H7      0.092000
     38 H11         4.7950    2.0120   -1.0990 h1        1 1H7      0.111000
     39 H12         4.5510    2.1150   -2.6690 h1        1 1H7      0.111000
     40 H13         5.3660   -1.7690   -0.6990 hn        1 1H7      0.221000
     41 H14         4.3440   -1.6630    0.5390 hn        1 1H7      0.221000
     42 H15         2.5290    1.8940   -2.4590 h1        1 1H7      0.118000
@<TRIPOS>BOND
     1    1    7 1   
     2    1   28 1   
     3    2    7 1   
     4    2    8 1   
     5    3    6 1   
     6    3   29 1   
     7    4   10 1   
     8    5   11 1   
     9    7   30 1   
    10    9   12 1   
    11    9   31 1   
    12   12   17 1   
    13   13   14 1   
    14   13   32 1   
    15   14   33 1   
    16   15   16 1   
    17   16   17 1   
    18   17   34 1   
    19   18   19 1   
    20   18   23 1   
    21   18   25 1   
    22   19   35 1   
    23   19   36 1   
    24   19   37 1   
    25   20   21 1   
    26   20   25 1   
    27   20   38 1   
    28   20   39 1   
    29   21   22 1   
    30   22   23 1   
    31   22   24 1   
    32   24   40 1   
    33   24   41 1   
    34   25   26 1   
    35   25   42 1   
@<TRIPOS>SUBSTRUCTURE
     1 1H7         1 TEMP              0 ****  ****    0 ROOT
