@<TRIPOS>MOLECULE
1H7
   44    46     1     0     0
SMALL
bcc


@<TRIPOS>ATOM
      1 C2          0.4090    0.9650    0.4460 ca        1 1H7     -0.065000
      2 C4          0.9830    0.2930    2.6920 ca        1 1H7      0.296800
      3 C6         -0.1770   -1.2040    1.3690 ca        1 1H7      0.449200
      4 C7          1.6300    0.6280    3.9750 c         1 1H7      0.485600
      5 C10        -0.8250   -0.6440   -0.9380 cg        1 1H7      0.172800
      6 C1         -0.1970   -0.2800    0.2790 ca        1 1H7     -0.015300
      7 C3          1.0140    1.2660    1.6770 ca        1 1H7     -0.128300
      8 N5          0.3930   -0.9320    2.5400 nb        1 1H7     -0.681000
      9 N8          1.7110   -0.4660    5.0310 n4        1 1H7     -0.532200
     10 O9          2.1380    1.6940    4.2990 o         1 1H7     -0.444100
     11 N11        -1.3410   -0.9420   -1.9370 n1        1 1H7     -0.225800
     12 C12         0.6430   -0.3370    6.0260 ca        1 1H7     -0.075400
     13 C13        -0.4880   -1.1670    5.9340 ca        1 1H7     -0.045000
     14 C14        -1.4730   -1.0630    6.9020 ca        1 1H7     -0.144000
     15 C15        -1.3460   -0.1420    7.9640 ca        1 1H7      0.211900
     16 C16        -0.2140    0.7150    8.0540 ca        1 1H7     -0.118300
     17 C17         0.7710    0.5980    7.0710 ca        1 1H7     -0.053000
     18 C18        -0.0790    1.6860    9.2230 c3        1 1H7      0.176500
     19 C19        -0.0850    0.8710   10.5350 c3        1 1H7     -0.112100
     20 C20        -1.0470    3.8450   10.2000 c3        1 1H7      0.094400
     21 O21         0.1900    4.5220    9.9090 os        1 1H7     -0.424400
     22 C22         1.2120    3.6710    9.5230 c2        1 1H7      0.678500
     23 N23         1.1870    2.4350    9.1460 n2        1 1H7     -0.591900
     24 N24         2.4660    4.4660    9.5660 n4        1 1H7     -0.792600
     25 C25        -1.3050    2.6900    9.2130 c3        1 1H7      0.127600
     26 F26        -2.4840    2.0670    9.5550 f         1 1H7     -0.177300
     27 F27        -2.3320   -0.1080    8.8790 f         1 1H7     -0.081900
     28 H1          0.4180    1.7080   -0.3720 ha        1 1H7      0.196000
     29 H2         -0.6460   -2.2050    1.2680 h4        1 1H7      0.073100
     30 H3          1.5030    2.2410    1.8410 ha        1 1H7      0.186000
     31 H4          1.6460   -1.3940    4.5880 hn        1 1H7      0.476300
     32 H5         -0.6080   -1.8970    5.1120 ha        1 1H7      0.186000
     33 H6         -2.3710   -1.7080    6.8590 ha        1 1H7      0.202000
     34 H7          1.6710    1.2350    7.1000 ha        1 1H7      0.161000
     35 H8         -1.0880    0.3940   10.6670 hc        1 1H7      0.081033
     36 H9          0.1020    1.5320   11.4160 hc        1 1H7      0.081033
     37 H10         0.6960    0.0750   10.5060 hc        1 1H7      0.081033
     38 H11        -1.0150    3.4810   11.2600 h1        1 1H7      0.122700
     39 H12        -1.8170    4.6590   10.0860 h1        1 1H7      0.122700
     40 H13         2.3420    5.3050    8.9820 hn        1 1H7      0.493133
     41 H14         2.6240    4.7600   10.5420 hn        1 1H7      0.493133
     42 H15        -1.4080    3.1060    8.1680 h1        1 1H7      0.088700
     43 H82         2.6180   -0.3920    5.5110 hn        1 1H7      0.476300
     44 H243        3.2680    3.9160    9.2330 hn        1 1H7      0.493133
@<TRIPOS>BOND
     1    1    6 ar  
     2    1    7 ar  
     3    1   28 1   
     4    2    4 1   
     5    2    7 ar  
     6    2    8 ar  
     7    3    6 ar  
     8    3    8 ar  
     9    3   29 1   
    10    4    9 1   
    11    4   10 2   
    12    5    6 1   
    13    5   11 3   
    14    7   30 1   
    15    9   12 1   
    16    9   31 1   
    17    9   43 1   
    18   12   13 ar  
    19   12   17 ar  
    20   13   14 ar  
    21   13   32 1   
    22   14   15 ar  
    23   14   33 1   
    24   15   16 ar  
    25   15   27 1   
    26   16   17 ar  
    27   16   18 1   
    28   17   34 1   
    29   18   19 1   
    30   18   23 1   
    31   18   25 1   
    32   19   35 1   
    33   19   36 1   
    34   19   37 1   
    35   20   21 1   
    36   20   25 1   
    37   20   38 1   
    38   20   39 1   
    39   21   22 1   
    40   22   23 2   
    41   22   24 1   
    42   24   40 1   
    43   24   41 1   
    44   24   44 1   
    45   25   26 1   
    46   25   42 1   
@<TRIPOS>SUBSTRUCTURE
     1 1H7         1 TEMP              0 ****  ****    0 ROOT
