@<TRIPOS>MOLECULE
1H7
   42    44     1     0     0
SMALL
bcc


@<TRIPOS>ATOM
      1 C2          6.2870    0.5970    0.0990 ca        1 1H7     -0.062000
      2 C4          3.8770    0.4580    0.1840 ca        1 1H7      0.371800
      3 C6          5.0800   -1.4920   -0.0980 ca        1 1H7      0.433200
      4 C7          2.5670    1.2000    0.3550 c         1 1H7      0.574600
      5 C10         7.5350   -1.4970   -0.2050 cg        1 1H7      0.227800
      6 C1          6.3120   -0.7940   -0.0690 ca        1 1H7     -0.112300
      7 C3          5.0520    1.2350    0.2300 ca        1 1H7     -0.193300
      8 N5          3.8900   -0.8890    0.0230 nb        1 1H7     -0.660000
      9 N8          1.4290    0.6100   -0.1560 n         1 1H7     -0.444100
     10 O9          2.5830    2.3150    0.9110 o         1 1H7     -0.589100
     11 N11         8.5390   -2.0750   -0.3170 n1        1 1H7     -0.336800
     12 C12         0.1170    1.1140   -0.0610 ca        1 1H7      0.037600
     13 C13        -0.1680    2.4580    0.2480 ca        1 1H7     -0.122000
     14 C14        -1.4860    2.8890    0.2810 ca        1 1H7     -0.149000
     15 C15        -2.5460    2.0050    0.0140 ca        1 1H7      0.102900
     16 C16        -2.2870    0.6440   -0.2790 ca        1 1H7     -0.084300
     17 C17        -0.9560    0.2280   -0.3210 ca        1 1H7     -0.128000
     18 C18        -3.4270   -0.3320   -0.5830 c3        1 1H7      0.202500
     19 C19        -4.0450    0.0870   -1.9340 c3        1 1H7     -0.088100
     20 C20        -5.3230   -1.4830    0.7080 c3        1 1H7      0.102400
     21 O21        -4.4550   -2.5830    0.9490 os        1 1H7     -0.460400
     22 C22        -3.4210   -2.6800   -0.0050 c2        1 1H7      0.783500
     23 N23        -2.9120   -1.6910   -0.6890 n2        1 1H7     -0.719900
     24 N24        -3.0410   -4.0210   -0.1380 nh        1 1H7     -0.877800
     25 C25        -4.5240   -0.1760    0.5440 c3        1 1H7      0.113600
     26 F26        -5.4130    0.8490    0.2810 f         1 1H7     -0.218300
     27 F27        -3.8070    2.5000    0.0440 f         1 1H7     -0.131900
     28 H1          7.2220    1.1770    0.1300 ha        1 1H7      0.160000
     29 H2          5.0550   -2.5910   -0.2250 h4        1 1H7      0.041100
     30 H3          4.9820    2.3240    0.3790 ha        1 1H7      0.181000
     31 H4          1.5020   -0.3180   -0.5160 hn        1 1H7      0.338500
     32 H5          0.6390    3.1760    0.4660 ha        1 1H7      0.175000
     33 H6         -1.7150    3.9400    0.5140 ha        1 1H7      0.153000
     34 H7         -0.7230   -0.8200   -0.5780 ha        1 1H7      0.157000
     35 H8         -3.3090   -0.0520   -2.7610 hc        1 1H7      0.053033
     36 H9         -4.9540   -0.5250   -2.1440 hc        1 1H7      0.053033
     37 H10        -4.3390    1.1630   -1.8830 hc        1 1H7      0.053033
     38 H11        -5.9440   -1.6800   -0.2050 h1        1 1H7      0.075200
     39 H12        -5.9760   -1.4390    1.6190 h1        1 1H7      0.075200
     40 H13        -3.2960   -4.5880    0.6410 hn        1 1H7      0.418800
     41 H14        -2.1180   -4.1680   -0.4810 hn        1 1H7      0.418800
     42 H15        -3.9950    0.0550    1.5130 h1        1 1H7      0.073700
@<TRIPOS>BOND
     1    1    6 ar  
     2    1    7 ar  
     3    1   28 1   
     4    2    4 1   
     5    2    7 ar  
     6    2    8 ar  
     7    3    6 ar  
     8    3    8 ar  
     9    3   29 1   
    10    4    9 1   
    11    4   10 2   
    12    5    6 1   
    13    5   11 3   
    14    7   30 1   
    15    9   12 1   
    16    9   31 1   
    17   12   13 ar  
    18   12   17 ar  
    19   13   14 ar  
    20   13   32 1   
    21   14   15 ar  
    22   14   33 1   
    23   15   16 ar  
    24   15   27 1   
    25   16   17 ar  
    26   16   18 1   
    27   17   34 1   
    28   18   19 1   
    29   18   23 1   
    30   18   25 1   
    31   19   35 1   
    32   19   36 1   
    33   19   37 1   
    34   20   21 1   
    35   20   25 1   
    36   20   38 1   
    37   20   39 1   
    38   21   22 1   
    39   22   23 2   
    40   22   24 1   
    41   24   40 1   
    42   24   41 1   
    43   25   26 1   
    44   25   42 1   
@<TRIPOS>SUBSTRUCTURE
     1 1H7         1 TEMP              0 ****  ****    0 ROOT
