@<TRIPOS>MOLECULE
1H8
   43    45     1     0     0
SMALL
bcc


@<TRIPOS>ATOM
      1 C1         -0.1000   -0.1380   -0.0690 ca        1 1H8     -0.093300
      2 C2          1.2070   -0.6690    0.0840 ca        1 1H8      0.430200
      3 N3          1.9400   -0.5100    1.1940 nb        1 1H8     -0.672000
      4 C4          1.3930    0.2000    2.2150 ca        1 1H8      0.359800
      5 C5          0.1060    0.7670    2.1520 ca        1 1H8     -0.181300
      6 C6         -0.6520    0.5920    0.9900 ca        1 1H8     -0.058000
      7 C10        -0.8150   -0.3500   -1.2740 cg        1 1H8      0.214800
      8 C14         5.3290   -1.0240    4.8080 ca        1 1H8     -0.150000
      9 C15         4.6280    0.3530    7.1230 ca        1 1H8     -0.124000
     10 C16         4.0870   -0.3460    4.8690 ca        1 1H8      0.071600
     11 C17         3.7540    0.3530    6.0490 ca        1 1H8     -0.110000
     12 C19         7.5630   -1.7460    5.8080 c3        1 1H8      0.214500
     13 C23        10.0630   -1.2430    5.8620 c3        1 1H8      0.136400
     14 C25         8.9960   -2.0600    3.9260 c2        1 1H8      0.655500
     15 C7          2.1760    0.4380    3.4850 c         1 1H8      0.581600
     16 O8          1.8470    1.3670    4.2430 o         1 1H8     -0.570100
     17 N9          3.2300   -0.4230    3.7610 n         1 1H8     -0.458100
     18 N11        -1.4010   -0.5250   -2.2640 n1        1 1H8     -0.311800
     19 C12         6.2270   -1.0150    5.8770 ca        1 1H8     -0.104300
     20 C13         5.8570   -0.3310    7.0570 ca        1 1H8      0.099900
     21 F18         6.6530   -0.3170    8.1560 f         1 1H8     -0.141900
     22 C20         7.4900   -2.9620    6.7560 c3        1 1H8     -0.098100
     23 N21         7.8250   -2.2270    4.4370 n2        1 1H8     -0.567900
     24 C22         8.6850   -0.7890    6.2860 c3        1 1H8     -0.160400
     25 O24        10.1450   -1.4750    4.4320 os        1 1H8     -0.446400
     26 N26         9.3150   -2.5080    2.5430 n4        1 1H8     -0.793600
     27 H1          1.6790   -1.2490   -0.7310 h4        1 1H8      0.041100
     28 H2         -0.2830    1.3450    3.0060 ha        1 1H8      0.184000
     29 H3         -1.6620    1.0230    0.9120 ha        1 1H8      0.170000
     30 H6          2.8000    0.9050    6.1320 ha        1 1H8      0.191000
     31 H7         10.8380   -0.4440    6.0230 h1        1 1H8      0.094200
     32 H8         10.3680   -2.1960    6.3690 h1        1 1H8      0.094200
     33 H9          3.4700   -1.1050    3.0750 hn        1 1H8      0.337500
     34 H10         6.7110   -3.6850    6.4160 hc        1 1H8      0.067033
     35 H11         7.2160   -2.5980    7.7770 hc        1 1H8      0.067033
     36 H12         8.4770   -3.4800    6.8100 hc        1 1H8      0.067033
     37 H13         8.4810    0.2410    5.8920 hc        1 1H8      0.105700
     38 H14         8.6690   -0.7320    7.4080 hc        1 1H8      0.105700
     39 H15         9.4880   -1.6730    1.9690 hn        1 1H8      0.482467
     40 H16         8.5400   -3.0540    2.1460 hn        1 1H8      0.482467
     41 H4          5.5690   -1.5840    3.8910 ha        1 1H8      0.137000
     42 H263       10.1700   -3.0770    2.5770 hn        1 1H8      0.482467
     43 H5          4.3650    0.8860    8.0520 ha        1 1H8      0.170000
@<TRIPOS>BOND
     1    1    2 ar  
     2    1    6 ar  
     3    1    7 1   
     4    2    3 ar  
     5    2   27 1   
     6    3    4 ar  
     7    4    5 ar  
     8    4   15 1   
     9    5    6 ar  
    10    5   28 1   
    11    6   29 1   
    12    7   18 3   
    13    8   10 ar  
    14    8   19 ar  
    15    8   41 1   
    16    9   11 ar  
    17    9   20 ar  
    18    9   43 1   
    19   10   11 ar  
    20   10   17 1   
    21   11   30 1   
    22   12   19 1   
    23   12   22 1   
    24   12   23 1   
    25   12   24 1   
    26   13   24 1   
    27   13   25 1   
    28   13   31 1   
    29   13   32 1   
    30   14   23 2   
    31   14   25 1   
    32   14   26 1   
    33   15   16 2   
    34   15   17 1   
    35   17   33 1   
    36   19   20 ar  
    37   20   21 1   
    38   22   34 1   
    39   22   35 1   
    40   22   36 1   
    41   24   37 1   
    42   24   38 1   
    43   26   39 1   
    44   26   40 1   
    45   26   42 1   
@<TRIPOS>SUBSTRUCTURE
     1 1H8         1 TEMP              0 ****  ****    0 ROOT
