@<TRIPOS>MOLECULE
1H8
   43    45     1     0     0
SMALL
bcc


@<TRIPOS>ATOM
      1 C1          0.0000    0.0000    0.0000 ca        1 1H8     -0.033300
      2 C2          1.4000    0.0000    0.0000 ca        1 1H8      0.419200
      3 N3          2.0700    0.0000    1.1290 nb        1 1H8     -0.578000
      4 C4          1.4570   -0.0000    2.3070 ca        1 1H8      0.327800
      5 C5          0.0650    0.0010    2.3890 ca        1 1H8     -0.142300
      6 C6         -0.6790    0.0060    1.2230 ca        1 1H8     -0.065000
      7 C10        -0.7250    0.0010   -1.2340 cg        1 1H8      0.203800
      8 C14         5.5690   -0.8070    4.6430 ca        1 1H8     -0.121000
      9 C15         4.6770    0.3860    6.9790 ca        1 1H8     -0.061000
     10 C16         4.3690   -0.1080    4.6520 ca        1 1H8     -0.049400
     11 C17         3.9240    0.4880    5.8250 ca        1 1H8     -0.042000
     12 C19         7.6180   -1.6690    5.7900 c3        1 1H8      0.212500
     13 C23        10.0880   -1.4190    5.8650 c3        1 1H8      0.167400
     14 C25         9.0230   -2.1670    3.8810 c2        1 1H8      0.410500
     15 C7          2.2620   -0.0050    3.5510 c         1 1H8      0.495600
     16 O8          1.7090   -0.0090    4.6330 o         1 1H8     -0.610100
     17 N9          3.6080   -0.0060    3.4830 ns        1 1H8     -0.043100
     18 N11        -1.3110    0.0160   -2.2080 n1        1 1H8     -0.328800
     19 C12         6.3150   -0.9120    5.8000 ca        1 1H8     -0.169300
     20 C13         5.8680   -0.3200    6.9690 ca        1 1H8      0.099900
     21 F18         6.6480   -1.1260    7.9270 f         1 1H8     -0.136900
     22 C20         7.5390   -2.8310    6.7820 c3        1 1H8     -0.190100
     23 N21         7.8660   -2.1920    4.4480 n2        1 1H8     -0.442900
     24 C22         8.7570   -0.7290    6.1970 c3        1 1H8     -0.100400
     25 O24        10.1250   -1.6500    4.4530 os        1 1H8     -0.403400
     26 N26         9.4860   -3.1250    2.7620 nz        1 1H8      0.085400
     27 H1          2.0000    0.0640   -0.8990 h4        1 1H8     -0.004900
     28 H2         -0.5960    0.0310    3.2470 ha        1 1H8      0.143000
     29 H3         -1.7520   -0.0860    1.3460 ha        1 1H8      0.132000
     30 H6          3.1420    1.2180    5.9950 ha        1 1H8      0.150000
     31 H7         10.8760   -0.7350    6.1540 h1        1 1H8      0.057700
     32 H8         10.1950   -2.0450    6.7420 h1        1 1H8      0.057700
     33 H9          4.1730    0.5110    2.8390 hn        1 1H8      0.185500
     34 H10         6.7730   -3.2510    6.1420 hc        1 1H8      0.080033
     35 H11         8.3820   -3.4320    7.1020 hc        1 1H8      0.080033
     36 H12         6.9660   -2.3010    7.5340 hc        1 1H8      0.080033
     37 H13         8.6730   -0.1430    5.2900 hc        1 1H8      0.052200
     38 H14         8.8440   -0.0360    7.0250 hc        1 1H8      0.052200
     39 H15         8.8380   -3.8100    3.0960 hn        1 1H8      0.253467
     40 H16        10.4500   -3.3940    2.7600 hn        1 1H8      0.253467
     41 H4          6.0740   -1.5320    4.0160 ha        1 1H8      0.139000
     42 H263        9.2290   -2.5220    2.0060 hn        1 1H8      0.253467
     43 H5          4.5940    0.8680    7.9450 ha        1 1H8      0.130000
@<TRIPOS>BOND
     1    1    2 ar  
     2    1    6 ar  
     3    1    7 1   
     4    2    3 ar  
     5    2   27 1   
     6    3    4 ar  
     7    4    5 ar  
     8    4   15 1   
     9    5    6 ar  
    10    5   28 1   
    11    6   29 1   
    12    7   18 3   
    13    8   10 ar  
    14    8   19 ar  
    15    8   41 1   
    16    9   11 ar  
    17    9   20 ar  
    18    9   43 1   
    19   10   11 ar  
    20   10   17 1   
    21   11   30 1   
    22   12   19 1   
    23   12   22 1   
    24   12   23 1   
    25   12   24 1   
    26   13   24 1   
    27   13   25 1   
    28   13   31 1   
    29   13   32 1   
    30   14   23 2   
    31   14   25 1   
    32   14   26 1   
    33   15   16 2   
    34   15   17 1   
    35   17   33 1   
    36   19   20 ar  
    37   20   21 1   
    38   22   34 1   
    39   22   35 1   
    40   22   36 1   
    41   24   37 1   
    42   24   38 1   
    43   26   39 1   
    44   26   40 1   
    45   26   42 1   
@<TRIPOS>SUBSTRUCTURE
     1 1H8         1 TEMP              0 ****  ****    0 ROOT
