@<TRIPOS>MOLECULE
1H8
   44    46     1     0     0
SMALL
bcc


@<TRIPOS>ATOM
      1 C1         -0.5710    0.1590    1.7540 ca        1 1H8     -0.016300
      2 C2          0.4120    1.1300    2.1190 ca        1 1H8      0.448200
      3 N3          1.7190    0.8810    2.1010 nb        1 1H8     -0.681000
      4 C4          2.1240   -0.3650    1.7110 ca        1 1H8      0.297800
      5 C5          1.2320   -1.3850    1.3330 ca        1 1H8     -0.128300
      6 C6         -0.1440   -1.1090    1.3580 ca        1 1H8     -0.064000
      7 C10        -1.9450    0.5000    1.8010 cg        1 1H8      0.173800
      8 C14         5.8450   -0.5390    3.8770 ca        1 1H8     -0.059000
      9 C15         4.7380    1.3350    5.6360 ca        1 1H8     -0.140000
     10 C16         4.9240    0.4230    3.4200 ca        1 1H8     -0.069400
     11 C17         4.3680    1.3680    4.3000 ca        1 1H8     -0.049000
     12 C19         7.2040   -1.6290    5.7500 c3        1 1H8      0.207500
     13 C23         9.4530   -1.8740    6.9080 c3        1 1H8      0.135400
     14 C25         9.0370   -2.7770    4.7560 c2        1 1H8      0.686500
     15 C7          3.5660   -0.6770    1.6700 c         1 1H8      0.483600
     16 O8          4.0950   -1.7400    1.3750 o         1 1H8     -0.434100
     17 N9          4.5400    0.4470    2.0060 n4        1 1H8     -0.533200
     18 N11        -3.0740    0.7800    1.8390 n1        1 1H8     -0.227800
     19 C12         6.2360   -0.5750    5.2170 ca        1 1H8     -0.104300
     20 C13         5.6550    0.3710    6.1050 ca        1 1H8      0.195900
     21 F18         5.9450    0.3760    7.4220 f         1 1H8     -0.099900
     22 C20         6.3900   -2.5830    6.6530 c3        1 1H8     -0.106100
     23 N21         7.8030   -2.4070    4.6470 n2        1 1H8     -0.603900
     24 C22         8.3050   -0.9390    6.5960 c3        1 1H8     -0.160400
     25 O24         9.9890   -2.5060    5.7180 os        1 1H8     -0.435400
     26 N26         9.7040   -3.6230    3.7310 n4        1 1H8     -0.795600
     27 H1          0.1060    2.1490    2.4340 h4        1 1H8      0.071100
     28 H2          1.6020   -2.3770    1.0220 ha        1 1H8      0.188000
     29 H3         -0.8710   -1.8880    1.0640 ha        1 1H8      0.196000
     30 H6          3.6410    2.1260    3.9570 ha        1 1H8      0.185000
     31 H7          9.1490   -2.6990    7.6060 h1        1 1H8      0.109200
     32 H8         10.3450   -1.3220    7.3160 h1        1 1H8      0.109200
     33 H9          5.3870    0.3270    1.4330 hn        1 1H8      0.474300
     34 H10         5.9120   -1.9890    7.4700 hc        1 1H8      0.073367
     35 H11         7.0560   -3.3500    7.1170 hc        1 1H8      0.073367
     36 H12         5.5910   -3.1000    6.0690 hc        1 1H8      0.073367
     37 H13         8.6810   -0.0340    6.0510 hc        1 1H8      0.105200
     38 H14         7.8740   -0.5970    7.5750 hc        1 1H8      0.105200
     39 H15        10.0350   -4.4830    4.1930 hn        1 1H8      0.490467
     40 H16        10.5180   -3.1100    3.3640 hn        1 1H8      0.490467
     41 H4          6.2360   -1.2830    3.1600 ha        1 1H8      0.168000
     42 H92         4.1160    1.3600    1.7860 hn        1 1H8      0.474300
     43 H263        9.0600   -3.8610    2.9670 hn        1 1H8      0.490467
     44 H5          4.3110    2.0620    6.3520 ha        1 1H8      0.201000
@<TRIPOS>BOND
     1    1    2 ar  
     2    1    6 ar  
     3    1    7 1   
     4    2    3 ar  
     5    2   27 1   
     6    3    4 ar  
     7    4    5 ar  
     8    4   15 1   
     9    5    6 ar  
    10    5   28 1   
    11    6   29 1   
    12    7   18 3   
    13    8   10 ar  
    14    8   19 ar  
    15    8   41 1   
    16    9   11 ar  
    17    9   20 ar  
    18    9   44 1   
    19   10   11 ar  
    20   10   17 1   
    21   11   30 1   
    22   12   19 1   
    23   12   22 1   
    24   12   23 1   
    25   12   24 1   
    26   13   24 1   
    27   13   25 1   
    28   13   31 1   
    29   13   32 1   
    30   14   23 2   
    31   14   25 1   
    32   14   26 1   
    33   15   16 2   
    34   15   17 1   
    35   17   33 1   
    36   17   42 1   
    37   19   20 ar  
    38   20   21 1   
    39   22   34 1   
    40   22   35 1   
    41   22   36 1   
    42   24   37 1   
    43   24   38 1   
    44   26   39 1   
    45   26   40 1   
    46   26   43 1   
@<TRIPOS>SUBSTRUCTURE
     1 1H8         1 TEMP              0 ****  ****    0 ROOT
