@<TRIPOS>MOLECULE
1H8
   42    44     1     0     0
SMALL
bcc


@<TRIPOS>ATOM
      1 C1         -6.0680    0.8910   -0.0400 ca        1 1H8     -0.113300
      2 C2         -4.8170    1.5520    0.0260 ca        1 1H8      0.433200
      3 N3         -3.6470    0.9050    0.1150 nb        1 1H8     -0.658000
      4 C4         -3.6740   -0.4510    0.1480 ca        1 1H8      0.371800
      5 C5         -4.8720   -1.1930    0.0920 ca        1 1H8     -0.193300
      6 C6         -6.0850   -0.5090   -0.0050 ca        1 1H8     -0.063000
      7 C10        -7.2680    1.6390   -0.1370 cg        1 1H8      0.228800
      8 C14         1.1750   -0.3050   -0.2490 ca        1 1H8     -0.128000
      9 C15         1.6360   -3.0040    0.2320 ca        1 1H8     -0.146000
     10 C16         0.0780   -1.1770   -0.0410 ca        1 1H8      0.042600
     11 C17         0.3290   -2.5410    0.2030 ca        1 1H8     -0.130000
     12 C19         3.6630    0.2020   -0.4530 c3        1 1H8      0.221500
     13 C23         5.6150    1.2100    0.7830 c3        1 1H8      0.136400
     14 C25         3.7980    2.5550    0.0150 c2        1 1H8      0.789500
     15 C7         -2.3900   -1.2460    0.2760 c         1 1H8      0.575600
     16 O8         -2.4580   -2.4190    0.6920 o         1 1H8     -0.591100
     17 N9         -1.2180   -0.6320   -0.1160 n         1 1H8     -0.442100
     18 N11        -8.2520    2.2540   -0.2160 n1        1 1H8     -0.338800
     19 C12         2.4940   -0.7560   -0.2180 ca        1 1H8     -0.068300
     20 C13         2.7190   -2.1330    0.0220 ca        1 1H8      0.092900
     21 F18         3.9690   -2.6630    0.0570 f         1 1H8     -0.148900
     22 C20         4.3710   -0.2440   -1.7520 c3        1 1H8     -0.093100
     23 N21         3.1890    1.5760   -0.6030 n2        1 1H8     -0.729900
     24 C22         4.6480    0.0490    0.7320 c3        1 1H8     -0.147400
     25 O24         4.9580    2.4790    0.8050 os        1 1H8     -0.467400
     26 N26         3.3290    3.8770    0.0450 nh        1 1H8     -0.883800
     27 H1         -4.7580    2.6570    0.0060 h4        1 1H8      0.041100
     28 H2         -4.8340   -2.2940    0.1370 ha        1 1H8      0.181000
     29 H3         -7.0360   -1.0620   -0.0510 ha        1 1H8      0.159000
     30 H5          1.8370   -4.0700    0.4210 ha        1 1H8      0.150000
     31 H6         -0.4960   -3.2520    0.3740 ha        1 1H8      0.176000
     32 H7          6.2140    1.2040    1.7330 h1        1 1H8      0.058700
     33 H8          6.3070    1.1980   -0.1020 h1        1 1H8      0.058700
     34 H9         -1.2560    0.3340   -0.3670 hn        1 1H8      0.340500
     35 H10         3.6770   -0.1610   -2.6210 hc        1 1H8      0.046033
     36 H11         5.2660    0.3940   -1.9430 hc        1 1H8      0.046033
     37 H12         4.7010   -1.3050   -1.6540 hc        1 1H8      0.046033
     38 H13         4.0670   -0.0020    1.6890 hc        1 1H8      0.074700
     39 H14         5.2290   -0.9020    0.6270 hc        1 1H8      0.074700
     40 H15         2.7320    4.1300   -0.7100 hn        1 1H8      0.416800
     41 H16         4.0300    4.5470    0.2720 hn        1 1H8      0.416800
     42 H4          0.9740    0.7620   -0.4460 ha        1 1H8      0.163000
@<TRIPOS>BOND
     1    1    2 ar  
     2    1    6 ar  
     3    1    7 1   
     4    2    3 ar  
     5    2   27 1   
     6    3    4 ar  
     7    4    5 ar  
     8    4   15 1   
     9    5    6 ar  
    10    5   28 1   
    11    6   29 1   
    12    7   18 3   
    13    8   10 ar  
    14    8   19 ar  
    15    8   42 1   
    16    9   11 ar  
    17    9   20 ar  
    18    9   30 1   
    19   10   11 ar  
    20   10   17 1   
    21   11   31 1   
    22   12   19 1   
    23   12   22 1   
    24   12   23 1   
    25   12   24 1   
    26   13   24 1   
    27   13   25 1   
    28   13   32 1   
    29   13   33 1   
    30   14   23 2   
    31   14   25 1   
    32   14   26 1   
    33   15   16 2   
    34   15   17 1   
    35   17   34 1   
    36   19   20 ar  
    37   20   21 1   
    38   22   35 1   
    39   22   36 1   
    40   22   37 1   
    41   24   38 1   
    42   24   39 1   
    43   26   40 1   
    44   26   41 1   
@<TRIPOS>SUBSTRUCTURE
     1 1H8         1 TEMP              0 ****  ****    0 ROOT
