@<TRIPOS>MOLECULE
1HB
   27    25     1     0     0
SMALL
bcc


@<TRIPOS>ATOM
      1 C          -2.6370    1.2300   -1.7820 c3        1 1HB     -0.064000
      2 CD          1.0400   -0.0830    1.1960 c1        1 1HB      0.301000
      3 CG          0.0430   -0.4090    0.1050 c3        1 1HB     -0.167000
      4 N          -0.3750    1.8890   -2.2150 n3        1 1HB     -0.332000
      5 OE1         1.1890    1.0670    1.5570 o         1 1HB     -0.377000
      6 NE2         1.7940   -1.1210    1.8020 n2        1 1HB     -0.343000
      7 CH1         2.8850   -0.8010    2.6600 c3        1 1HB     -0.074000
      8 CH2         1.4450   -2.4820    1.5720 c3        1 1HB     -0.074000
      9 CA         -1.1760    0.8800   -1.6120 c3        1 1HB     -0.034000
     10 CB         -0.8480    0.7890   -0.1390 c3        1 1HB     -0.148000
     11 O          -3.0340    0.9600   -3.1080 oh        1 1HB     -0.337000
     12 H1          0.5220   -0.6330   -0.7180 hc        1 1HB      0.113000
     13 H2         -0.5040   -1.1720    0.3810 hc        1 1HB      0.113000
     14 H3         -0.8840    2.6350   -2.3640 hn        1 1HB      0.148500
     15 H4         -0.0440    1.5810   -3.0110 hn        1 1HB      0.148500
     16 H6          2.7070    0.0530    3.1100 h1        1 1HB      0.080833
     17 H7          2.9920   -1.5090    3.3310 h1        1 1HB      0.080833
     18 H8          3.7070   -0.7250    2.1290 h1        1 1HB      0.080833
     19 H9          0.7950   -2.7710    2.2490 h1        1 1HB      0.080833
     20 H10         2.2490   -3.0400    1.6320 h1        1 1HB      0.080833
     21 H11         1.0490   -2.5710    0.6790 h1        1 1HB      0.080833
     22 H12        -0.9950    0.0210   -2.0410 h1        1 1HB      0.107000
     23 H13        -1.6750    0.6900    0.3740 hc        1 1HB      0.098500
     24 H14        -0.3840    1.6020    0.1430 hc        1 1HB      0.098500
     25 H15        -3.9160    1.0470   -3.1760 ho        1 1HB      0.204000
     26 H16        -2.7700    2.1810   -1.5880 h1        1 1HB      0.068000
     27 H17        -3.1750    0.6920   -1.1640 h1        1 1HB      0.068000
@<TRIPOS>BOND
     1    1    9 1   
     2    1   11 1   
     3    1   26 1   
     4    1   27 1   
     5    2    3 1   
     6    2    5 1   
     7    3   10 1   
     8    3   12 1   
     9    3   13 1   
    10    4    9 1   
    11    4   14 1   
    12    4   15 1   
    13    6    7 1   
    14    6    8 1   
    15    7   16 1   
    16    7   17 1   
    17    7   18 1   
    18    8   19 1   
    19    8   20 1   
    20    8   21 1   
    21    9   10 1   
    22    9   22 1   
    23   10   23 1   
    24   10   24 1   
    25   11   25 1   
@<TRIPOS>SUBSTRUCTURE
     1 1HB         1 TEMP              0 ****  ****    0 ROOT
