@<TRIPOS>MOLECULE
1HB
   27    26     1     0     0
SMALL
bcc


@<TRIPOS>ATOM
      1 C           3.2760   -0.8430    0.2040 c3        1 1HB      0.141400
      2 CD         -1.6640   -0.4310   -0.1510 c         1 1HB      0.658100
      3 CG         -0.3720    0.3580   -0.0350 c3        1 1HB     -0.146400
      4 N           2.4640    1.1800   -0.9610 n3        1 1HB     -0.911800
      5 OE1        -1.6650   -1.6360   -0.4750 o         1 1HB     -0.606100
      6 NE2        -2.8620    0.2340    0.0830 n         1 1HB     -0.483800
      7 CH1        -4.1110   -0.4730    0.0540 c3        1 1HB      0.080800
      8 CH2        -2.8790    1.5900    0.5440 c3        1 1HB      0.080800
      9 CA          2.1440    0.1990    0.0590 c3        1 1HB      0.117500
     10 CB          0.8250   -0.5590   -0.1410 c3        1 1HB     -0.112400
     11 O           4.4400   -0.2800    0.7670 oh        1 1HB     -0.600800
     12 H1         -0.3570    1.1250   -0.8540 hc        1 1HB      0.061200
     13 H2         -0.3480    0.9020    0.9470 hc        1 1HB      0.061200
     14 H3          2.5150    0.7500   -1.8640 hn        1 1HB      0.349300
     15 H4          1.7680    1.8990   -0.9820 hn        1 1HB      0.349300
     16 H6         -4.5660   -0.5060    1.0810 h1        1 1HB      0.042200
     17 H7         -4.8240    0.0510   -0.6380 h1        1 1HB      0.042200
     18 H8         -3.9540   -1.5240   -0.3090 h1        1 1HB      0.042200
     19 H9         -2.2280    2.2330   -0.1080 h1        1 1HB      0.042200
     20 H10        -3.9260    1.9910    0.5080 h1        1 1HB      0.042200
     21 H11        -2.5050    1.6630    1.6030 h1        1 1HB      0.042200
     22 H12         2.0850    0.7620    1.0400 h1        1 1HB      0.069700
     23 H13         0.7400   -1.3610    0.6390 hc        1 1HB      0.066700
     24 H14         0.8170   -1.0760   -1.1370 hc        1 1HB      0.066700
     25 H15         4.7080    0.4610    0.2090 ho        1 1HB      0.414000
     26 H16         2.9650   -1.6370    0.9340 h1        1 1HB      0.046700
     27 H17         3.5090   -1.3170   -0.7860 h1        1 1HB      0.046700
@<TRIPOS>BOND
     1    1    9 1   
     2    1   11 1   
     3    1   26 1   
     4    1   27 1   
     5    2    3 1   
     6    2    5 2   
     7    2    6 1   
     8    3   10 1   
     9    3   12 1   
    10    3   13 1   
    11    4    9 1   
    12    4   14 1   
    13    4   15 1   
    14    6    7 1   
    15    6    8 1   
    16    7   16 1   
    17    7   17 1   
    18    7   18 1   
    19    8   19 1   
    20    8   20 1   
    21    8   21 1   
    22    9   10 1   
    23    9   22 1   
    24   10   23 1   
    25   10   24 1   
    26   11   25 1   
@<TRIPOS>SUBSTRUCTURE
     1 1HB         1 TEMP              0 ****  ****    0 ROOT
