@<TRIPOS>MOLECULE
1HC
   11    10     1     0     0
SMALL
bcc


@<TRIPOS>ATOM
      1 C3         -0.0540    0.0020   -0.0390 c2        1 1HC      0.001000
      2 C2          1.2870    0.0020    0.0320 ce        1 1HC     -0.309200
      3 C1          1.9580   -0.0010    1.3240 c         1 1HC      0.559300
      4 O           1.5050   -0.0030    2.4580 o         1 1HC     -0.407100
      5 N           3.4810   -0.0010    1.2650 n4        1 1HC     -0.762400
      6 H1         -0.7040   -0.0010    0.8530 ha        1 1HC      0.169000
      7 H2         -0.5740    0.0040   -1.0130 ha        1 1HC      0.169000
      8 H3          1.9110    0.0040   -0.8780 ha        1 1HC      0.171000
      9 H4          3.8090   -0.8340    0.7680 hn        1 1HC      0.469800
     10 H5          3.8670   -0.0030    2.2180 hn        1 1HC      0.469800
     11 HN3         3.8100    0.8320    0.7700 hn        1 1HC      0.469800
@<TRIPOS>BOND
     1    1    2 2   
     2    1    6 1   
     3    1    7 1   
     4    2    3 1   
     5    2    8 1   
     6    3    4 2   
     7    3    5 1   
     8    5    9 1   
     9    5   10 1   
    10    5   11 1   
@<TRIPOS>SUBSTRUCTURE
     1 1HC         1 TEMP              0 ****  ****    0 ROOT
