@<TRIPOS>MOLECULE
1HD
   21    19     1     0     0
SMALL
bcc


@<TRIPOS>ATOM
      1 C          -2.2870    0.4080   -0.9550 c3        1 1HD     -0.061000
      2 CD          1.6930   -0.3920    1.7420 c1        1 1HD      0.298000
      3 N          -0.2590    1.4720   -1.6670 n3        1 1HD     -0.345000
      4 OE1         1.3570    0.3150    2.6490 o         1 1HD     -0.371000
      5 CA         -0.7870    0.3420   -0.9520 c3        1 1HD     -0.060000
      6 CB         -0.2830    0.3680    0.4600 c3        1 1HD     -0.044000
      7 C1          2.8540   -1.3320    1.9140 c3        1 1HD     -0.243000
      8 N1          0.9340   -0.4190    0.5570 n2        1 1HD     -0.340000
      9 O1         -2.7730    0.0020   -2.2470 oh        1 1HD     -0.332000
     10 H1         -0.9250    1.8430   -2.1940 hn        1 1HD      0.160500
     11 H2          0.4280    1.2040   -2.1920 hn        1 1HD      0.160500
     12 H4         -0.4990   -0.4820   -1.3860 h1        1 1HD      0.106000
     13 H5         -0.9570   -0.0030    1.0530 h1        1 1HD      0.103500
     14 H6         -0.0970    1.2810    0.7160 h1        1 1HD      0.103500
     15 H7          3.2530   -1.2050    2.8280 hc        1 1HD      0.106000
     16 H8          2.5420   -2.2670    1.8180 hc        1 1HD      0.106000
     17 H9          3.5350   -1.1410    1.2280 hc        1 1HD      0.106000
     18 H10         1.1660   -1.0010   -0.1280 hn        1 1HD      0.208000
     19 H11        -3.6740   -0.1410   -2.2050 ho        1 1HD      0.203000
     20 H12        -2.6420   -0.1880   -0.2700 h1        1 1HD      0.067500
     21 H13        -2.5770    1.3350   -0.7680 h1        1 1HD      0.067500
@<TRIPOS>BOND
     1    1    5 1   
     2    1    9 1   
     3    1   20 1   
     4    1   21 1   
     5    2    4 1   
     6    2    7 1   
     7    3    5 1   
     8    3   10 1   
     9    3   11 1   
    10    5    6 1   
    11    5   12 1   
    12    6    8 1   
    13    6   13 1   
    14    6   14 1   
    15    7   15 1   
    16    7   16 1   
    17    7   17 1   
    18    8   18 1   
    19    9   19 1   
@<TRIPOS>SUBSTRUCTURE
     1 1HD         1 TEMP              0 ****  ****    0 ROOT
