@<TRIPOS>MOLECULE
1HD
   21    20     1     0     0
SMALL
bcc


@<TRIPOS>ATOM
      1 C           2.5100   -0.7840   -0.0110 c3        1 1HD      0.142400
      2 CD         -1.9850    0.3390   -0.2650 c         1 1HD      0.652100
      3 N           1.0900    0.9960   -0.9770 n3        1 1HD     -0.903800
      4 OE1        -1.6820    0.1710   -1.4640 o         1 1HD     -0.618100
      5 CA          1.2740    0.1230    0.1630 c3        1 1HD      0.099500
      6 CB          0.0700   -0.8080    0.4800 c3        1 1HD      0.055000
      7 C1         -3.2640    1.0290    0.1400 c3        1 1HD     -0.175100
      8 N1         -1.1640   -0.1290    0.7450 n         1 1HD     -0.576900
      9 O1          3.7120   -0.0510    0.0800 oh        1 1HD     -0.600800
     10 H1          0.8190    0.4660   -1.7850 hn        1 1HD      0.358300
     11 H2          0.3680    1.6640   -0.7890 hn        1 1HD      0.358300
     12 H4          1.4670    0.7840    1.0610 h1        1 1HD      0.066700
     13 H5         -0.0850   -1.5000   -0.3990 h1        1 1HD      0.061700
     14 H6          0.3290   -1.4270    1.3840 h1        1 1HD      0.061700
     15 H7         -3.9180    0.3300    0.7140 hc        1 1HD      0.068033
     16 H8         -3.0460    1.9250    0.7690 hc        1 1HD      0.068033
     17 H9         -3.8030    1.3550   -0.7830 hc        1 1HD      0.068033
     18 H10        -1.3550    0.1360    1.6800 hn        1 1HD      0.310500
     19 H11         3.6800    0.6460   -0.5880 ho        1 1HD      0.417000
     20 H12         2.5640   -1.5200    0.8350 h1        1 1HD      0.043700
     21 H13         2.4640   -1.3380   -0.9870 h1        1 1HD      0.043700
@<TRIPOS>BOND
     1    1    5 1   
     2    1    9 1   
     3    1   20 1   
     4    1   21 1   
     5    2    4 2   
     6    2    7 1   
     7    2    8 1   
     8    3    5 1   
     9    3   10 1   
    10    3   11 1   
    11    5    6 1   
    12    5   12 1   
    13    6    8 1   
    14    6   13 1   
    15    6   14 1   
    16    7   15 1   
    17    7   16 1   
    18    7   17 1   
    19    8   18 1   
    20    9   19 1   
@<TRIPOS>SUBSTRUCTURE
     1 1HD         1 TEMP              0 ****  ****    0 ROOT
