@<TRIPOS>MOLECULE
1HF
   37    40     1     0     0
SMALL
bcc


@<TRIPOS>ATOM
      1 C9          0.2460   -0.4710   -0.0170 cc        1 1HF     -0.116600
      2 C10        -0.5780   -0.0750   -1.0050 cf        1 1HF     -0.134800
      3 C13         1.1380    0.9310   -3.9980 cd        1 1HF      0.258600
      4 C6          5.2530   -0.9580    2.6310 cc        1 1HF      0.478900
      5 C4          4.5320   -0.0690    4.9780 ca        1 1HF      0.050000
      6 C3          5.0030    0.5080    6.1650 ca        1 1HF     -0.286500
      7 N1          3.0150   -1.4120    2.4630 nf        1 1HF     -0.419700
      8 C2          6.3560    0.7840    6.3150 ca        1 1HF      0.012000
      9 C           6.8270   -0.0830    4.1410 ca        1 1HF      0.074600
     10 C1          7.2960    0.4930    5.3130 ca        1 1HF     -0.205000
     11 C5          5.4250   -0.3660    3.9640 ca        1 1HF     -0.272900
     12 N           4.2350   -1.3680    1.9300 nf        1 1HF     -0.379700
     13 C7          1.9690   -1.1510    1.7120 cc        1 1HF      0.482800
     14 C8          6.6750   -1.0290    2.0400 c         1 1HF      0.616200
     15 O           7.0340   -1.4780    0.9470 o         1 1HF     -0.596500
     16 N2          7.5430   -0.4600    2.9840 n         1 1HF     -0.486100
     17 S           1.9400   -0.5650    0.0390 ss        1 1HF     -0.062800
     18 C11        -0.2320    0.3870   -2.3110 cd        1 1HF      0.276500
     19 C12        -0.3400   -0.9190    1.2880 c         1 1HF      0.704700
     20 O1         -1.5480   -0.9740    1.5600 o         1 1HF     -0.595500
     21 N3          0.6530   -1.3070    2.1920 n         1 1HF     -0.481400
     22 O2          1.1180    0.4500   -2.6950 os        1 1HF     -0.343800
     23 C14        -0.1490    1.1700   -4.4450 cc        1 1HF     -0.276300
     24 C15        -1.0320    0.8210   -3.3620 cc        1 1HF     -0.228300
     25 S1          3.8620    0.8870    7.4860 s6        1 1HF      1.462100
     26 O3          2.6140    1.0100    6.8350 o         1 1HF     -0.741533
     27 O4          3.9460   -0.2160    8.3600 o         1 1HF     -0.741533
     28 O5          4.3620    2.0870    8.0370 o         1 1HF     -0.741533
     29 H9         -1.6720   -0.0940   -0.8150 ha        1 1HF      0.166000
     30 H12         2.1340    1.0320   -4.4220 h4        1 1HF      0.057100
     31 H4          3.4500   -0.2650    4.8750 ha        1 1HF      0.171000
     32 H6          6.7000    1.2600    7.2500 ha        1 1HF      0.152000
     33 H7          8.3590    0.7190    5.4590 ha        1 1HF      0.125000
     34 H1          8.5250   -0.4580    2.9150 hn        1 1HF      0.333500
     35 H8          0.4550   -1.5300    3.1410 hn        1 1HF      0.369500
     36 H11        -0.4520    1.5480   -5.4160 ha        1 1HF      0.160000
     37 H10        -2.1160    0.8890   -3.3730 ha        1 1HF      0.162000
@<TRIPOS>BOND
     1    1    2 2   
     2    1   17 1   
     3    1   19 1   
     4    2   18 1   
     5    2   29 1   
     6    3   22 1   
     7    3   23 2   
     8    3   30 1   
     9    4   11 1   
    10    4   12 2   
    11    4   14 1   
    12    5    6 ar  
    13    5   11 ar  
    14    5   31 1   
    15    6    8 ar  
    16    6   25 1   
    17    7   12 1   
    18    7   13 2   
    19    8   10 ar  
    20    8   32 1   
    21    9   10 ar  
    22    9   11 ar  
    23    9   16 1   
    24   10   33 1   
    25   13   17 1   
    26   13   21 1   
    27   14   15 2   
    28   14   16 1   
    29   16   34 1   
    30   18   22 1   
    31   18   24 2   
    32   19   20 2   
    33   19   21 1   
    34   21   35 1   
    35   23   24 1   
    36   23   36 1   
    37   24   37 1   
    38   25   26 1   
    39   25   27 1   
    40   25   28 1   
@<TRIPOS>SUBSTRUCTURE
     1 1HF         1 TEMP              0 ****  ****    0 ROOT
