@<TRIPOS>MOLECULE
1HF
   37    40     1     0     0
SMALL
bcc


@<TRIPOS>ATOM
      1 C9          0.2430   -0.4470   -0.0280 cc        1 1HF     -0.116600
      2 C10        -0.5790   -0.0540   -1.0190 cf        1 1HF     -0.134800
      3 C13         1.1420    0.9280   -4.0170 cd        1 1HF      0.258600
      4 C6          5.2480   -0.9450    2.6330 cc        1 1HF      0.478900
      5 C4          4.5320   -0.0790    4.9900 ca        1 1HF      0.050000
      6 C3          5.0080    0.4810    6.1840 ca        1 1HF     -0.286500
      7 N1          3.0060   -1.3810    2.4600 nf        1 1HF     -0.419700
      8 C2          6.3620    0.7460    6.3360 ca        1 1HF      0.012000
      9 C           6.8270   -0.0980    4.1520 ca        1 1HF      0.074600
     10 C1          7.3000    0.4610    5.3310 ca        1 1HF     -0.205000
     11 C5          5.4240   -0.3700    3.9720 ca        1 1HF     -0.272900
     12 N           4.2270   -1.3400    1.9270 nf        1 1HF     -0.380700
     13 C7          1.9620   -1.1210    1.7060 cc        1 1HF      0.482800
     14 C8          6.6680   -1.0180    2.0400 c         1 1HF      0.616200
     15 O           7.0240   -1.4560    0.9420 o         1 1HF     -0.596500
     16 N2          7.5400   -0.4660    2.9910 ns        1 1HF     -0.486100
     17 S           1.9360   -0.5440    0.0300 ss        1 1HF     -0.062800
     18 C11        -0.2310    0.3980   -2.3280 cd        1 1HF      0.276500
     19 C12        -0.3460   -0.8850    1.2790 c         1 1HF      0.704700
     20 O1         -1.5540   -0.9360    1.5500 o         1 1HF     -0.595500
     21 N3          0.6460   -1.2700    2.1860 ns        1 1HF     -0.481400
     22 O2          1.1200    0.4560   -2.7110 os        1 1HF     -0.343800
     23 C14        -0.1430    1.1670   -4.4670 cc        1 1HF     -0.276300
     24 C15        -1.0290    0.8270   -3.3830 cc        1 1HF     -0.228300
     25 S1          3.8690    0.8520    7.5090 s6        1 1HF      1.462100
     26 O3          2.6220    0.9910    6.8610 o         1 1HF     -0.741533
     27 O4          3.9460   -0.2630    8.3690 o         1 1HF     -0.741533
     28 O5          4.3780    2.0410    8.0750 o         1 1HF     -0.741533
     29 H9         -1.6740   -0.0700   -0.8300 ha        1 1HF      0.166000
     30 H12         2.1390    1.0240   -4.4400 h4        1 1HF      0.057100
     31 H4          3.4490   -0.2670    4.8850 ha        1 1HF      0.171000
     32 H6          6.7090    1.2090    7.2770 ha        1 1HF      0.152000
     33 H7          8.3650    0.6780    5.4790 ha        1 1HF      0.125000
     34 H1          8.5220   -0.4690    2.9210 hn        1 1HF      0.333500
     35 H8          0.4450   -1.4890    3.1360 hn        1 1HF      0.369500
     36 H11        -0.4450    1.5390   -5.4410 ha        1 1HF      0.160000
     37 H10        -2.1130    0.8970   -3.3960 ha        1 1HF      0.162000
@<TRIPOS>BOND
     1    1    2 2   
     2    1   17 1   
     3    1   19 1   
     4    2   18 1   
     5    2   29 1   
     6    3   22 1   
     7    3   23 2   
     8    3   30 1   
     9    4   11 1   
    10    4   12 2   
    11    4   14 1   
    12    5    6 ar  
    13    5   11 ar  
    14    5   31 1   
    15    6    8 ar  
    16    6   25 1   
    17    7   12 1   
    18    7   13 2   
    19    8   10 ar  
    20    8   32 1   
    21    9   10 ar  
    22    9   11 ar  
    23    9   16 1   
    24   10   33 1   
    25   13   17 1   
    26   13   21 1   
    27   14   15 2   
    28   14   16 1   
    29   16   34 1   
    30   18   22 1   
    31   18   24 2   
    32   19   20 2   
    33   19   21 1   
    34   21   35 1   
    35   23   24 1   
    36   23   36 1   
    37   24   37 1   
    38   25   26 1   
    39   25   27 1   
    40   25   28 1   
@<TRIPOS>SUBSTRUCTURE
     1 1HF         1 TEMP              0 ****  ****    0 ROOT
