@<TRIPOS>MOLECULE
1HF
   37    25     1     0     0
SMALL
bcc


@<TRIPOS>ATOM
      1 C9         -3.2890    0.2250   -0.0160 c1        1 1HF     -0.331000
      2 C10        -4.0580    0.1560   -1.0940 c1        1 1HF     -0.010000
      3 C13        -7.7500    0.3350   -0.5510 c1        1 1HF     -0.057000
      4 C6          2.3180    0.0780    1.4590 c1        1 1HF      0.044000
      5 C4          3.6780   -0.2180   -0.7750 c1        1 1HF      0.054000
      6 C3          4.9440   -0.3370   -1.3130 c1        1 1HF     -0.730000
      7 N1          0.0370    0.1540    1.9940 n1        1 1HF     -0.130000
      8 C2          6.0650   -0.3310   -0.4780 c1        1 1HF      0.008000
      9 C           4.6380   -0.0850    1.4510 c1        1 1HF      0.081000
     10 C1          5.9050   -0.2040    0.9060 c1        1 1HF     -0.205000
     11 C5          3.5150   -0.0910    0.6140 c2        1 1HF     -0.162000
     12 N           1.1030    0.0540    1.0560 n1        1 1HF     -0.084000
     13 C7         -1.2160    0.2090    1.5630 c1        1 1HF     -0.032000
     14 C8          2.7550    0.2010    2.8260 c1        1 1HF      0.310000
     15 O           2.0430    0.2570    3.7860 o         1 1HF     -0.327000
     16 N2          4.1740    0.0840    2.8440 n1        1 1HF     -0.340000
     17 S          -1.6920    0.1750    0.0030 DU        1 1HF      0.366000
     18 C11        -5.5810    0.2170   -0.9490 c1        1 1HF     -0.057000
     19 C12        -3.7820    0.2180    1.4590 c1        1 1HF      0.348000
     20 O1         -4.9530    0.0790    1.8270 o         1 1HF     -0.299000
     21 N3         -2.4710    0.3170    2.4360 n2        1 1HF     -0.337000
     22 O2         -6.5110    0.4890    0.0070 os        1 1HF     -0.042000
     23 C14        -7.5830   -0.0370   -1.8690 c1        1 1HF     -0.190500
     24 C15        -6.2510   -0.1110   -2.1170 c1        1 1HF     -0.190500
     25 S1          5.3080   -0.3100   -3.0470 ss        1 1HF      2.875000
     26 O3          4.2380   -0.9980   -3.8370 o         1 1HF     -1.066500
     27 O4          5.5080    1.1040   -3.5130 os        1 1HF     -1.059000
     28 O5          6.5180   -1.1750   -3.3720 o         1 1HF     -1.066500
     29 H9         -3.6590   -0.0010   -1.9690 ha        1 1HF      0.152000
     30 H12        -8.6070    0.4600   -0.0930 DU        1 1HF      0.170333
     31 H4          2.8980   -0.1200   -1.3730 ha        1 1HF      0.168000
     32 H6          6.9560   -0.4890   -0.8550 ha        1 1HF      0.156000
     33 H7          6.6910   -0.1990    1.4900 ha        1 1HF      0.125000
     34 H1          4.7200    0.1260    3.6030 hn        1 1HF      0.246000
     35 H8         -2.4870    0.3320    3.3760 hn        1 1HF      0.271000
     36 H11        -8.2850   -0.2130   -2.4990 DU        1 1HF      0.170333
     37 H10        -5.8340   -0.3500   -2.9800 DU        1 1HF      0.170333
@<TRIPOS>BOND
     1    1    2 1   
     2    1   19 1   
     3    2   29 1   
     4    3   22 1   
     5    3   23 1   
     6    4   11 1   
     7    4   12 1   
     8    5   11 1   
     9    5   31 1   
    10    6    8 1   
    11    7   13 1   
    12    8   32 1   
    13    9   10 1   
    14    9   11 1   
    15   10   33 1   
    16   13   21 1   
    17   14   15 1   
    18   16   34 1   
    19   18   22 1   
    20   18   24 1   
    21   19   20 1   
    22   21   35 1   
    23   23   24 1   
    24   25   26 1   
    25   25   28 1   
@<TRIPOS>SUBSTRUCTURE
     1 1HF         1 TEMP              0 ****  ****    0 ROOT
