@<TRIPOS>MOLECULE
1HF
   37    40     1     0     0
SMALL
bcc


@<TRIPOS>ATOM
      1 C9          3.6110    1.1810   -0.4670 cc        1 1HF     -0.116600
      2 C10         4.8830    1.3920   -0.0780 cf        1 1HF     -0.134800
      3 C13         6.6140   -1.6080    0.8810 cd        1 1HF      0.258600
      4 C6         -1.2010   -1.8080   -0.9510 cc        1 1HF      0.478900
      5 C4         -2.8600   -0.0130   -0.0320 ca        1 1HF      0.050000
      6 C3         -4.1190    0.1710    0.5550 ca        1 1HF     -0.286500
      7 N1          0.0680    0.0470   -1.3940 nf        1 1HF     -0.419700
      8 C2         -4.9270   -0.9260    0.8250 ca        1 1HF      0.012000
      9 C          -3.2910   -2.4170   -0.0690 ca        1 1HF      0.074600
     10 C1         -4.5370   -2.2400    0.5170 ca        1 1HF     -0.205000
     11 C5         -2.4350   -1.2920   -0.3460 ca        1 1HF     -0.272900
     12 N          -0.0850   -1.2760   -1.3630 nf        1 1HF     -0.379700
     13 C7          1.2450    0.5700   -1.1360 cc        1 1HF      0.482800
     14 C8         -1.4050   -3.3330   -1.0380 c         1 1HF      0.616200
     15 O          -0.6440   -4.1880   -1.5010 o         1 1HF     -0.596500
     16 N2         -2.6540   -3.6140   -0.4630 n         1 1HF     -0.486100
     17 S           2.7100   -0.2530   -0.5700 ss        1 1HF     -0.062800
     18 C11         5.8400    0.4300    0.3650 cd        1 1HF      0.276500
     19 C12         2.7750    2.3500   -0.8950 c         1 1HF      0.704700
     20 O1          3.1470    3.5310   -0.9410 o         1 1HF     -0.595500
     21 N3          1.4910    1.9500   -1.2780 n         1 1HF     -0.481400
     22 O2          5.4940   -0.9300    0.4160 os        1 1HF     -0.343800
     23 C14         7.6490   -0.7240    1.1220 cc        1 1HF     -0.276300
     24 C15         7.1550    0.5890    0.7910 cc        1 1HF     -0.228300
     25 S1         -4.6830    1.8170    0.9560 s6        1 1HF      1.462100
     26 O3         -3.4930    2.5670    1.0790 o         1 1HF     -0.741533
     27 O4         -5.4890    2.1960   -0.1370 o         1 1HF     -0.741533
     28 O5         -5.4040    1.6490    2.1590 o         1 1HF     -0.741533
     29 H9          5.2690    2.4340   -0.0880 ha        1 1HF      0.166000
     30 H12         6.4790   -2.6830    0.9700 h4        1 1HF      0.057100
     31 H4         -2.2280    0.8730   -0.2230 ha        1 1HF      0.171000
     32 H6         -5.9060   -0.7580    1.3100 ha        1 1HF      0.152000
     33 H7         -5.1960   -3.0870    0.7380 ha        1 1HF      0.125000
     34 H1         -3.0890   -4.4970   -0.4680 hn        1 1HF      0.333500
     35 H8          0.7690    2.6020   -1.4890 hn        1 1HF      0.369500
     36 H11         8.6440   -0.9540    1.4900 ha        1 1HF      0.160000
     37 H10         7.7110    1.5190    0.8650 ha        1 1HF      0.162000
@<TRIPOS>BOND
     1    1    2 2   
     2    1   17 1   
     3    1   19 1   
     4    2   18 1   
     5    2   29 1   
     6    3   22 1   
     7    3   23 2   
     8    3   30 1   
     9    4   11 1   
    10    4   12 2   
    11    4   14 1   
    12    5    6 ar  
    13    5   11 ar  
    14    5   31 1   
    15    6    8 ar  
    16    6   25 1   
    17    7   12 1   
    18    7   13 2   
    19    8   10 ar  
    20    8   32 1   
    21    9   10 ar  
    22    9   11 ar  
    23    9   16 1   
    24   10   33 1   
    25   13   17 1   
    26   13   21 1   
    27   14   15 2   
    28   14   16 1   
    29   16   34 1   
    30   18   22 1   
    31   18   24 2   
    32   19   20 2   
    33   19   21 1   
    34   21   35 1   
    35   23   24 1   
    36   23   36 1   
    37   24   37 1   
    38   25   26 1   
    39   25   27 1   
    40   25   28 1   
@<TRIPOS>SUBSTRUCTURE
     1 1HF         1 TEMP              0 ****  ****    0 ROOT
