@<TRIPOS>MOLECULE
1HG
   45    47     1     0     0
SMALL
bcc


@<TRIPOS>ATOM
      1 C1         -3.2210   -0.8650    0.5750 c3        1 1HG      0.077100
      2 C2         -3.6890    0.2620   -0.3680 c3        1 1HG      0.114600
      3 O3         -2.9530   -2.0760   -0.1220 os        1 1HG     -0.450400
      4 C4         -2.3080   -1.9060   -1.3700 c2        1 1HG      0.795500
      5 N5         -2.1160   -0.7820   -2.0120 n2        1 1HG     -0.705900
      6 C6         -2.5370    0.4840   -1.4250 c3        1 1HG      0.202500
      7 C7         -1.3990    1.2350   -0.7370 ca        1 1HG     -0.102300
      8 C8         -0.1070    0.7080   -0.7240 ca        1 1HG     -0.140000
      9 C9          0.9790    1.3890   -0.1230 ca        1 1HG      0.052600
     10 C10         0.7450    2.6420    0.4790 ca        1 1HG     -0.124000
     11 C11        -0.5320    3.1820    0.4680 ca        1 1HG     -0.140000
     12 C12        -1.6040    2.5000   -0.1350 ca        1 1HG      0.095900
     13 F13        -2.8220    3.0970   -0.1120 f         1 1HG     -0.141900
     14 N14        -1.8600   -3.1600   -1.8000 nh        1 1HG     -0.873800
     15 C15        -3.0880    1.3800   -2.5530 c3        1 1HG     -0.080100
     16 N16         2.2500    0.7890   -0.1830 n         1 1HG     -0.446100
     17 C17         3.3620    1.1530    0.5530 c         1 1HG      0.577600
     18 C18         4.6250    0.3400    0.3590 ca        1 1HG      0.369800
     19 O19         3.3880    2.1210    1.3350 o         1 1HG     -0.587100
     20 N20         4.5650   -0.9240   -0.1300 nb        1 1HG     -0.659000
     21 C21         5.7140   -1.6010   -0.2560 ca        1 1HG      0.434200
     22 C22         6.9770   -1.0610    0.0920 ca        1 1HG     -0.109300
     23 C23         7.0280    0.2440    0.5970 ca        1 1HG     -0.062000
     24 C24         5.8350    0.9580    0.7360 ca        1 1HG     -0.191300
     25 C25         8.1530   -1.8340   -0.0700 cg        1 1HG      0.226800
     26 N26         9.1190   -2.4690   -0.2040 n1        1 1HG     -0.334800
     27 C27        -4.3010   -1.2470    1.6490 c3        1 1HG      0.639900
     28 F28        -5.4010   -1.8940    1.1600 f         1 1HG     -0.225300
     29 F29        -3.8080   -2.0650    2.6300 f         1 1HG     -0.225300
     30 F30        -4.7870   -0.1510    2.3160 f         1 1HG     -0.225300
     31 F31        -4.8800   -0.0570   -0.9910 f         1 1HG     -0.212300
     32 H1         -2.2920   -0.5390    1.1200 h1        1 1HG      0.103700
     33 H2         -3.8500    1.1960    0.2420 h1        1 1HG      0.103700
     34 H3          0.0870   -0.2660   -1.2060 ha        1 1HG      0.158000
     35 H4          1.5620    3.2050    0.9620 ha        1 1HG      0.180000
     36 H5         -0.7190    4.1620    0.9340 ha        1 1HG      0.156000
     37 H6         -2.3260   -3.9250   -1.3610 hn        1 1HG      0.424800
     38 H7         -1.7470   -3.2480   -2.7870 hn        1 1HG      0.424800
     39 H8         -3.5080    2.3140   -2.1120 hc        1 1HG      0.057700
     40 H9         -2.2730    1.6410   -3.2680 hc        1 1HG      0.057700
     41 H10        -3.9020    0.8520   -3.1060 hc        1 1HG      0.057700
     42 H11         2.3020   -0.0420   -0.7340 hn        1 1HG      0.342500
     43 H12         5.6270   -2.6300   -0.6540 h4        1 1HG      0.043100
     44 H13         7.9880    0.7010    0.8820 ha        1 1HG      0.161000
     45 H14         5.8240    1.9820    1.1420 ha        1 1HG      0.181000
@<TRIPOS>BOND
     1    1    2 1   
     2    1    3 1   
     3    1   27 1   
     4    1   32 1   
     5    2    6 1   
     6    2   31 1   
     7    2   33 1   
     8    3    4 1   
     9    4    5 2   
    10    4   14 1   
    11    5    6 1   
    12    6    7 1   
    13    6   15 1   
    14    7    8 ar  
    15    7   12 ar  
    16    8    9 ar  
    17    8   34 1   
    18    9   10 ar  
    19    9   16 1   
    20   10   11 ar  
    21   10   35 1   
    22   11   12 ar  
    23   11   36 1   
    24   12   13 1   
    25   14   37 1   
    26   14   38 1   
    27   15   39 1   
    28   15   40 1   
    29   15   41 1   
    30   16   17 1   
    31   16   42 1   
    32   17   18 1   
    33   17   19 2   
    34   18   20 ar  
    35   18   24 ar  
    36   20   21 ar  
    37   21   22 ar  
    38   21   43 1   
    39   22   23 ar  
    40   22   25 1   
    41   23   24 ar  
    42   23   44 1   
    43   24   45 1   
    44   25   26 3   
    45   27   28 1   
    46   27   29 1   
    47   27   30 1   
@<TRIPOS>SUBSTRUCTURE
     1 1HG         1 TEMP              0 ****  ****    0 ROOT
