@<TRIPOS>MOLECULE
1HG
   47    49     1     0     0
SMALL
bcc


@<TRIPOS>ATOM
      1 C1          0.5600   -0.2310   -0.2710 c3        1 1HG      0.047100
      2 C2          1.8680    0.3820    0.2670 c3        1 1HG      0.120600
      3 O3          0.3380   -1.5580    0.2480 os        1 1HG     -0.415400
      4 C4          0.7730   -1.7120    1.5590 c2        1 1HG      0.682500
      5 N5          1.3380   -0.8750    2.3650 n2        1 1HG     -0.576900
      6 C6          1.8050    0.4240    1.8500 c3        1 1HG      0.178500
      7 C7          0.9670    1.6030    2.3260 ca        1 1HG     -0.129300
      8 C8         -0.0420    1.4480    3.2800 ca        1 1HG     -0.067000
      9 C9         -0.7480    2.5610    3.7750 ca        1 1HG     -0.061400
     10 C10        -0.4520    3.8610    3.3270 ca        1 1HG     -0.043000
     11 C11         0.5530    4.0320    2.3890 ca        1 1HG     -0.135000
     12 C12         1.2740    2.9240    1.8950 ca        1 1HG      0.196900
     13 F13         2.2640    3.1670    1.0130 f         1 1HG     -0.092900
     14 N14         0.4920   -3.1210    1.9310 n4        1 1HG     -0.790600
     15 C15         3.2430    0.6390    2.3820 c3        1 1HG     -0.093100
     16 N16        -1.7990    2.3700    4.7780 n4        1 1HG     -0.537200
     17 C17        -1.2150    2.0140    6.1430 c         1 1HG      0.487600
     18 C18        -0.9960    3.1160    7.0980 ca        1 1HG      0.294800
     19 O19        -1.0030    0.8210    6.3060 o         1 1HG     -0.437100
     20 N20        -1.2440    4.4030    6.7020 nb        1 1HG     -0.682000
     21 C21        -1.0420    5.3730    7.5900 ca        1 1HG      0.449200
     22 C22        -0.5820    5.1270    8.9210 ca        1 1HG     -0.012300
     23 C23        -0.3340    3.8110    9.3120 ca        1 1HG     -0.065000
     24 C24        -0.5430    2.7760    8.3850 ca        1 1HG     -0.124300
     25 C25        -0.3900    6.2150    9.8090 cg        1 1HG      0.171800
     26 N26        -0.2330    7.1080   10.5370 n1        1 1HG     -0.222800
     27 C27         0.5620   -0.4270   -1.8410 c3        1 1HG      0.660900
     28 F28         1.4050   -1.4100   -2.2670 f         1 1HG     -0.195967
     29 F29        -0.6790   -0.7540   -2.3070 f         1 1HG     -0.195967
     30 F30         0.9270    0.7210   -2.4840 f         1 1HG     -0.195967
     31 F31         2.9610   -0.3570   -0.1400 f         1 1HG     -0.183300
     32 H1         -0.3230    0.4060    0.0050 h1        1 1HG      0.115700
     33 H2          1.9670    1.4240   -0.1560 h1        1 1HG      0.138700
     34 H3         -0.2800    0.4500    3.6880 ha        1 1HG      0.162000
     35 H4         -0.9910    4.7460    3.7130 ha        1 1HG      0.189000
     36 H5          0.8120    5.0440    2.0240 ha        1 1HG      0.206000
     37 H6         -0.4620   -3.3640    1.6280 hn        1 1HG      0.497467
     38 H7          1.1660   -3.7190    1.4250 hn        1 1HG      0.497467
     39 H8          3.6630    1.5600    1.9100 hc        1 1HG      0.084367
     40 H9          3.9020   -0.2230    2.1110 hc        1 1HG      0.084367
     41 H10         3.2340    0.7570    3.4910 hc        1 1HG      0.084367
     42 H11        -2.3600    3.2320    4.8490 hn        1 1HG      0.474800
     43 H12        -1.2540    6.4080    7.2500 h4        1 1HG      0.072100
     44 H13         0.0200    3.5770   10.3320 ha        1 1HG      0.198000
     45 H14        -0.3570    1.7250    8.6640 ha        1 1HG      0.188000
     46 H143        0.5960   -3.2640    2.9450 hn        1 1HG      0.497467
     47 H162       -2.4110    1.6020    4.4730 hn        1 1HG      0.474800
@<TRIPOS>BOND
     1    1    2 1   
     2    1    3 1   
     3    1   27 1   
     4    1   32 1   
     5    2    6 1   
     6    2   31 1   
     7    2   33 1   
     8    3    4 1   
     9    4    5 2   
    10    4   14 1   
    11    5    6 1   
    12    6    7 1   
    13    6   15 1   
    14    7    8 ar  
    15    7   12 ar  
    16    8    9 ar  
    17    8   34 1   
    18    9   10 ar  
    19    9   16 1   
    20   10   11 ar  
    21   10   35 1   
    22   11   12 ar  
    23   11   36 1   
    24   12   13 1   
    25   14   37 1   
    26   14   38 1   
    27   14   46 1   
    28   15   39 1   
    29   15   40 1   
    30   15   41 1   
    31   16   17 1   
    32   16   42 1   
    33   16   47 1   
    34   17   18 1   
    35   17   19 2   
    36   18   20 ar  
    37   18   24 ar  
    38   20   21 ar  
    39   21   22 ar  
    40   21   43 1   
    41   22   23 ar  
    42   22   25 1   
    43   23   24 ar  
    44   23   44 1   
    45   24   45 1   
    46   25   26 3   
    47   27   28 1   
    48   27   29 1   
    49   27   30 1   
@<TRIPOS>SUBSTRUCTURE
     1 1HG         1 TEMP              0 ****  ****    0 ROOT
