@<TRIPOS>MOLECULE
1HG
   45    40     1     0     0
SMALL
bcc


@<TRIPOS>ATOM
      1 C1         -0.1950   -1.1540   -3.9160 c3        1 1HG     -0.034000
      2 C2          0.9530   -1.2790   -3.7880 c3        1 1HG      0.004000
      3 O3         -1.0350   -2.3020   -3.3490 os        1 1HG     -0.245000
      4 C4         -0.7730   -2.6830   -2.0560 c2        1 1HG      0.221000
      5 N5          0.8050   -2.4650   -1.5630 n1        1 1HG     -0.292000
      6 C6          1.4710   -1.4990   -2.2070 c2        1 1HG      0.070000
      7 C7          1.0710   -0.3250   -1.5500 c1        1 1HG     -0.095000
      8 C8          0.5710   -0.3950   -0.2500 c1        1 1HG     -0.141000
      9 C9          0.3370    0.7720    0.4680 c1        1 1HG      0.062000
     10 C10         0.6020    2.0110   -0.1150 c1        1 1HG     -0.127000
     11 C11         1.1000    2.0790   -1.4110 c1        1 1HG     -0.139000
     12 C12         1.3350    0.9150   -2.1290 c1        1 1HG      0.060000
     13 F13         1.9670    0.9780   -3.2950 f         1 1HG     -0.107000
     14 N14        -1.5910   -3.6740   -1.4240 n3        1 1HG     -0.311000
     15 C15         2.9850   -1.4840   -2.0850 c3        1 1HG     -0.198000
     16 N16        -0.0310    0.7010    1.8400 n         1 1HG     -0.299000
     17 C17        -0.4310    1.8910    2.5340 c2        1 1HG      0.362000
     18 C18        -0.9040    1.8090    3.9630 c2        1 1HG     -0.049000
     19 O19        -0.4540    2.9340    1.9590 o         1 1HG     -0.348000
     20 N20        -0.9590    0.5820    4.5650 n2        1 1HG     -0.133000
     21 C21        -1.3320    0.4790    5.8690 c1        1 1HG     -0.031000
     22 C22        -1.6560    1.6210    6.5900 c1        1 1HG     -0.040000
     23 C23        -1.6000    2.8440    5.9880 c1        1 1HG     -0.063000
     24 C24        -1.2260    2.9450    4.6780 c1        1 1HG     -0.126000
     25 C25        -2.2010    1.4970    8.0170 c1        1 1HG     -0.103000
     26 N26        -2.6080    1.4050    9.0900 n1        1 1HG     -0.008000
     27 C27        -0.5300   -1.0190   -5.5780 c3        1 1HG      0.426000
     28 F28         0.2360   -0.0580   -6.1120 f         1 1HG     -0.153667
     29 F29        -0.2680   -2.1890   -6.1820 f         1 1HG     -0.153667
     30 F30        -1.8230   -0.7060   -5.7500 f         1 1HG     -0.153667
     31 F31         1.3840   -2.4710   -4.5870 f         1 1HG     -0.141000
     32 H1         -0.4740   -0.3100   -3.4670 h1        1 1HG      0.143000
     33 H2          1.3960   -0.4800   -4.1540 h1        1 1HG      0.143000
     34 H3          0.3870   -1.2550    0.1520 ha        1 1HG      0.158000
     35 H4          0.4410    2.8200    0.3800 ha        1 1HG      0.182000
     36 H5          1.2870    2.9530   -1.8200 ha        1 1HG      0.156000
     37 H6         -2.3140   -4.0450   -1.8840 hn        1 1HG      0.220000
     38 H7         -1.4060   -3.9440   -0.5420 hn        1 1HG      0.220000
     39 H8          3.2530   -0.8710   -1.3540 hc        1 1HG      0.097000
     40 H9          3.3060   -2.3920   -1.8860 hc        1 1HG      0.097000
     41 H10         3.3740   -1.1800   -2.9230 hc        1 1HG      0.097000
     42 H11        -0.0720   -0.1190    2.2660 hn        1 1HG      0.256000
     43 H12        -1.3700   -0.3840    6.2920 ha        1 1HG      0.180000
     44 H13        -1.8220    3.6270    6.4800 ha        1 1HG      0.161000
     45 H14        -1.1860    3.8200    4.2470 ha        1 1HG      0.181000
@<TRIPOS>BOND
     1    1    2 1   
     2    1    3 1   
     3    1   27 1   
     4    1   32 1   
     5    2    6 1   
     6    2   31 1   
     7    2   33 1   
     8    3    4 1   
     9    4    5 1   
    10    4   14 1   
    11    6    7 1   
    12    6   15 1   
    13    7    8 1   
    14    8   34 1   
    15    9   10 1   
    16    9   16 1   
    17   10   35 1   
    18   11   12 1   
    19   11   36 1   
    20   14   37 1   
    21   14   38 1   
    22   15   39 1   
    23   15   40 1   
    24   15   41 1   
    25   16   17 1   
    26   16   42 1   
    27   17   18 1   
    28   17   19 1   
    29   18   20 1   
    30   18   24 1   
    31   20   21 1   
    32   21   43 1   
    33   22   23 1   
    34   22   25 1   
    35   23   44 1   
    36   24   45 1   
    37   25   26 1   
    38   27   28 1   
    39   27   29 1   
    40   27   30 1   
@<TRIPOS>SUBSTRUCTURE
     1 1HG         1 TEMP              0 ****  ****    0 ROOT
