@<TRIPOS>MOLECULE
1HG
   46    48     1     0     0
SMALL
bcc


@<TRIPOS>ATOM
      1 C1          0.0140    0.1590   -0.0230 c3        1 1HG      0.060100
      2 C2          1.5420   -0.0430   -0.0100 c3        1 1HG      0.113600
      3 O3         -0.6880   -0.8630    0.7150 os        1 1HG     -0.430400
      4 C4          0.0520   -1.3980    1.7660 c2        1 1HG      0.661500
      5 N5          1.2260   -1.1090    2.2130 n2        1 1HG     -0.545900
      6 C6          2.0210   -0.0920    1.4980 c3        1 1HG      0.189500
      7 C7          1.9110    1.2930    2.1150 ca        1 1HG     -0.132300
      8 C8          1.2280    1.4960    3.3180 ca        1 1HG     -0.165000
      9 C9          1.1350    2.7730    3.9200 ca        1 1HG      0.081600
     10 C10         1.7570    3.8700    3.2810 ca        1 1HG     -0.104000
     11 C11         2.4550    3.6780    2.1020 ca        1 1HG     -0.119000
     12 C12         2.5520    2.4010    1.5160 ca        1 1HG      0.102900
     13 F13         3.2760    2.2780    0.3750 f         1 1HG     -0.133900
     14 N14        -0.7810   -2.4790    2.3490 n4        1 1HG     -0.788600
     15 C15         3.4980   -0.5320    1.5310 c3        1 1HG     -0.089100
     16 N16         0.4520    2.8920    5.1380 n         1 1HG     -0.462100
     17 C17        -0.0660    4.0680    5.6700 c         1 1HG      0.583600
     18 C18        -0.7860    3.9770    6.9930 ca        1 1HG      0.356800
     19 O19         0.0570    5.1680    5.1060 o         1 1HG     -0.565100
     20 N20        -1.2920    2.7900    7.4190 nb        1 1HG     -0.674000
     21 C21        -1.9400    2.7750    8.5910 ca        1 1HG      0.431200
     22 C22        -2.1170    3.9280    9.3980 ca        1 1HG     -0.088300
     23 C23        -1.5930    5.1450    8.9480 ca        1 1HG     -0.058000
     24 C24        -0.9160    5.1740    7.7240 ca        1 1HG     -0.179300
     25 C25        -2.8140    3.8330   10.6280 cg        1 1HG      0.211800
     26 N26        -3.3860    3.7520   11.6380 n1        1 1HG     -0.306800
     27 C27        -0.6110    0.0800   -1.4690 c3        1 1HG      0.650900
     28 F28        -0.6360   -1.1820   -1.9900 f         1 1HG     -0.206633
     29 F29        -1.9060    0.5180   -1.4920 f         1 1HG     -0.206633
     30 F30         0.0670    0.8590   -2.3640 f         1 1HG     -0.206633
     31 F31         1.8990   -1.2020   -0.6710 f         1 1HG     -0.200300
     32 H1         -0.2530    1.1530    0.4340 h1        1 1HG      0.133700
     33 H2          2.0220    0.8330   -0.5400 h1        1 1HG      0.145700
     34 H3          0.7670    0.6450    3.8410 ha        1 1HG      0.129000
     35 H4          1.6970    4.8860    3.7140 ha        1 1HG      0.196000
     36 H5          2.9580    4.5280    1.6090 ha        1 1HG      0.176000
     37 H6         -0.9100   -3.2050    1.6300 hn        1 1HG      0.489133
     38 H7         -1.6970   -2.0860    2.6010 hn        1 1HG      0.489133
     39 H8          3.6230   -1.5440    1.0760 hc        1 1HG      0.078033
     40 H9          4.0980    0.2030    0.9410 hc        1 1HG      0.078033
     41 H10         3.8730   -0.5490    2.5830 hc        1 1HG      0.078033
     42 H11         0.2720    2.0390    5.6220 hn        1 1HG      0.338500
     43 H12        -2.3430    1.7960    8.9110 h4        1 1HG      0.042100
     44 H13        -1.7100    6.0650    9.5430 ha        1 1HG      0.172000
     45 H14        -0.4980    6.1120    7.3240 ha        1 1HG      0.184000
     46 H143       -0.3240   -2.8820    3.1790 hn        1 1HG      0.489133
@<TRIPOS>BOND
     1    1    2 1   
     2    1    3 1   
     3    1   27 1   
     4    1   32 1   
     5    2    6 1   
     6    2   31 1   
     7    2   33 1   
     8    3    4 1   
     9    4    5 2   
    10    4   14 1   
    11    5    6 1   
    12    6    7 1   
    13    6   15 1   
    14    7    8 ar  
    15    7   12 ar  
    16    8    9 ar  
    17    8   34 1   
    18    9   10 ar  
    19    9   16 1   
    20   10   11 ar  
    21   10   35 1   
    22   11   12 ar  
    23   11   36 1   
    24   12   13 1   
    25   14   37 1   
    26   14   38 1   
    27   14   46 1   
    28   15   39 1   
    29   15   40 1   
    30   15   41 1   
    31   16   17 1   
    32   16   42 1   
    33   17   18 1   
    34   17   19 2   
    35   18   20 ar  
    36   18   24 ar  
    37   20   21 ar  
    38   21   22 ar  
    39   21   43 1   
    40   22   23 ar  
    41   22   25 1   
    42   23   24 ar  
    43   23   44 1   
    44   24   45 1   
    45   25   26 3   
    46   27   28 1   
    47   27   29 1   
    48   27   30 1   
@<TRIPOS>SUBSTRUCTURE
     1 1HG         1 TEMP              0 ****  ****    0 ROOT
