@<TRIPOS>MOLECULE
1HG
   46    48     1     0     0
SMALL
bcc


@<TRIPOS>ATOM
      1 C1          0.0160    0.1460   -0.0180 c3        1 1HG      0.060100
      2 C2          1.5460   -0.0460   -0.0070 c3        1 1HG      0.113600
      3 O3         -0.6780   -0.8780    0.7240 os        1 1HG     -0.430400
      4 C4          0.0660   -1.4050    1.7750 c2        1 1HG      0.661500
      5 N5          1.2400   -1.1080    2.2200 n2        1 1HG     -0.545900
      6 C6          2.0280   -0.0880    1.5000 c3        1 1HG      0.189500
      7 C7          1.9110    1.2980    2.1130 ca        1 1HG     -0.132300
      8 C8          1.2290    1.5010    3.3170 ca        1 1HG     -0.165000
      9 C9          1.1290    2.7790    3.9160 ca        1 1HG      0.081600
     10 C10         1.7440    3.8780    3.2720 ca        1 1HG     -0.104000
     11 C11         2.4410    3.6860    2.0920 ca        1 1HG     -0.119000
     12 C12         2.5440    2.4070    1.5100 ca        1 1HG      0.102900
     13 F13         3.2660    2.2850    0.3680 f         1 1HG     -0.133900
     14 N14        -0.7580   -2.4900    2.3630 nz        1 1HG     -0.788600
     15 C15         3.5070   -0.5190    1.5330 c3        1 1HG     -0.089100
     16 N16         0.4470    2.8970    5.1340 ns        1 1HG     -0.462100
     17 C17        -0.0770    4.0720    5.6630 c         1 1HG      0.583600
     18 C18        -0.7940    3.9810    6.9880 ca        1 1HG      0.356800
     19 O19         0.0390    5.1710    5.0960 o         1 1HG     -0.565100
     20 N20        -1.2930    2.7930    7.4180 nb        1 1HG     -0.674000
     21 C21        -1.9380    2.7780    8.5910 ca        1 1HG      0.431200
     22 C22        -2.1200    3.9330    9.3950 ca        1 1HG     -0.088300
     23 C23        -1.6030    5.1510    8.9410 ca        1 1HG     -0.058000
     24 C24        -0.9290    5.1790    7.7150 ca        1 1HG     -0.179300
     25 C25        -2.8150    3.8370   10.6270 cg        1 1HG      0.211800
     26 N26        -3.3850    3.7560   11.6380 n1        1 1HG     -0.306800
     27 C27        -0.6100    0.0600   -1.4630 c3        1 1HG      0.650900
     28 F28        -0.6290   -1.2040   -1.9800 f         1 1HG     -0.206633
     29 F29        -1.9080    0.4900   -1.4850 f         1 1HG     -0.206633
     30 F30         0.0620    0.8390   -2.3610 f         1 1HG     -0.206633
     31 F31         1.9090   -1.2060   -0.6650 f         1 1HG     -0.200300
     32 H1         -0.2550    1.1400    0.4360 h1        1 1HG      0.133700
     33 H2          2.0200    0.8310   -0.5400 h1        1 1HG      0.145700
     34 H3          0.7730    0.6480    3.8440 ha        1 1HG      0.129000
     35 H4          1.6780    4.8940    3.7010 ha        1 1HG      0.196000
     36 H5          2.9380    4.5370    1.5960 ha        1 1HG      0.176000
     37 H6         -1.6770   -2.1010    2.6150 hn        1 1HG      0.489133
     38 H7         -0.8840   -3.2190    1.6470 hn        1 1HG      0.489133
     39 H8          3.8840   -0.5320    2.5830 hc        1 1HG      0.078033
     40 H9          3.6370   -1.5320    1.0800 hc        1 1HG      0.078033
     41 H10         4.1020    0.2170    0.9390 hc        1 1HG      0.078033
     42 H11         0.2740    2.0450    5.6210 hn        1 1HG      0.338500
     43 H12        -2.3360    1.7970    8.9150 h4        1 1HG      0.042100
     44 H13        -1.7240    6.0720    9.5330 ha        1 1HG      0.172000
     45 H14        -0.5170    6.1190    7.3120 ha        1 1HG      0.184000
     46 H143       -0.2990   -2.8870    3.1930 hn        1 1HG      0.489133
@<TRIPOS>BOND
     1    1    2 1   
     2    1    3 1   
     3    1   27 1   
     4    1   32 1   
     5    2    6 1   
     6    2   31 1   
     7    2   33 1   
     8    3    4 1   
     9    4    5 2   
    10    4   14 1   
    11    5    6 1   
    12    6    7 1   
    13    6   15 1   
    14    7    8 ar  
    15    7   12 ar  
    16    8    9 ar  
    17    8   34 1   
    18    9   10 ar  
    19    9   16 1   
    20   10   11 ar  
    21   10   35 1   
    22   11   12 ar  
    23   11   36 1   
    24   12   13 1   
    25   14   37 1   
    26   14   38 1   
    27   14   46 1   
    28   15   39 1   
    29   15   40 1   
    30   15   41 1   
    31   16   17 1   
    32   16   42 1   
    33   17   18 1   
    34   17   19 2   
    35   18   20 ar  
    36   18   24 ar  
    37   20   21 ar  
    38   21   22 ar  
    39   21   43 1   
    40   22   23 ar  
    41   22   25 1   
    42   23   24 ar  
    43   23   44 1   
    44   24   45 1   
    45   25   26 3   
    46   27   28 1   
    47   27   29 1   
    48   27   30 1   
@<TRIPOS>SUBSTRUCTURE
     1 1HG         1 TEMP              0 ****  ****    0 ROOT
