@<TRIPOS>MOLECULE
1HH
   47    48     1     0     0
SMALL
bcc


@<TRIPOS>ATOM
      1 C8          0.0560   -1.0050    0.0120 ca        1 1HH     -0.053000
      2 C3          3.4920    1.4760    4.9100 c1        1 1HH      0.176000
      3 C5          2.7600   -0.6780    5.5660 c2        1 1HH     -0.031000
      4 C9          1.2960   -1.3910    0.4950 ca        1 1HH     -0.133000
      5 C11        -0.3330    0.2600    2.0680 ca        1 1HH     -0.033000
      6 C14         0.9190   -0.1130    2.5620 ca        1 1HH     -0.102000
      7 C7         -0.7570   -0.1640    0.7960 ca        1 1HH     -0.139000
      8 C2          2.6210    1.3610    3.6750 c3        1 1HH     -0.048000
      9 C21        -3.2680   -0.2550    1.0120 c2        1 1HH      0.323000
     10 C22        -4.5620   -0.1000    0.3100 c2        1 1HH     -0.131000
     11 C12         0.3110    1.1600    4.6740 c3        1 1HH     -0.233000
     12 C10         1.7380   -0.9460    1.7580 ca        1 1HH      0.158000
     13 C1          1.4000    0.3750    3.9180 c3        1 1HH      0.027000
     14 O4          3.5790    0.5100    5.7470 os        1 1HH     -0.061000
     15 N6          1.7820   -0.7990    4.7330 n2        1 1HH     -0.115000
     16 F13         2.9660   -1.3240    2.1750 f         1 1HH     -0.082000
     17 F18         2.1840    2.5920    3.2400 f         1 1HH     -0.091000
     18 N20        -2.0470    0.2780    0.2670 n4        1 1HH     -0.044000
     19 O23        -3.0790   -0.7390    2.1160 o         1 1HH     -0.176000
     20 C24        -5.6990   -0.6600    0.9170 c2        1 1HH     -0.062000
     21 C25        -6.9380   -0.5100    0.2710 c2        1 1HH     -0.065000
     22 C26        -6.9910    0.1860   -0.9360 c2        1 1HH      0.053000
     23 C27        -5.7790    0.7190   -1.4750 c2        1 1HH     -0.012000
     24 N28        -4.5990    0.5820   -0.8750 n2        1 1HH     -0.157000
     25 C29        -8.2100    0.3720   -1.6340 c1        1 1HH     -0.155000
     26 N30        -9.2120    0.5250   -2.2060 n1        1 1HH      0.098000
     27 C31         5.0680   -4.6840    5.7860 c3        1 1HH      0.374000
     28 H1         -0.2660   -1.3630   -0.9830 ha        1 1HH      0.178000
     29 H2          5.6900   -5.5190    6.2250 h3        1 1HH      0.214000
     30 H3          1.9520   -2.0460   -0.1070 ha        1 1HH      0.200000
     31 H4         -1.0080    0.8850    2.6790 ha        1 1HH      0.172000
     32 H5          3.2980    0.9200    2.8730 h1        1 1HH      0.162000
     33 H6          0.0340    2.0700    4.0850 hc        1 1HH      0.119333
     34 H7          0.7020    1.5050    5.6630 hc        1 1HH      0.119333
     35 H8         -0.5950    0.5310    4.8440 hc        1 1HH      0.119333
     36 H9          3.1410   -1.3930    7.4380 hn        1 1HH      0.290333
     37 H10         2.6620   -2.6080    6.3650 hn        1 1HH      0.290333
     38 H11        -2.1190   -0.0080   -0.7220 hn        1 1HH      0.276000
     39 H12        -5.6250   -1.2020    1.8740 ha        1 1HH      0.187000
     40 H13        -7.8510   -0.9400    0.7220 ha        1 1HH      0.196000
     41 H14        -5.7850    1.2790   -2.4330 h4        1 1HH      0.211000
     42 F15         3.8070   -4.5690    6.3220 f         1 1HH     -0.190000
     43 F16         5.5780   -3.4240    5.9980 f         1 1HH     -0.190000
     44 F17         4.8710   -4.7590    4.4400 f         1 1HH     -0.190000
     45 H193        4.2120   -1.9550    6.2650 hn        1 1HH      0.290333
     46 H202       -2.0900    1.3080    0.2990 hn        1 1HH      0.276000
     47 N19         3.2170   -1.7420    6.4720 n4        1 1HH     -0.021000
@<TRIPOS>BOND
     1    1    4 1   
     2    1    7 1   
     3    1   28 1   
     4    2    8 1   
     5    2   14 1   
     6    3   14 1   
     7    3   15 1   
     8    3   47 1   
     9    4   12 1   
    10    4   30 1   
    11    5    6 1   
    12    5    7 1   
    13    5   31 1   
    14    6   12 1   
    15    6   13 1   
    16    7   18 1   
    17    8   13 1   
    18    8   17 1   
    19    8   32 1   
    20    9   10 1   
    21    9   18 1   
    22    9   19 1   
    23   10   20 1   
    24   10   24 1   
    25   11   13 1   
    26   11   33 1   
    27   11   34 1   
    28   11   35 1   
    29   12   16 1   
    30   13   15 1   
    31   18   38 1   
    32   18   46 1   
    33   20   21 1   
    34   20   39 1   
    35   21   22 1   
    36   21   40 1   
    37   22   23 1   
    38   22   25 1   
    39   23   24 1   
    40   23   41 1   
    41   25   26 1   
    42   27   29 1   
    43   27   42 1   
    44   27   43 1   
    45   27   44 1   
    46   36   47 1   
    47   37   47 1   
    48   45   47 1   
@<TRIPOS>SUBSTRUCTURE
     1 1HH         1 TEMP              0 ****  ****    0 ROOT
