@<TRIPOS>MOLECULE
1HH
   45    37     1     0     0
SMALL
bcc


@<TRIPOS>ATOM
      1 C8          0.2880    0.3010   -2.2630 c1        1 1HH     -0.076500
      2 C3          4.0810   -0.9260    2.2160 c3        1 1HH     -0.032000
      3 C5          2.0560   -0.5390    3.5780 c1        1 1HH      0.221000
      4 C9          1.6780    0.3140   -2.2750 c1        1 1HH     -0.145000
      5 C11         0.3070    0.5290    0.1280 c1        1 1HH     -0.128000
      6 C14         1.6980    0.5420    0.1170 c1        1 1HH     -0.084000
      7 C7         -0.3960    0.4090   -1.0630 c1        1 1HH      0.004000
      8 C2          3.5830   -0.6200    1.2240 c3        1 1HH      0.008000
      9 C21        -2.6500    0.0490   -2.0550 c1        1 1HH      0.359000
     10 C22        -4.1670    0.1540   -1.9570 c1        1 1HH     -0.075000
     11 C12         3.0020    1.9770    1.4040 c3        1 1HH     -0.207000
     12 C10         2.3820    0.4340   -1.0830 c2        1 1HH      0.067000
     13 C1          2.4270    0.5910    1.3590 c2        1 1HH      0.077000
     14 O4          3.1160   -1.3760    3.3040 os        1 1HH     -0.248000
     15 N6          1.5230    0.3610    2.2850 n2        1 1HH     -0.298000
     16 F13         3.7200    0.4980   -1.0990 f         1 1HH     -0.096000
     17 F15         4.4720   -3.2200    1.3440 f         1 1HH     -0.153333
     18 F16         6.1010   -1.7870    1.0540 f         1 1HH     -0.153333
     19 F17         5.7110   -2.6100    3.0450 f         1 1HH     -0.153333
     20 F18         4.6510   -0.1440    0.2930 f         1 1HH     -0.134000
     21 N19         1.1860   -0.8350    4.6300 n2        1 1HH     -0.315000
     22 N20        -1.8300    0.4480   -0.9480 n2        1 1HH     -0.299000
     23 O23        -2.1330   -0.3210   -3.0910 o         1 1HH     -0.348000
     24 C24        -4.7200    0.4510   -3.1970 c1        1 1HH     -0.094500
     25 C25        -6.0780    0.4880   -3.3480 c1        1 1HH     -0.094500
     26 C26        -6.8900    0.2340   -2.2790 c1        1 1HH      0.004000
     27 C27        -6.3370   -0.0620   -1.0430 c1        1 1HH     -0.076500
     28 N28        -4.9780   -0.0990   -0.8930 n1        1 1HH     -0.072000
     29 C29        -8.3920    0.3200   -2.4340 c1        1 1HH     -0.075000
     30 N30        -9.5270    0.3850   -2.5520 n1        1 1HH     -0.072000
     31 C31         5.1470   -2.2020    1.8980 c3        1 1HH      0.425000
     32 H1         -0.2060    0.2170   -3.1000 ha        1 1HH      0.178000
     33 H2          4.5970   -0.1660    2.5520 h1        1 1HH      0.141000
     34 H3          2.1580    0.2380   -3.1170 ha        1 1HH      0.155000
     35 H4         -0.1740    0.6050    0.9710 ha        1 1HH      0.156000
     36 H5          3.1600   -1.4100    0.8340 h1        1 1HH      0.131000
     37 H6          2.3000    2.6290    1.1970 hc        1 1HH      0.095667
     38 H7          3.3590    2.1540    2.3010 hc        1 1HH      0.095667
     39 H8          3.7200    2.0520    0.7470 hc        1 1HH      0.095667
     40 H9          0.3820   -0.4060    4.6930 hn        1 1HH      0.221000
     41 H10         1.4150   -1.4610    5.2460 hn        1 1HH      0.221000
     42 H11        -2.2190    0.7210   -0.1660 hn        1 1HH      0.253000
     43 H12        -4.1400    0.6330   -3.9590 ha        1 1HH      0.171000
     44 H13        -6.4670    0.6960   -4.2180 ha        1 1HH      0.171000
     45 H14        -6.9160   -0.2440   -0.2810 ha        1 1HH      0.178000
@<TRIPOS>BOND
     1    1    7 1   
     2    1   32 1   
     3    2    8 1   
     4    2   14 1   
     5    2   31 1   
     6    2   33 1   
     7    3   14 1   
     8    3   15 1   
     9    4   12 1   
    10    4   34 1   
    11    5    6 1   
    12    5   35 1   
    13    6   12 1   
    14    8   13 1   
    15    8   20 1   
    16    8   36 1   
    17    9   22 1   
    18    9   23 1   
    19   10   28 1   
    20   11   13 1   
    21   11   37 1   
    22   11   38 1   
    23   11   39 1   
    24   12   16 1   
    25   13   15 1   
    26   17   31 1   
    27   18   31 1   
    28   19   31 1   
    29   21   40 1   
    30   21   41 1   
    31   22   42 1   
    32   24   25 1   
    33   24   43 1   
    34   25   44 1   
    35   26   27 1   
    36   27   45 1   
    37   29   30 1   
@<TRIPOS>SUBSTRUCTURE
     1 1HH         1 TEMP              0 ****  ****    0 ROOT
