@<TRIPOS>MOLECULE
1HH
   46    48     1     0     0
SMALL
bcc


@<TRIPOS>ATOM
      1 C8          0.0060   -1.1840   -0.0860 ca        1 1HH     -0.101000
      2 C3          3.8360   -0.6130    5.3680 c3        1 1HH      0.054100
      3 C5          1.6630   -1.4590    5.8040 c2        1 1HH      0.651500
      4 C9          1.3430   -1.4860    0.0870 ca        1 1HH     -0.128000
      5 C11        -0.0640   -0.3430    2.1900 ca        1 1HH     -0.148000
      6 C14         1.2930   -0.6440    2.3770 ca        1 1HH     -0.117300
      7 C7         -0.7310   -0.6010    0.9730 ca        1 1HH      0.072600
      8 C2          3.4040   -0.6660    3.8810 c3        1 1HH      0.134600
      9 C21        -2.9710   -0.7220   -0.0980 c         1 1HH      0.582600
     10 C22        -4.3970   -0.2290   -0.0300 ca        1 1HH      0.357800
     11 C12         1.7560    1.2420    3.9150 c3        1 1HH     -0.102100
     12 C10         2.0010   -1.2280    1.3090 ca        1 1HH      0.117900
     13 C1          1.8800   -0.2850    3.7350 c3        1 1HH      0.188500
     14 O4          2.9920   -1.4130    6.2160 os        1 1HH     -0.431400
     15 N6          1.0850   -0.9920    4.7550 n2        1 1HH     -0.545900
     16 F13         3.3150   -1.5500    1.3910 f         1 1HH     -0.133900
     17 F18         4.1990    0.1840    3.1450 f         1 1HH     -0.171300
     18 N20        -2.0820   -0.2450    0.8570 ns        1 1HH     -0.458100
     19 O23        -2.6340   -1.5070   -1.0010 o         1 1HH     -0.571100
     20 C24        -5.1580   -0.3320   -1.2110 ca        1 1HH     -0.181300
     21 C25        -6.4900    0.0930   -1.1920 ca        1 1HH     -0.059000
     22 C26        -7.0180    0.6000    0.0010 ca        1 1HH     -0.091300
     23 C27        -6.1760    0.6610    1.1410 ca        1 1HH      0.431200
     24 N28        -4.8990    0.2610    1.1340 nb        1 1HH     -0.670000
     25 C29        -8.3610    1.0450    0.0850 cg        1 1HH      0.213800
     26 N30        -9.4630    1.4100    0.1560 n1        1 1HH     -0.310800
     27 C31         5.2680   -1.2460    5.5850 c3        1 1HH      0.648900
     28 H1         -0.4760   -1.4050   -1.0560 ha        1 1HH      0.194000
     29 H2          3.8480    0.4370    5.7690 h1        1 1HH      0.126700
     30 H3          1.9220   -1.9340   -0.7380 ha        1 1HH      0.173000
     31 H4         -0.6270    0.1140    3.0210 ha        1 1HH      0.140000
     32 H5          3.5620   -1.7270    3.5210 h1        1 1HH      0.116700
     33 H6          0.6900    1.5700    3.8850 hc        1 1HH      0.072367
     34 H7          2.2120    1.5680    4.8800 hc        1 1HH      0.072367
     35 H8          2.3040    1.7340    3.0720 hc        1 1HH      0.072367
     36 H9         -0.0700   -2.2770    6.6200 hn        1 1HH      0.489133
     37 H10         1.3370   -3.1630    6.9030 hn        1 1HH      0.489133
     38 H11        -2.4430    0.3270    1.5900 hn        1 1HH      0.340500
     39 H12        -4.7050   -0.7500   -2.1240 ha        1 1HH      0.183000
     40 H13        -7.1100    0.0260   -2.1000 ha        1 1HH      0.170000
     41 H14        -6.5570    1.0530    2.1030 h4        1 1HH      0.044100
     42 F15         5.3910   -2.5030    5.0600 f         1 1HH     -0.205300
     43 F16         6.2570   -0.4910    5.0260 f         1 1HH     -0.205300
     44 F17         5.5800   -1.3650    6.9110 f         1 1HH     -0.205300
     45 H193        1.0630   -1.7420    7.7510 hn        1 1HH      0.489133
     46 N19         0.9320   -2.2180    6.8490 nz        1 1HH     -0.787600
@<TRIPOS>BOND
     1    1    4 ar  
     2    1    7 ar  
     3    1   28 1   
     4    2    8 1   
     5    2   14 1   
     6    2   27 1   
     7    2   29 1   
     8    3   14 1   
     9    3   15 2   
    10    3   46 1   
    11    4   12 ar  
    12    4   30 1   
    13    5    6 ar  
    14    5    7 ar  
    15    5   31 1   
    16    6   12 ar  
    17    6   13 1   
    18    7   18 1   
    19    8   13 1   
    20    8   17 1   
    21    8   32 1   
    22    9   10 1   
    23    9   18 1   
    24    9   19 2   
    25   10   20 ar  
    26   10   24 ar  
    27   11   13 1   
    28   11   33 1   
    29   11   34 1   
    30   11   35 1   
    31   12   16 1   
    32   13   15 1   
    33   18   38 1   
    34   20   21 ar  
    35   20   39 1   
    36   21   22 ar  
    37   21   40 1   
    38   22   23 ar  
    39   22   25 1   
    40   23   24 ar  
    41   23   41 1   
    42   25   26 3   
    43   27   42 1   
    44   27   43 1   
    45   27   44 1   
    46   36   46 1   
    47   37   46 1   
    48   45   46 1   
@<TRIPOS>SUBSTRUCTURE
     1 1HH         1 TEMP              0 ****  ****    0 ROOT
