@<TRIPOS>MOLECULE
1HH
   45    47     1     0     0
SMALL
bcc


@<TRIPOS>ATOM
      1 C8          0.9860    2.5270    0.3710 ca        1 1HH     -0.122000
      2 C3         -4.4290   -0.9800   -0.2130 c3        1 1HH      0.080100
      3 C5         -2.5420   -2.2500   -0.8490 c2        1 1HH      0.794500
      4 C9         -0.2900    3.0620    0.2910 ca        1 1HH     -0.145000
      5 C11         0.1310    0.4500   -0.5620 ca        1 1HH     -0.129000
      6 C14        -1.1620    0.9680   -0.6280 ca        1 1HH     -0.090300
      7 C7          1.2190    1.2070   -0.0620 ca        1 1HH      0.042600
      8 C2         -3.5480    0.2900   -0.2060 c3        1 1HH      0.118600
      9 C21         3.6920    1.2130    0.2200 c         1 1HH      0.576600
     10 C22         4.9420    0.3550    0.1850 ca        1 1HH      0.370800
     11 C12        -2.6980    0.7370   -2.5580 c3        1 1HH     -0.089100
     12 C10        -1.3650    2.3040   -0.2080 ca        1 1HH      0.100900
     13 C1         -2.3160    0.1330   -1.1890 c3        1 1HH      0.209500
     14 O4         -3.6570   -2.1490    0.0170 os        1 1HH     -0.453400
     15 N6         -1.8990   -1.2480   -1.3790 n2        1 1HH     -0.710900
     16 F13        -2.5830    2.8940   -0.2740 f         1 1HH     -0.130900
     17 F18        -4.3370    1.3750   -0.5360 f         1 1HH     -0.204300
     18 N19        -2.2660   -3.6010   -1.0750 nh        1 1HH     -0.876800
     19 N20         2.4820    0.5880   -0.0040 n         1 1HH     -0.444100
     20 O23         3.8100    2.4250    0.4790 o         1 1HH     -0.588100
     21 C24         6.0910    0.8930    0.8010 ca        1 1HH     -0.191300
     22 C25         7.2750    0.1530    0.7820 ca        1 1HH     -0.062000
     23 C26         7.2790   -1.0950    0.1470 ca        1 1HH     -0.110300
     24 C27         6.0770   -1.5530   -0.4490 ca        1 1HH      0.433200
     25 N28         4.9360   -0.8530   -0.4330 nb        1 1HH     -0.661000
     26 C29         8.4510   -1.8910    0.0930 cg        1 1HH      0.226800
     27 N30         9.4120   -2.5440    0.0500 n1        1 1HH     -0.334800
     28 C31        -5.4760   -0.9700    0.9600 c3        1 1HH      0.638900
     29 H1          1.8050    3.1510    0.7680 ha        1 1HH      0.179000
     30 H2         -4.9940   -1.0710   -1.1810 h1        1 1HH      0.102700
     31 H3         -0.4760    4.0970    0.6170 ha        1 1HH      0.155000
     32 H4          0.3250   -0.5760   -0.9190 ha        1 1HH      0.156000
     33 H5         -3.1490    0.4430    0.8400 h1        1 1HH      0.090700
     34 H6         -1.8680    0.6000   -3.2910 hc        1 1HH      0.056367
     35 H7         -3.6190    0.2450   -2.9500 hc        1 1HH      0.056367
     36 H8         -2.8980    1.8290   -2.4320 hc        1 1HH      0.056367
     37 H9         -1.3290   -3.8060   -1.3410 hn        1 1HH      0.426300
     38 H10        -2.6620   -4.2150   -0.3970 hn        1 1HH      0.426300
     39 H11         2.4940   -0.3720   -0.2780 hn        1 1HH      0.339500
     40 H12         6.0420    1.8860    1.2770 ha        1 1HH      0.182000
     41 H13         8.1880    0.5470    1.2550 ha        1 1HH      0.161000
     42 H14         6.0380   -2.5310   -0.9650 h4        1 1HH      0.041100
     43 F15        -4.9450   -0.7010    2.1920 f         1 1HH     -0.224300
     44 F16        -6.4670   -0.0410    0.7790 f         1 1HH     -0.224300
     45 F17        -6.1310   -2.1640    1.1030 f         1 1HH     -0.224300
@<TRIPOS>BOND
     1    1    4 ar  
     2    1    7 ar  
     3    1   29 1   
     4    2    8 1   
     5    2   14 1   
     6    2   28 1   
     7    2   30 1   
     8    3   14 1   
     9    3   15 2   
    10    3   18 1   
    11    4   12 ar  
    12    4   31 1   
    13    5    6 ar  
    14    5    7 ar  
    15    5   32 1   
    16    6   12 ar  
    17    6   13 1   
    18    7   19 1   
    19    8   13 1   
    20    8   17 1   
    21    8   33 1   
    22    9   10 1   
    23    9   19 1   
    24    9   20 2   
    25   10   21 ar  
    26   10   25 ar  
    27   11   13 1   
    28   11   34 1   
    29   11   35 1   
    30   11   36 1   
    31   12   16 1   
    32   13   15 1   
    33   18   37 1   
    34   18   38 1   
    35   19   39 1   
    36   21   22 ar  
    37   21   40 1   
    38   22   23 ar  
    39   22   41 1   
    40   23   24 ar  
    41   23   26 1   
    42   24   25 ar  
    43   24   42 1   
    44   26   27 3   
    45   28   43 1   
    46   28   44 1   
    47   28   45 1   
@<TRIPOS>SUBSTRUCTURE
     1 1HH         1 TEMP              0 ****  ****    0 ROOT
