@<TRIPOS>MOLECULE
1HJ
   46    48     1     0     0
SMALL
bcc


@<TRIPOS>ATOM
      1 C1          0.0180    0.0240   -0.0950 c3        1 1HJ      0.106100
      2 C2          1.5150   -0.0940    0.1000 c3        1 1HJ     -0.163400
      3 O3         -0.5780    1.1290    0.6220 os        1 1HJ     -0.441400
      4 C4          0.1180    1.4920    1.7680 c2        1 1HJ      0.659500
      5 N5          1.2080    1.0440    2.2850 n2        1 1HJ     -0.554900
      6 C6          1.9310   -0.0400    1.5910 c3        1 1HJ      0.220500
      7 C7          3.4380    0.1750    1.6690 ca        1 1HJ     -0.108300
      8 C8          3.9970    1.1890    2.4480 ca        1 1HJ     -0.149000
      9 C9          5.3960    1.3900    2.5230 ca        1 1HJ      0.074600
     10 C10         6.2440    0.5320    1.7860 ca        1 1HJ     -0.109000
     11 C11         5.7010   -0.4870    1.0220 ca        1 1HJ     -0.121000
     12 C12         4.3090   -0.6840    0.9600 ca        1 1HJ      0.099900
     13 F13         3.8440   -1.7160    0.2120 f         1 1HJ     -0.140900
     14 N14        -0.6630    2.5920    2.3900 nz        1 1HJ     -0.789600
     15 C15         1.5980   -1.3830    2.2730 c3        1 1HJ     -0.104100
     16 N16         5.8800    2.4150    3.3470 ns        1 1HJ     -0.458100
     17 C17         7.1490    2.9790    3.2920 c         1 1HJ      0.581600
     18 C18         7.4570    4.1050    4.2510 ca        1 1HJ      0.358800
     19 O19         8.0290    2.5830    2.5080 o         1 1HJ     -0.569100
     20 N20         6.4500    4.8000    4.8420 nb        1 1HJ     -0.673000
     21 C21         6.7850    5.8000    5.6660 ca        1 1HJ      0.430200
     22 C22         8.1280    6.1610    5.9480 ca        1 1HJ     -0.092300
     23 C23         9.1560    5.4390    5.3330 ca        1 1HJ     -0.058000
     24 C24         8.8180    4.3930    4.4670 ca        1 1HJ     -0.181300
     25 C25         8.4040    7.2320    6.8340 cg        1 1HJ      0.213800
     26 N26         8.6290    8.1110    7.5620 n1        1 1HJ     -0.310800
     27 C27        -0.3370    0.3220   -1.6040 c3        1 1HJ      0.639900
     28 F28        -1.6850    0.4160   -1.8150 f         1 1HJ     -0.210633
     29 F29         0.1950    1.4920   -2.0700 f         1 1HJ     -0.210633
     30 F30         0.1110   -0.6620   -2.4400 f         1 1HJ     -0.210633
     31 H1         -0.5350   -0.9030    0.2250 h1        1 1HJ      0.118700
     32 H2          1.8460   -1.0720   -0.3470 hc        1 1HJ      0.119700
     33 H3          2.0390    0.7270   -0.4620 hc        1 1HJ      0.119700
     34 H4          3.3460    1.8520    3.0400 ha        1 1HJ      0.138000
     35 H5          7.3410    0.6620    1.8090 ha        1 1HJ      0.194000
     36 H6          6.3610   -1.1650    0.4540 ha        1 1HJ      0.172000
     37 H7         -1.6410    2.2870    2.4790 hn        1 1HJ      0.487133
     38 H8         -0.6190    3.4090    1.7660 hn        1 1HJ      0.487133
     39 H9          0.5100   -1.6140    2.1830 hc        1 1HJ      0.069700
     40 H10         2.1820   -2.1930    1.7700 hc        1 1HJ      0.069700
     41 H11         1.8830   -1.3600    3.3520 hc        1 1HJ      0.069700
     42 H12         5.2110    2.8290    3.9610 hn        1 1HJ      0.338500
     43 H13         5.9450    6.3490    6.1310 h4        1 1HJ      0.042100
     44 H14        10.2130    5.6870    5.5220 ha        1 1HJ      0.170000
     45 H15         9.5950    3.8050    3.9510 ha        1 1HJ      0.184000
     46 H143       -0.2810    2.8330    3.3140 hn        1 1HJ      0.487133
@<TRIPOS>BOND
     1    1    2 1   
     2    1    3 1   
     3    1   27 1   
     4    1   31 1   
     5    2    6 1   
     6    2   32 1   
     7    2   33 1   
     8    3    4 1   
     9    4    5 2   
    10    4   14 1   
    11    5    6 1   
    12    6    7 1   
    13    6   15 1   
    14    7    8 ar  
    15    7   12 ar  
    16    8    9 ar  
    17    8   34 1   
    18    9   10 ar  
    19    9   16 1   
    20   10   11 ar  
    21   10   35 1   
    22   11   12 ar  
    23   11   36 1   
    24   12   13 1   
    25   14   37 1   
    26   14   38 1   
    27   14   46 1   
    28   15   39 1   
    29   15   40 1   
    30   15   41 1   
    31   16   17 1   
    32   16   42 1   
    33   17   18 1   
    34   17   19 2   
    35   18   20 ar  
    36   18   24 ar  
    37   20   21 ar  
    38   21   22 ar  
    39   21   43 1   
    40   22   23 ar  
    41   22   25 1   
    42   23   24 ar  
    43   23   44 1   
    44   24   45 1   
    45   25   26 3   
    46   27   28 1   
    47   27   29 1   
    48   27   30 1   
@<TRIPOS>SUBSTRUCTURE
     1 1HJ         1 TEMP              0 ****  ****    0 ROOT
