@<TRIPOS>MOLECULE
1HJ
   47    49     1     0     0
SMALL
bcc


@<TRIPOS>ATOM
      1 C1          0.4310   -0.8340    0.1190 c3        1 1HJ      0.105100
      2 C2          1.9030   -0.4990    0.3030 c3        1 1HJ     -0.152400
      3 O3         -0.3660   -0.6320    1.3010 os        1 1HJ     -0.407400
      4 C4         -0.0150    0.5340    1.9770 c2        1 1HJ      0.660500
      5 N5          1.1810    0.9740    2.1940 n2        1 1HJ     -0.550900
      6 C6          2.2790    0.1340    1.6760 c3        1 1HJ      0.204500
      7 C7          3.5590    0.9480    1.5140 ca        1 1HJ     -0.112300
      8 C8          3.6890    2.2390    2.0280 ca        1 1HJ     -0.054000
      9 C9          4.8940    2.9530    1.8830 ca        1 1HJ     -0.067400
     10 C10         6.0000    2.3800    1.2290 ca        1 1HJ     -0.046000
     11 C11         5.8880    1.0940    0.7260 ca        1 1HJ     -0.138000
     12 C12         4.6850    0.3710    0.8650 ca        1 1HJ      0.194900
     13 F13         4.6460   -0.8840    0.3710 f         1 1HJ     -0.100900
     14 N14        -1.2530    1.2140    2.4210 n4        1 1HJ     -0.792600
     15 C15         2.5750   -1.0080    2.6760 c3        1 1HJ     -0.112100
     16 N16         4.9980    4.3150    2.4130 n4        1 1HJ     -0.534200
     17 C17         5.1940    4.3170    3.9250 c         1 1HJ      0.483600
     18 C18         6.5760    4.4090    4.4340 ca        1 1HJ      0.297800
     19 O19         4.1590    4.2610    4.5740 o         1 1HJ     -0.432100
     20 N20         7.6180    4.4030    3.5480 nb        1 1HJ     -0.682000
     21 C21         8.8510    4.4950    4.0420 ca        1 1HJ      0.449200
     22 C22         9.1240    4.5950    5.4410 ca        1 1HJ     -0.016300
     23 C23         8.0530    4.6000    6.3340 ca        1 1HJ     -0.064000
     24 C24         6.7460    4.5050    5.8270 ca        1 1HJ     -0.127300
     25 C25        10.4660    4.6880    5.8880 cg        1 1HJ      0.173800
     26 N26        11.5670    4.7640    6.2560 n1        1 1HJ     -0.226800
     27 C27        -0.2660    0.0100   -1.0260 c3        1 1HJ      0.611900
     28 F28        -1.3290   -0.6360   -1.5830 f         1 1HJ     -0.216633
     29 F29        -0.7800    1.1920   -0.5350 f         1 1HJ     -0.216633
     30 F30         0.5520    0.3680   -2.0560 f         1 1HJ     -0.216633
     31 H1          0.2670   -1.9310   -0.1070 h1        1 1HJ      0.168700
     32 H2          2.2400    0.1890   -0.5190 hc        1 1HJ      0.116700
     33 H3          2.4860   -1.4560    0.1890 hc        1 1HJ      0.116700
     34 H4          2.8520    2.7120    2.5710 ha        1 1HJ      0.171000
     35 H5          6.9540    2.9270    1.1140 ha        1 1HJ      0.187000
     36 H6          6.7430    0.6180    0.2110 ha        1 1HJ      0.202000
     37 H7         -1.7040    1.6270    1.5870 hn        1 1HJ      0.495133
     38 H8         -1.8830    0.5060    2.8300 hn        1 1HJ      0.495133
     39 H9          3.4430   -1.6060    2.3040 hc        1 1HJ      0.077700
     40 H10         2.8290   -0.6000    3.6840 hc        1 1HJ      0.077700
     41 H11         1.6880   -1.6820    2.7630 hc        1 1HJ      0.077700
     42 H12         4.1280    4.8200    2.1960 hn        1 1HJ      0.474800
     43 H13         9.6800    4.4930    3.3050 h4        1 1HJ      0.071100
     44 H14         8.2190    4.6790    7.4230 ha        1 1HJ      0.197000
     45 H15         5.8770    4.5080    6.5070 ha        1 1HJ      0.188000
     46 H143       -1.0500    1.9460    3.1140 hn        1 1HJ      0.495133
     47 H162        5.7850    4.7970    1.9540 hn        1 1HJ      0.474800
@<TRIPOS>BOND
     1    1    2 1   
     2    1    3 1   
     3    1   27 1   
     4    1   31 1   
     5    2    6 1   
     6    2   32 1   
     7    2   33 1   
     8    3    4 1   
     9    4    5 2   
    10    4   14 1   
    11    5    6 1   
    12    6    7 1   
    13    6   15 1   
    14    7    8 ar  
    15    7   12 ar  
    16    8    9 ar  
    17    8   34 1   
    18    9   10 ar  
    19    9   16 1   
    20   10   11 ar  
    21   10   35 1   
    22   11   12 ar  
    23   11   36 1   
    24   12   13 1   
    25   14   37 1   
    26   14   38 1   
    27   14   46 1   
    28   15   39 1   
    29   15   40 1   
    30   15   41 1   
    31   16   17 1   
    32   16   42 1   
    33   16   47 1   
    34   17   18 1   
    35   17   19 2   
    36   18   20 ar  
    37   18   24 ar  
    38   20   21 ar  
    39   21   22 ar  
    40   21   43 1   
    41   22   23 ar  
    42   22   25 1   
    43   23   24 ar  
    44   23   44 1   
    45   24   45 1   
    46   25   26 3   
    47   27   28 1   
    48   27   29 1   
    49   27   30 1   
@<TRIPOS>SUBSTRUCTURE
     1 1HJ         1 TEMP              0 ****  ****    0 ROOT
