@<TRIPOS>MOLECULE
1HJ
   45    40     1     0     0
SMALL
bcc


@<TRIPOS>ATOM
      1 C1         -3.7190   -1.8680   -2.0650 c3        1 1HJ      0.010000
      2 C2         -2.6170   -1.8690   -2.0010 c3        1 1HJ     -0.231000
      3 O3         -4.4200   -0.7380   -1.2660 os        1 1HJ     -0.255000
      4 C4         -4.0710   -0.5980   -0.0060 c2        1 1HJ      0.223000
      5 N5         -2.5630   -1.0220    0.3240 n1        1 1HJ     -0.303000
      6 C6         -2.0250   -1.9480   -0.5260 c2        1 1HJ      0.095000
      7 C7         -0.6600   -1.5210   -0.6750 c1        1 1HJ     -0.066000
      8 C8         -0.1860   -0.4500    0.0680 c1        1 1HJ     -0.129000
      9 C9          1.1580   -0.1120    0.0180 c1        1 1HJ      0.052000
     10 C10         2.0280   -0.8440   -0.7750 c1        1 1HJ     -0.126000
     11 C11         1.5550   -1.9150   -1.5180 c1        1 1HJ     -0.143000
     12 C12         0.2110   -2.2530   -1.4680 c1        1 1HJ      0.061000
     13 F13        -0.2440   -3.2940   -2.1770 f         1 1HJ     -0.111000
     14 N14        -4.7370    0.3490    0.8140 n3        1 1HJ     -0.315000
     15 C15        -1.9010   -3.3710   -0.0280 c3        1 1HJ     -0.214000
     16 N16         1.6590    0.9300    0.8440 n         1 1HJ     -0.298000
     17 C17         3.0030    1.3630    0.7040 c2        1 1HJ      0.359000
     18 C18         3.5540    2.4270    1.6260 c2        1 1HJ     -0.047000
     19 O19         3.7250    0.8430   -0.1220 o         1 1HJ     -0.349000
     20 N20         2.8130    2.8590    2.6850 n2        1 1HJ     -0.134000
     21 C21         3.3160    3.8010    3.5310 c1        1 1HJ     -0.032000
     22 C22         4.5830    4.3200    3.3150 c1        1 1HJ     -0.042000
     23 C23         5.3270    3.8880    2.2550 c1        1 1HJ     -0.062000
     24 C24         4.8220    2.9450    1.4090 c1        1 1HJ     -0.127000
     25 C25         5.1290    5.3890    4.2360 c1        1 1HJ     -0.103000
     26 N26         5.5400    6.1960    4.9300 n1        1 1HJ     -0.010000
     27 C27        -4.1540   -1.7040   -3.7090 c3        1 1HJ      0.416000
     28 F28        -5.4820   -1.5550   -3.8070 f         1 1HJ     -0.158333
     29 F29        -3.5450   -0.6290   -4.2260 f         1 1HJ     -0.158333
     30 F30        -3.7770   -2.7980   -4.3830 f         1 1HJ     -0.158333
     31 H1         -4.0510   -2.7310   -1.7390 h1        1 1HJ      0.131000
     32 H2         -2.2800   -2.6380   -2.5090 hc        1 1HJ      0.129500
     33 H3         -2.2840   -1.0490   -2.4220 hc        1 1HJ      0.129500
     34 H4         -0.7990    0.0660    0.6260 ha        1 1HJ      0.160000
     35 H5          2.9730   -0.6070   -0.8100 ha        1 1HJ      0.177000
     36 H6          2.1680   -2.4300   -2.0760 ha        1 1HJ      0.153000
     37 H7         -4.3050    0.7180    1.5290 hn        1 1HJ      0.218000
     38 H8         -5.6040    0.5800    0.6340 hn        1 1HJ      0.218000
     39 H9         -2.7020   -3.6090    0.4840 hc        1 1HJ      0.089667
     40 H10        -1.1110   -3.4470    0.5480 hc        1 1HJ      0.089667
     41 H11        -1.8080   -3.9780   -0.7920 hc        1 1HJ      0.089667
     42 H12         1.1230    1.3050    1.4790 hn        1 1HJ      0.253000
     43 H13         2.7850    4.1100    4.2880 ha        1 1HJ      0.178000
     44 H14         6.2190    4.2530    2.1030 ha        1 1HJ      0.160000
     45 H15         5.3530    2.6350    0.6510 ha        1 1HJ      0.181000
@<TRIPOS>BOND
     1    1    2 1   
     2    1    3 1   
     3    1   27 1   
     4    1   31 1   
     5    2    6 1   
     6    2   32 1   
     7    2   33 1   
     8    3    4 1   
     9    4    5 1   
    10    4   14 1   
    11    6    7 1   
    12    6   15 1   
    13    7    8 1   
    14    8   34 1   
    15    9   10 1   
    16    9   16 1   
    17   10   35 1   
    18   11   12 1   
    19   11   36 1   
    20   14   37 1   
    21   14   38 1   
    22   15   39 1   
    23   15   40 1   
    24   15   41 1   
    25   16   17 1   
    26   16   42 1   
    27   17   18 1   
    28   17   19 1   
    29   18   20 1   
    30   18   24 1   
    31   20   21 1   
    32   21   43 1   
    33   22   23 1   
    34   22   25 1   
    35   23   44 1   
    36   24   45 1   
    37   25   26 1   
    38   27   28 1   
    39   27   29 1   
    40   27   30 1   
@<TRIPOS>SUBSTRUCTURE
     1 1HJ         1 TEMP              0 ****  ****    0 ROOT
