@<TRIPOS>MOLECULE
1HJ
   45    47     1     0     0
SMALL
bcc


@<TRIPOS>ATOM
      1 C1         -4.6210   -0.6870   -0.1260 c3        1 1HJ      0.126100
      2 C2         -3.5020    0.3100    0.0950 c3        1 1HJ     -0.148400
      3 O3         -4.2100   -1.9930   -0.5080 os        1 1HJ     -0.460400
      4 C4         -2.8700   -2.1340   -0.9330 c2        1 1HJ      0.797500
      5 N5         -2.0390   -1.1750   -1.2450 n2        1 1HJ     -0.713900
      6 C6         -2.4450    0.2130   -1.0320 c3        1 1HJ      0.225500
      7 C7         -1.2510    1.0770   -0.6280 ca        1 1HJ     -0.072300
      8 C8          0.0340    0.5410   -0.5560 ca        1 1HJ     -0.127000
      9 C9          1.1560    1.3250   -0.1940 ca        1 1HJ      0.045600
     10 C10         0.9650    2.6880    0.1040 ca        1 1HJ     -0.127000
     11 C11        -0.3080    3.2350    0.0370 ca        1 1HJ     -0.143000
     12 C12        -1.4160    2.4510   -0.3270 ca        1 1HJ      0.093900
     13 F13        -2.6300    3.0580   -0.3770 f         1 1HJ     -0.147900
     14 N14        -2.5630   -3.4990   -0.9480 nh        1 1HJ     -0.876800
     15 C15        -3.0340    0.8000   -2.3320 c3        1 1HJ     -0.102100
     16 N16         2.4170    0.6990   -0.1730 n         1 1HJ     -0.443100
     17 C17         3.5830    1.2190    0.3510 c         1 1HJ      0.576600
     18 C18         4.8210    0.3460    0.3070 ca        1 1HJ      0.370800
     19 O19         3.6820    2.3680    0.8230 o         1 1HJ     -0.590100
     20 N20         4.7140   -1.0000    0.1810 nb        1 1HJ     -0.659000
     21 C21         5.8440   -1.7200    0.1730 ca        1 1HJ      0.433200
     22 C22         7.1340   -1.1430    0.2840 ca        1 1HJ     -0.111300
     23 C23         7.2340    0.2480    0.4130 ca        1 1HJ     -0.063000
     24 C24         6.0620    1.0060    0.4270 ca        1 1HJ     -0.192300
     25 C25         8.2880   -1.9660    0.2650 cg        1 1HJ      0.227800
     26 N26         9.2350   -2.6420    0.2480 n1        1 1HJ     -0.336800
     27 C27        -5.4540   -0.8780    1.1980 c3        1 1HJ      0.617900
     28 F28        -6.4950   -1.7560    1.0610 f         1 1HJ     -0.230633
     29 F29        -4.7340   -1.3380    2.2680 f         1 1HJ     -0.230633
     30 F30        -6.0310    0.2890    1.6280 f         1 1HJ     -0.230633
     31 H1         -5.3410   -0.3360   -0.9190 h1        1 1HJ      0.093700
     32 H2         -3.9450    1.3390    0.1280 hc        1 1HJ      0.091200
     33 H3         -3.0080    0.1130    1.0830 hc        1 1HJ      0.091200
     34 H4          0.1880   -0.5270   -0.7920 ha        1 1HJ      0.164000
     35 H5          1.8100    3.3340    0.3950 ha        1 1HJ      0.178000
     36 H6         -0.4620    4.3000    0.2690 ha        1 1HJ      0.153000
     37 H7         -3.3610   -4.0960   -0.9570 hn        1 1HJ      0.423300
     38 H8         -1.8290   -3.7600   -1.5680 hn        1 1HJ      0.423300
     39 H9         -3.3610    1.8530   -2.1590 hc        1 1HJ      0.050367
     40 H10        -2.2670    0.7890   -3.1420 hc        1 1HJ      0.050367
     41 H11        -3.9160    0.2010   -2.6630 hc        1 1HJ      0.050367
     42 H12         2.4190   -0.2550   -0.4670 hn        1 1HJ      0.340500
     43 H13         5.7190   -2.8150    0.0730 h4        1 1HJ      0.042100
     44 H14         8.2160    0.7350    0.5050 ha        1 1HJ      0.160000
     45 H15         6.0880    2.1020    0.5410 ha        1 1HJ      0.181000
@<TRIPOS>BOND
     1    1    2 1   
     2    1    3 1   
     3    1   27 1   
     4    1   31 1   
     5    2    6 1   
     6    2   32 1   
     7    2   33 1   
     8    3    4 1   
     9    4    5 2   
    10    4   14 1   
    11    5    6 1   
    12    6    7 1   
    13    6   15 1   
    14    7    8 ar  
    15    7   12 ar  
    16    8    9 ar  
    17    8   34 1   
    18    9   10 ar  
    19    9   16 1   
    20   10   11 ar  
    21   10   35 1   
    22   11   12 ar  
    23   11   36 1   
    24   12   13 1   
    25   14   37 1   
    26   14   38 1   
    27   15   39 1   
    28   15   40 1   
    29   15   41 1   
    30   16   17 1   
    31   16   42 1   
    32   17   18 1   
    33   17   19 2   
    34   18   20 ar  
    35   18   24 ar  
    36   20   21 ar  
    37   21   22 ar  
    38   21   43 1   
    39   22   23 ar  
    40   22   25 1   
    41   23   24 ar  
    42   23   44 1   
    43   24   45 1   
    44   25   26 3   
    45   27   28 1   
    46   27   29 1   
    47   27   30 1   
@<TRIPOS>SUBSTRUCTURE
     1 1HJ         1 TEMP              0 ****  ****    0 ROOT
