@<TRIPOS>MOLECULE
1HK
   41    44     1     0     0
SMALL
bcc


@<TRIPOS>ATOM
      1 O1         -0.1360   -0.3430   -0.1180 oh        1 1HK     -0.494100
      2 C1          1.2340   -0.2440   -0.1200 ca        1 1HK      0.113100
      3 C18         1.9840    0.0750    1.0360 ca        1 1HK      0.044100
      4 O2          1.2290    0.2720    2.1820 os        1 1HK     -0.347900
      5 C19         1.9340    0.7700    3.3130 c3        1 1HK      0.121700
      6 C17         3.3740    0.1550    0.9710 ca        1 1HK     -0.157000
      7 C4          4.0280   -0.0810   -0.2450 ca        1 1HK     -0.090300
      8 C3          3.2840   -0.3950   -1.3850 ca        1 1HK     -0.121000
      9 C2          1.8950   -0.4790   -1.3310 ca        1 1HK     -0.135000
     10 C5          5.5130    0.0150   -0.3120 c3        1 1HK     -0.032100
     11 C6          6.1700   -1.2420    0.2380 c3        1 1HK     -0.013100
     12 C7          7.6390   -1.1210    0.3120 cc        1 1HK     -0.065600
     13 C9          8.5120   -1.2870    1.3790 cd        1 1HK     -0.265600
     14 C10         8.6300   -1.6000    2.8230 c3        1 1HK      0.053200
     15 C11        10.1230   -1.5340    3.0610 ca        1 1HK     -0.082300
     16 C16        10.8370   -1.2110    1.8600 ca        1 1HK     -0.108500
     17 C8          9.8570   -1.0540    0.8030 cd        1 1HK      0.337800
     18 N2          9.7700   -0.7700   -0.5140 nc        1 1HK     -0.465800
     19 N1          8.4640   -0.8180   -0.7990 na        1 1HK     -0.040600
     20 C15        12.2160   -1.1030    1.8630 ca        1 1HK     -0.097000
     21 C14        12.9000   -1.3160    3.0690 ca        1 1HK     -0.134000
     22 C13        12.2110   -1.6290    4.2360 ca        1 1HK     -0.126000
     23 C12        10.8120   -1.7410    4.2400 ca        1 1HK     -0.122000
     24 H2         -0.4530   -0.1320    0.7730 ho        1 1HK      0.437000
     25 H192        2.4480    1.7310    3.0690 h1        1 1HK      0.046367
     26 H191        1.1260    0.9320    4.0720 h1        1 1HK      0.046367
     27 H193        2.6700    0.0120    3.6780 h1        1 1HK      0.046367
     28 H13         3.9650    0.4040    1.8650 ha        1 1HK      0.140000
     29 H4          3.7970   -0.5780   -2.3410 ha        1 1HK      0.135000
     30 H3          1.3040   -0.7260   -2.2250 ha        1 1HK      0.154000
     31 H5          5.8590    0.9050    0.2780 hc        1 1HK      0.051700
     32 H14         5.8350    0.1750   -1.3760 hc        1 1HK      0.051700
     33 H6          5.7800   -1.4450    1.2720 hc        1 1HK      0.065200
     34 H15         5.8930   -2.1230   -0.4040 hc        1 1HK      0.065200
     35 H7          8.0910   -0.8510    3.4580 hc        1 1HK      0.066200
     36 H8          8.2330   -2.6200    3.0620 hc        1 1HK      0.066200
     37 H1          8.1480   -0.6160   -1.7170 hn        1 1HK      0.317700
     38 H12        12.7650   -0.8560    0.9440 ha        1 1HK      0.145000
     39 H11        13.9970   -1.2340    3.0860 ha        1 1HK      0.132000
     40 H10        12.7650   -1.7930    5.1720 ha        1 1HK      0.131000
     41 H9         10.2800   -1.9900    5.1690 ha        1 1HK      0.133000
@<TRIPOS>BOND
     1    1    2 1   
     2    1   24 1   
     3    2    3 ar  
     4    2    9 ar  
     5    3    4 1   
     6    3    6 ar  
     7    4    5 1   
     8    5   25 1   
     9    5   26 1   
    10    5   27 1   
    11    6    7 ar  
    12    6   28 1   
    13    7    8 ar  
    14    7   10 1   
    15    8    9 ar  
    16    8   29 1   
    17    9   30 1   
    18   10   11 1   
    19   10   31 1   
    20   10   32 1   
    21   11   12 1   
    22   11   33 1   
    23   11   34 1   
    24   12   13 2   
    25   12   19 1   
    26   13   14 1   
    27   13   17 1   
    28   14   15 1   
    29   14   35 1   
    30   14   36 1   
    31   15   16 ar  
    32   15   23 ar  
    33   16   17 1   
    34   16   20 ar  
    35   17   18 2   
    36   18   19 1   
    37   19   37 1   
    38   20   21 ar  
    39   20   38 1   
    40   21   22 ar  
    41   21   39 1   
    42   22   23 ar  
    43   22   40 1   
    44   23   41 1   
@<TRIPOS>SUBSTRUCTURE
     1 1HK         1 TEMP              0 ****  ****    0 ROOT
