@<TRIPOS>MOLECULE
1HK
   41    44     1     0     0
SMALL
bcc


@<TRIPOS>ATOM
      1 O1         -0.1370   -0.3910   -0.1190 oh        1 1HK     -0.494100
      2 C1          1.2320   -0.2760   -0.1190 ca        1 1HK      0.113100
      3 C18         1.9770    0.0420    1.0410 ca        1 1HK      0.044100
      4 O2          1.2190    0.2210    2.1870 os        1 1HK     -0.347900
      5 C19         1.9160    0.7190    3.3230 c3        1 1HK      0.121700
      6 C17         3.3660    0.1390    0.9780 ca        1 1HK     -0.157000
      7 C4          4.0240   -0.0800   -0.2390 ca        1 1HK     -0.090300
      8 C3          3.2850   -0.3940   -1.3830 ca        1 1HK     -0.121000
      9 C2          1.8960   -0.4940   -1.3310 ca        1 1HK     -0.135000
     10 C5          5.5080    0.0320   -0.3040 c3        1 1HK     -0.032100
     11 C6          6.1780   -1.2250    0.2290 c3        1 1HK     -0.013100
     12 C7          7.6450   -1.0890    0.3080 cc        1 1HK     -0.065600
     13 C9          8.5180   -1.2690    1.3730 cd        1 1HK     -0.265600
     14 C10         8.6370   -1.6130    2.8090 c3        1 1HK      0.053200
     15 C11        10.1290   -1.5360    3.0520 ca        1 1HK     -0.082300
     16 C16        10.8410   -1.1790    1.8600 ca        1 1HK     -0.108500
     17 C8          9.8620   -1.0080    0.8050 cd        1 1HK      0.337800
     18 N2          9.7740   -0.6960   -0.5050 nc        1 1HK     -0.465800
     19 N1          8.4690   -0.7520   -0.7940 na        1 1HK     -0.040600
     20 C15        12.2190   -1.0550    1.8680 ca        1 1HK     -0.097000
     21 C14        12.9040   -1.2880    3.0710 ca        1 1HK     -0.134000
     22 C13        12.2160   -1.6350    4.2290 ca        1 1HK     -0.126000
     23 C12        10.8180   -1.7620    4.2270 ca        1 1HK     -0.122000
     24 H2         -0.4570   -0.1900    0.7740 ho        1 1HK      0.437000
     25 H192        2.4190    1.6880    3.0860 h1        1 1HK      0.046367
     26 H191        1.1060    0.8660    4.0810 h1        1 1HK      0.046367
     27 H193        2.6610   -0.0320    3.6830 h1        1 1HK      0.046367
     28 H13         3.9530    0.3870    1.8740 ha        1 1HK      0.140000
     29 H4          3.8010   -0.5630   -2.3400 ha        1 1HK      0.135000
     30 H3          1.3100   -0.7400   -2.2280 ha        1 1HK      0.154000
     31 H5          5.8280    0.2110   -1.3650 hc        1 1HK      0.051700
     32 H14         5.8440    0.9180    0.2990 hc        1 1HK      0.051700
     33 H6          5.7880   -1.4480    1.2590 hc        1 1HK      0.065200
     34 H15         5.9120   -2.0990   -0.4260 hc        1 1HK      0.065200
     35 H7          8.0890   -0.8850    3.4610 hc        1 1HK      0.066200
     36 H8          8.2510   -2.6420    3.0260 hc        1 1HK      0.066200
     37 H1          8.1520   -0.5330   -1.7080 hn        1 1HK      0.317700
     38 H12        12.7680   -0.7820    0.9560 ha        1 1HK      0.145000
     39 H11        14.0000   -1.1940    3.0910 ha        1 1HK      0.132000
     40 H10        12.7710   -1.8140    5.1620 ha        1 1HK      0.131000
     41 H9         10.2880   -2.0370    5.1500 ha        1 1HK      0.133000
@<TRIPOS>BOND
     1    1    2 1   
     2    1   24 1   
     3    2    3 ar  
     4    2    9 ar  
     5    3    4 1   
     6    3    6 ar  
     7    4    5 1   
     8    5   25 1   
     9    5   26 1   
    10    5   27 1   
    11    6    7 ar  
    12    6   28 1   
    13    7    8 ar  
    14    7   10 1   
    15    8    9 ar  
    16    8   29 1   
    17    9   30 1   
    18   10   11 1   
    19   10   31 1   
    20   10   32 1   
    21   11   12 1   
    22   11   33 1   
    23   11   34 1   
    24   12   13 2   
    25   12   19 1   
    26   13   14 1   
    27   13   17 1   
    28   14   15 1   
    29   14   35 1   
    30   14   36 1   
    31   15   16 ar  
    32   15   23 ar  
    33   16   17 1   
    34   16   20 ar  
    35   17   18 2   
    36   18   19 1   
    37   19   37 1   
    38   20   21 ar  
    39   20   38 1   
    40   21   22 ar  
    41   21   39 1   
    42   22   23 ar  
    43   22   40 1   
    44   23   41 1   
@<TRIPOS>SUBSTRUCTURE
     1 1HK         1 TEMP              0 ****  ****    0 ROOT
