@<TRIPOS>MOLECULE
1HK
   41    34     1     0     0
SMALL
bcc


@<TRIPOS>ATOM
      1 O1         -6.5160    0.6660   -0.3920 oh        1 1HK     -0.248000
      2 C1         -5.1770    0.7340    0.0340 c1        1 1HK      0.049000
      3 C18        -4.2230    1.3350   -0.7710 c1        1 1HK      0.035000
      4 O2         -4.6100    1.9600   -1.9680 os        1 1HK     -0.212000
      5 C19        -4.5220    1.1250   -3.1010 c3        1 1HK     -0.075000
      6 C17        -2.9010    1.3940   -0.3550 c1        1 1HK     -0.106000
      7 C4         -2.5340    0.8510    0.8660 c1        1 1HK     -0.049000
      8 C3         -3.4880    0.2490    1.6710 c1        1 1HK     -0.101000
      9 C2         -4.8100    0.1900    1.2550 c1        1 1HK     -0.195000
     10 C5         -1.1100    0.9920    1.3590 c2        1 1HK     -0.118000
     11 C6         -0.4380   -0.3640    1.3550 c3        1 1HK     -0.099000
     12 C7          1.0630   -0.1840    1.4460 c2        1 1HK     -0.035000
     13 C9          2.0930   -0.6030    0.6400 c1        1 1HK     -0.191000
     14 C10         2.4160   -1.2830   -0.6170 c2        1 1HK     -0.040000
     15 C11         3.8650   -1.3030   -0.7560 c1        1 1HK     -0.075000
     16 C16         4.4110   -0.6730    0.3580 c1        1 1HK     -0.049000
     17 C8          3.2830   -0.2300    1.2420 c1        1 1HK     -0.098000
     18 N2          2.9830    0.4090    2.4020 n2        1 1HK     -0.033000
     19 N1          1.6040    0.4390    2.5320 n2        1 1HK     -0.186000
     20 C15         5.7970   -0.5310    0.4700 c1        1 1HK     -0.101000
     21 C14         6.6300   -1.0190   -0.5310 c1        1 1HK     -0.130000
     22 C13         6.0830   -1.6510   -1.6490 c1        1 1HK     -0.130000
     23 C12         4.7040   -1.7930   -1.7630 c1        1 1HK     -0.122000
     24 H2         -7.0090    1.2270    0.0900 ho        1 1HK      0.219000
     25 H192       -4.8030    1.6250   -3.8980 h1        1 1HK      0.084667
     26 H191       -5.1070    0.3470   -2.9810 h1        1 1HK      0.084667
     27 H193       -3.5950    0.8230   -3.2140 h1        1 1HK      0.084667
     28 H13        -2.2290    1.8180   -0.9220 ha        1 1HK      0.152000
     29 H4         -3.2300   -0.1330    2.5310 ha        1 1HK      0.139000
     30 H3         -5.4820   -0.2330    1.8220 ha        1 1HK      0.136000
     31 H5         -0.6200    1.6010    0.7690 ha        1 1HK      0.092000
     32 H14        -1.1140    1.3510    2.2680 ha        1 1HK      0.092000
     33 H6         -0.6600   -0.8360    0.5260 hc        1 1HK      0.103500
     34 H15        -0.7510   -0.8850    2.1200 hc        1 1HK      0.103500
     35 H7          2.0720   -2.1980   -0.5960 ha        1 1HK      0.107000
     36 H8          2.0180   -0.7970   -1.3670 ha        1 1HK      0.107000
     37 H1          1.1390    0.8140    3.2210 DU        1 1HK      0.267000
     38 H12         6.1800   -0.0890    1.2520 ha        1 1HK      0.139000
     39 H11         7.5980   -0.9190   -0.4530 ha        1 1HK      0.131500
     40 H10         6.6680   -1.9930   -2.3520 ha        1 1HK      0.131500
     41 H9          4.3220   -2.2350   -2.5450 ha        1 1HK      0.133000
@<TRIPOS>BOND
     1    1    2 1   
     2    1   24 1   
     3    2    9 1   
     4    3    4 1   
     5    3    6 1   
     6    4    5 1   
     7    5   25 1   
     8    5   26 1   
     9    5   27 1   
    10    6   28 1   
    11    7    8 1   
    12    8   29 1   
    13    9   30 1   
    14   10   11 1   
    15   10   31 1   
    16   10   32 1   
    17   11   12 1   
    18   11   33 1   
    19   11   34 1   
    20   12   13 1   
    21   12   19 1   
    22   13   17 1   
    23   14   15 1   
    24   14   35 1   
    25   14   36 1   
    26   15   23 1   
    27   16   20 1   
    28   17   18 1   
    29   18   19 1   
    30   20   38 1   
    31   21   22 1   
    32   21   39 1   
    33   22   40 1   
    34   23   41 1   
@<TRIPOS>SUBSTRUCTURE
     1 1HK         1 TEMP              0 ****  ****    0 ROOT
