@<TRIPOS>MOLECULE
1HK
   41    44     1     0     0
SMALL
bcc


@<TRIPOS>ATOM
      1 O1         -6.6480    0.1750   -0.9490 oh        1 1HK     -0.494100
      2 C1         -5.3510    0.2980   -0.5130 ca        1 1HK      0.112100
      3 C18        -4.6460   -0.7540    0.1160 ca        1 1HK      0.044100
      4 O2         -5.3650   -1.9310    0.2550 os        1 1HK     -0.348900
      5 C19        -4.7290   -2.9670    0.9940 c3        1 1HK      0.121700
      6 C17        -3.3290   -0.5680    0.5330 ca        1 1HK     -0.155000
      7 C4         -2.7040    0.6680    0.3270 ca        1 1HK     -0.090300
      8 C3         -3.4040    1.7070   -0.2950 ca        1 1HK     -0.124000
      9 C2         -4.7190    1.5310   -0.7160 ca        1 1HK     -0.134000
     10 C5         -1.3010    0.8780    0.7790 c3        1 1HK     -0.031100
     11 C6         -0.3410    0.9080   -0.3990 c3        1 1HK     -0.013100
     12 C7          1.0670    1.0330    0.0260 cc        1 1HK     -0.065600
     13 C9          2.1710    0.2340   -0.2390 cd        1 1HK     -0.264600
     14 C10         2.6570   -0.9870   -0.9240 c3        1 1HK      0.053200
     15 C11         4.1340   -0.9940   -0.5920 ca        1 1HK     -0.082300
     16 C16         4.4990    0.1290    0.2210 ca        1 1HK     -0.109500
     17 C8          3.2960    0.9060    0.4520 cd        1 1HK      0.337800
     18 N2          2.8720    2.0230    1.0790 nc        1 1HK     -0.465800
     19 N1          1.5620    2.0970    0.8200 na        1 1HK     -0.040600
     20 C15         5.8060    0.3090    0.6350 ca        1 1HK     -0.097000
     21 C14         6.7680   -0.6340    0.2410 ca        1 1HK     -0.134000
     22 C13         6.4170   -1.7250   -0.5470 ca        1 1HK     -0.126000
     23 C12         5.0930   -1.9130   -0.9710 ca        1 1HK     -0.122000
     24 H2         -6.9570   -0.7170   -0.7270 ho        1 1HK      0.437000
     25 H192       -4.4750   -2.6190    2.0250 h1        1 1HK      0.046367
     26 H191       -5.5030   -3.7750    1.0270 h1        1 1HK      0.046367
     27 H193       -3.8120   -3.3200    0.4620 h1        1 1HK      0.046367
     28 H13        -2.7770   -1.3820    1.0240 ha        1 1HK      0.140000
     29 H4         -2.9110    2.6770   -0.4540 ha        1 1HK      0.134000
     30 H3         -5.2740    2.3440   -1.2060 ha        1 1HK      0.154000
     31 H5         -1.2380    1.8470    1.3440 hc        1 1HK      0.051200
     32 H14        -0.9950    0.0620    1.4870 hc        1 1HK      0.051200
     33 H6         -0.4460   -0.0390   -0.9940 hc        1 1HK      0.065200
     34 H15        -0.6110    1.7620   -1.0790 hc        1 1HK      0.065200
     35 H7          2.1570   -1.9110   -0.5370 hc        1 1HK      0.066700
     36 H8          2.4990   -0.9360   -2.0320 hc        1 1HK      0.066700
     37 H1          1.0200    2.8330    1.2050 hn        1 1HK      0.317700
     38 H12         6.0890    1.1700    1.2580 ha        1 1HK      0.145000
     39 H11         7.8120   -0.5030    0.5630 ha        1 1HK      0.132000
     40 H10         7.1860   -2.4530   -0.8460 ha        1 1HK      0.131000
     41 H9          4.8300   -2.7800   -1.5940 ha        1 1HK      0.133000
@<TRIPOS>BOND
     1    1    2 1   
     2    1   24 1   
     3    2    3 ar  
     4    2    9 ar  
     5    3    4 1   
     6    3    6 ar  
     7    4    5 1   
     8    5   25 1   
     9    5   26 1   
    10    5   27 1   
    11    6    7 ar  
    12    6   28 1   
    13    7    8 ar  
    14    7   10 1   
    15    8    9 ar  
    16    8   29 1   
    17    9   30 1   
    18   10   11 1   
    19   10   31 1   
    20   10   32 1   
    21   11   12 1   
    22   11   33 1   
    23   11   34 1   
    24   12   13 2   
    25   12   19 1   
    26   13   14 1   
    27   13   17 1   
    28   14   15 1   
    29   14   35 1   
    30   14   36 1   
    31   15   16 ar  
    32   15   23 ar  
    33   16   17 1   
    34   16   20 ar  
    35   17   18 2   
    36   18   19 1   
    37   19   37 1   
    38   20   21 ar  
    39   20   38 1   
    40   21   22 ar  
    41   21   39 1   
    42   22   23 ar  
    43   22   40 1   
    44   23   41 1   
@<TRIPOS>SUBSTRUCTURE
     1 1HK         1 TEMP              0 ****  ****    0 ROOT
