@<TRIPOS>MOLECULE
1HL
   47    49     1     0     0
SMALL
bcc


@<TRIPOS>ATOM
      1 C1          0.5500   -0.3100   -0.3840 c3        1 1HL      0.093100
      2 C2          1.7180    0.4070    0.2590 c3        1 1HL     -0.164400
      3 O3          0.3810   -1.6480    0.1390 os        1 1HL     -0.424400
      4 C4          0.6320   -1.7300    1.5000 c2        1 1HL      0.681500
      5 N5          1.1110   -0.8630    2.3270 n2        1 1HL     -0.584900
      6 C6          1.6680    0.4020    1.8090 c3        1 1HL      0.213500
      7 C7          0.9300    1.6250    2.3460 ca        1 1HL     -0.118300
      8 C8         -0.0970    1.5180    3.2870 ca        1 1HL     -0.067000
      9 C9         -0.7200    2.6660    3.8120 ca        1 1HL     -0.064400
     10 C10        -0.3220    3.9520    3.4080 ca        1 1HL     -0.046000
     11 C11         0.7020    4.0750    2.4820 ca        1 1HL     -0.137000
     12 C12         1.3370    2.9310    1.9560 ca        1 1HL      0.197900
     13 F13         2.3460    3.1250    1.0830 f         1 1HL     -0.094900
     14 N14         0.2490   -3.1050    1.9130 n4        1 1HL     -0.792600
     15 C15         3.1310    0.4910    2.3200 c3        1 1HL     -0.095100
     16 N16        -1.7960    2.5250    4.7970 n4        1 1HL     -0.535200
     17 C17        -1.2560    2.1040    6.1610 c         1 1HL      0.486600
     18 C18        -0.9770    3.1710    7.1400 ca        1 1HL      0.295800
     19 O19        -1.1280    0.8970    6.3060 o         1 1HL     -0.437100
     20 N20        -1.1390    4.4780    6.7710 nb        1 1HL     -0.682000
     21 C21        -0.8840    5.4150    7.6810 ca        1 1HL      0.449200
     22 C22        -0.4520    5.1130    9.0090 ca        1 1HL     -0.013300
     23 C23        -0.2910    3.7760    9.3740 ca        1 1HL     -0.065000
     24 C24        -0.5570    2.7770    8.4230 ca        1 1HL     -0.126300
     25 C25        -0.2000    6.1680    9.9210 cg        1 1HL      0.172800
     26 N26         0.0080    7.0340   10.6700 n1        1 1HL     -0.224800
     27 C27         0.7930   -0.5380   -1.9300 c3        1 1HL      0.650900
     28 F28        -0.2440   -1.1990   -2.5230 f         1 1HL     -0.200633
     29 F29         0.9270    0.6500   -2.5920 f         1 1HL     -0.200633
     30 F30         1.9170   -1.2650   -2.1980 f         1 1HL     -0.200633
     31 H1         -0.4270    0.2310   -0.2550 h1        1 1HL      0.111700
     32 H2          2.6750   -0.0890   -0.0700 hc        1 1HL      0.122200
     33 H3          1.7450    1.4550   -0.1430 hc        1 1HL      0.122200
     34 H4         -0.4170    0.5290    3.6580 ha        1 1HL      0.161000
     35 H5         -0.7950    4.8640    3.8180 ha        1 1HL      0.187000
     36 H6          1.0390    5.0750    2.1500 ha        1 1HL      0.204000
     37 H7          0.9250   -3.7620    1.4900 hn        1 1HL      0.494800
     38 H8         -0.6900   -3.3140    1.5460 hn        1 1HL      0.494800
     39 H9          3.7160   -0.4100    2.0160 hc        1 1HL      0.078700
     40 H10         3.6130    1.3930    1.8690 hc        1 1HL      0.078700
     41 H11         3.1520    0.5790    3.4320 hc        1 1HL      0.078700
     42 H12        -2.4510    1.8040    4.4680 hn        1 1HL      0.474300
     43 H13        -1.0270    6.4680    7.3610 h4        1 1HL      0.072100
     44 H14         0.0390    3.4990   10.3910 ha        1 1HL      0.197000
     45 H15        -0.4410    1.7100    8.6810 ha        1 1HL      0.188000
     46 H143        0.2650   -3.2030    2.9370 hn        1 1HL      0.494800
     47 H162       -2.3000    3.4200    4.8770 hn        1 1HL      0.474300
@<TRIPOS>BOND
     1    1    2 1   
     2    1    3 1   
     3    1   27 1   
     4    1   31 1   
     5    2    6 1   
     6    2   32 1   
     7    2   33 1   
     8    3    4 1   
     9    4    5 2   
    10    4   14 1   
    11    5    6 1   
    12    6    7 1   
    13    6   15 1   
    14    7    8 ar  
    15    7   12 ar  
    16    8    9 ar  
    17    8   34 1   
    18    9   10 ar  
    19    9   16 1   
    20   10   11 ar  
    21   10   35 1   
    22   11   12 ar  
    23   11   36 1   
    24   12   13 1   
    25   14   37 1   
    26   14   38 1   
    27   14   46 1   
    28   15   39 1   
    29   15   40 1   
    30   15   41 1   
    31   16   17 1   
    32   16   42 1   
    33   16   47 1   
    34   17   18 1   
    35   17   19 2   
    36   18   20 ar  
    37   18   24 ar  
    38   20   21 ar  
    39   21   22 ar  
    40   21   43 1   
    41   22   23 ar  
    42   22   25 1   
    43   23   24 ar  
    44   23   44 1   
    45   24   45 1   
    46   25   26 3   
    47   27   28 1   
    48   27   29 1   
    49   27   30 1   
@<TRIPOS>SUBSTRUCTURE
     1 1HL         1 TEMP              0 ****  ****    0 ROOT
