@<TRIPOS>MOLECULE
1HL
   46    48     1     0     0
SMALL
bcc


@<TRIPOS>ATOM
      1 C1         -0.0200    0.0940   -0.1130 c3        1 1HL      0.108100
      2 C2          1.4880    0.0190    0.0020 c3        1 1HL     -0.161400
      3 O3         -0.7010   -0.9320    0.6470 os        1 1HL     -0.441400
      4 C4          0.0210   -1.3870    1.7440 c2        1 1HL      0.659500
      5 N5          1.1710   -1.0450    2.2120 n2        1 1HL     -0.552900
      6 C6          1.9600   -0.0330    1.4770 c3        1 1HL      0.218500
      7 C7          1.8770    1.3430    2.1230 ca        1 1HL     -0.122300
      8 C8          1.2030    1.5430    3.3310 ca        1 1HL     -0.164000
      9 C9          1.1250    2.8140    3.9460 ca        1 1HL      0.077600
     10 C10         1.7540    3.9120    3.3140 ca        1 1HL     -0.107000
     11 C11         2.4440    3.7230    2.1290 ca        1 1HL     -0.121000
     12 C12         2.5250    2.4510    1.5300 ca        1 1HL      0.104900
     13 F13         3.2420    2.3330    0.3850 f         1 1HL     -0.134900
     14 N14        -0.8120   -2.4440    2.3730 nz        1 1HL     -0.790600
     15 C15         3.4350   -0.4900    1.4910 c3        1 1HL     -0.089100
     16 N16         0.4510    2.9280    5.1690 ns        1 1HL     -0.461100
     17 C17        -0.0590    4.1020    5.7110 c         1 1HL      0.582600
     18 C18        -0.7740    4.0050    7.0370 ca        1 1HL      0.357800
     19 O19         0.0670    5.2070    5.1570 o         1 1HL     -0.567100
     20 N20        -1.2900    2.8200    7.4540 nb        1 1HL     -0.674000
     21 C21        -1.9330    2.8000    8.6280 ca        1 1HL      0.430200
     22 C22        -2.0940    3.9470    9.4480 ca        1 1HL     -0.090300
     23 C23        -1.5590    5.1630    9.0070 ca        1 1HL     -0.058000
     24 C24        -0.8880    5.1970    7.7800 ca        1 1HL     -0.180300
     25 C25        -2.7860    3.8470   10.6810 cg        1 1HL      0.212800
     26 N26        -3.3550    3.7630   11.6920 n1        1 1HL     -0.307800
     27 C27        -0.4940   -0.1610   -1.5960 c3        1 1HL      0.637900
     28 F28        -1.8510   -0.0820   -1.7350 f         1 1HL     -0.211633
     29 F29         0.0320    0.7500   -2.4680 f         1 1HL     -0.211633
     30 F30        -0.1430   -1.3940   -2.0750 f         1 1HL     -0.211633
     31 H1         -0.4340    1.0820    0.2340 h1        1 1HL      0.127700
     32 H2          1.8610   -0.8960   -0.5350 hc        1 1HL      0.115700
     33 H3          1.9310    0.9090   -0.5200 hc        1 1HL      0.115700
     34 H4          0.7340    0.6920    3.8480 ha        1 1HL      0.127000
     35 H5          1.7050    4.9230    3.7560 ha        1 1HL      0.194000
     36 H6          2.9510    4.5730    1.6410 ha        1 1HL      0.174000
     37 H7         -0.3420   -2.8320    3.2020 hn        1 1HL      0.487133
     38 H8         -1.7160   -2.0310    2.6380 hn        1 1HL      0.487133
     39 H9          3.5440   -1.5080    1.0470 hc        1 1HL      0.072033
     40 H10         3.8290   -0.5010    2.5360 hc        1 1HL      0.072033
     41 H11         4.0340    0.2340    0.8850 hc        1 1HL      0.072033
     42 H12         0.2670    2.0720    5.6460 hn        1 1HL      0.337500
     43 H13        -2.3450    1.8220    8.9410 h4        1 1HL      0.042100
     44 H14        -1.6640    6.0780    9.6110 ha        1 1HL      0.171000
     45 H15        -0.4630    6.1340    7.3880 ha        1 1HL      0.184000
     46 H143       -0.9710   -3.1860    1.6770 hn        1 1HL      0.487133
@<TRIPOS>BOND
     1    1    2 1   
     2    1    3 1   
     3    1   27 1   
     4    1   31 1   
     5    2    6 1   
     6    2   32 1   
     7    2   33 1   
     8    3    4 1   
     9    4    5 2   
    10    4   14 1   
    11    5    6 1   
    12    6    7 1   
    13    6   15 1   
    14    7    8 ar  
    15    7   12 ar  
    16    8    9 ar  
    17    8   34 1   
    18    9   10 ar  
    19    9   16 1   
    20   10   11 ar  
    21   10   35 1   
    22   11   12 ar  
    23   11   36 1   
    24   12   13 1   
    25   14   37 1   
    26   14   38 1   
    27   14   46 1   
    28   15   39 1   
    29   15   40 1   
    30   15   41 1   
    31   16   17 1   
    32   16   42 1   
    33   17   18 1   
    34   17   19 2   
    35   18   20 ar  
    36   18   24 ar  
    37   20   21 ar  
    38   21   22 ar  
    39   21   43 1   
    40   22   23 ar  
    41   22   25 1   
    42   23   24 ar  
    43   23   44 1   
    44   24   45 1   
    45   25   26 3   
    46   27   28 1   
    47   27   29 1   
    48   27   30 1   
@<TRIPOS>SUBSTRUCTURE
     1 1HL         1 TEMP              0 ****  ****    0 ROOT
