@<TRIPOS>MOLECULE
1HL
   45    47     1     0     0
SMALL
bcc


@<TRIPOS>ATOM
      1 C1         -3.5230   -0.8980    0.5080 c3        1 1HL      0.120100
      2 C2         -3.8440    0.2580   -0.4170 c3        1 1HL     -0.150400
      3 O3         -3.2450   -2.1050   -0.1990 os        1 1HL     -0.461400
      4 C4         -2.5150   -1.9330   -1.3970 c2        1 1HL      0.791500
      5 N5         -2.2580   -0.8090   -2.0130 n2        1 1HL     -0.710900
      6 C6         -2.6980    0.4620   -1.4410 c3        1 1HL      0.224500
      7 C7         -1.5560    1.2310   -0.7750 ca        1 1HL     -0.091300
      8 C8         -0.2630    0.7070   -0.7490 ca        1 1HL     -0.140000
      9 C9          0.8190    1.4020   -0.1560 ca        1 1HL      0.049600
     10 C10         0.5800    2.6630    0.4240 ca        1 1HL     -0.126000
     11 C11        -0.6990    3.1990    0.4010 ca        1 1HL     -0.142000
     12 C12        -1.7660    2.5040   -0.1940 ca        1 1HL      0.096900
     13 F13        -2.9860    3.0990   -0.1850 f         1 1HL     -0.143900
     14 N14        -2.0590   -3.1920   -1.8080 nh        1 1HL     -0.876800
     15 C15        -3.2500    1.3360   -2.5890 c3        1 1HL     -0.080100
     16 N16         2.0920    0.8040   -0.2020 n         1 1HL     -0.445100
     17 C17         3.2010    1.1830    0.5300 c         1 1HL      0.576600
     18 C18         4.4660    0.3680    0.3550 ca        1 1HL      0.370800
     19 O19         3.2260    2.1670    1.2930 o         1 1HL     -0.588100
     20 N20         4.4080   -0.9090   -0.1000 nb        1 1HL     -0.659000
     21 C21         5.5580   -1.5860   -0.2110 ca        1 1HL      0.434200
     22 C22         6.8210   -1.0340    0.1200 ca        1 1HL     -0.110300
     23 C23         6.8700    0.2850    0.5890 ca        1 1HL     -0.063000
     24 C24         5.6760    0.9990    0.7110 ca        1 1HL     -0.192300
     25 C25         7.9990   -1.8080   -0.0240 cg        1 1HL      0.226800
     26 N26         8.9660   -2.4440   -0.1430 n1        1 1HL     -0.335800
     27 C27        -4.7560   -1.2460    1.4190 c3        1 1HL      0.628900
     28 F28        -4.5250   -2.2880    2.2770 f         1 1HL     -0.229967
     29 F29        -5.1260   -0.1990    2.2240 f         1 1HL     -0.229967
     30 F30        -5.8910   -1.5890    0.7340 f         1 1HL     -0.229967
     31 H1         -2.6520   -0.6700    1.1830 h1        1 1HL      0.096700
     32 H2         -4.7930    0.0370   -0.9730 hc        1 1HL      0.088200
     33 H3         -4.0110    1.1830    0.1900 hc        1 1HL      0.088200
     34 H4         -0.0650   -0.2740   -1.2130 ha        1 1HL      0.158000
     35 H5          1.3930    3.2360    0.9010 ha        1 1HL      0.178000
     36 H6         -0.8900    4.1860    0.8500 ha        1 1HL      0.154000
     37 H7         -2.5610   -3.9530   -1.4050 hn        1 1HL      0.422300
     38 H8         -1.8830   -3.2740   -2.7850 hn        1 1HL      0.422300
     39 H9         -3.6820    2.2730   -2.1660 hc        1 1HL      0.051367
     40 H10        -2.4320    1.5970   -3.3010 hc        1 1HL      0.051367
     41 H11        -4.0510    0.7920   -3.1450 hc        1 1HL      0.051367
     42 H12         2.1460   -0.0390   -0.7340 hn        1 1HL      0.341500
     43 H13         5.4730   -2.6250   -0.5810 h4        1 1HL      0.042100
     44 H14         7.8300    0.7510    0.8590 ha        1 1HL      0.160000
     45 H15         5.6620    2.0340    1.0890 ha        1 1HL      0.181000
@<TRIPOS>BOND
     1    1    2 1   
     2    1    3 1   
     3    1   27 1   
     4    1   31 1   
     5    2    6 1   
     6    2   32 1   
     7    2   33 1   
     8    3    4 1   
     9    4    5 2   
    10    4   14 1   
    11    5    6 1   
    12    6    7 1   
    13    6   15 1   
    14    7    8 ar  
    15    7   12 ar  
    16    8    9 ar  
    17    8   34 1   
    18    9   10 ar  
    19    9   16 1   
    20   10   11 ar  
    21   10   35 1   
    22   11   12 ar  
    23   11   36 1   
    24   12   13 1   
    25   14   37 1   
    26   14   38 1   
    27   15   39 1   
    28   15   40 1   
    29   15   41 1   
    30   16   17 1   
    31   16   42 1   
    32   17   18 1   
    33   17   19 2   
    34   18   20 ar  
    35   18   24 ar  
    36   20   21 ar  
    37   21   22 ar  
    38   21   43 1   
    39   22   23 ar  
    40   22   25 1   
    41   23   24 ar  
    42   23   44 1   
    43   24   45 1   
    44   25   26 3   
    45   27   28 1   
    46   27   29 1   
    47   27   30 1   
@<TRIPOS>SUBSTRUCTURE
     1 1HL         1 TEMP              0 ****  ****    0 ROOT
