@<TRIPOS>MOLECULE
1HL
   46    48     1     0     0
SMALL
bcc


@<TRIPOS>ATOM
      1 C1         -0.0140    0.1000   -0.1150 c3        1 1HL      0.108100
      2 C2          1.4920    0.0160    0.0050 c3        1 1HL     -0.161400
      3 O3         -0.7040   -0.9230    0.6410 os        1 1HL     -0.441400
      4 C4          0.0110   -1.3830    1.7400 c2        1 1HL      0.659500
      5 N5          1.1610   -1.0490    2.2130 n2        1 1HL     -0.552900
      6 C6          1.9590   -0.0410    1.4820 c3        1 1HL      0.218500
      7 C7          1.8810    1.3360    2.1290 ca        1 1HL     -0.122300
      8 C8          1.2040    1.5380    3.3340 ca        1 1HL     -0.164000
      9 C9          1.1320    2.8090    3.9500 ca        1 1HL      0.077600
     10 C10         1.7690    3.9030    3.3220 ca        1 1HL     -0.107000
     11 C11         2.4620    3.7120    2.1400 ca        1 1HL     -0.121000
     12 C12         2.5380    2.4400    1.5400 ca        1 1HL      0.104900
     13 F13         3.2580    2.3190    0.3970 f         1 1HL     -0.134900
     14 N14        -0.8310   -2.4360    2.3650 n4        1 1HL     -0.790600
     15 C15         3.4300   -0.5060    1.5010 c3        1 1HL     -0.089100
     16 N16         0.4540    2.9260    5.1710 n         1 1HL     -0.461100
     17 C17        -0.0520    4.1020    5.7130 c         1 1HL      0.582600
     18 C18        -0.7720    4.0080    7.0360 ca        1 1HL      0.357800
     19 O19         0.0840    5.2070    5.1600 o         1 1HL     -0.567100
     20 N20        -1.2980    2.8250    7.4490 nb        1 1HL     -0.674000
     21 C21        -1.9450    2.8080    8.6210 ca        1 1HL      0.430200
     22 C22        -2.1030    3.9550    9.4410 ca        1 1HL     -0.090300
     23 C23        -1.5580    5.1680    9.0050 ca        1 1HL     -0.058000
     24 C24        -0.8820    5.1990    7.7800 ca        1 1HL     -0.180300
     25 C25        -2.8000    3.8570   10.6710 cg        1 1HL      0.212800
     26 N26        -3.3730    3.7750   11.6800 n1        1 1HL     -0.307800
     27 C27        -0.4840   -0.1510   -1.6000 c3        1 1HL      0.637900
     28 F28        -1.8410   -0.0640   -1.7440 f         1 1HL     -0.211633
     29 F29         0.0500    0.7580   -2.4700 f         1 1HL     -0.211633
     30 F30        -0.1390   -1.3860   -2.0790 f         1 1HL     -0.211633
     31 H1         -0.4240    1.0900    0.2310 h1        1 1HL      0.127700
     32 H2          1.9430    0.9040   -0.5150 hc        1 1HL      0.115700
     33 H3          1.8620   -0.9010   -0.5310 hc        1 1HL      0.115700
     34 H4          0.7280    0.6890    3.8490 ha        1 1HL      0.127000
     35 H5          1.7240    4.9150    3.7650 ha        1 1HL      0.194000
     36 H6          2.9760    4.5600    1.6540 ha        1 1HL      0.174000
     37 H7         -0.9890   -3.1770    1.6680 hn        1 1HL      0.487133
     38 H8         -0.3680   -2.8260    3.1960 hn        1 1HL      0.487133
     39 H9          3.5360   -1.5240    1.0560 hc        1 1HL      0.072033
     40 H10         3.8200   -0.5200    2.5470 hc        1 1HL      0.072033
     41 H11         4.0360    0.2150    0.8980 hc        1 1HL      0.072033
     42 H12         0.2620    2.0700    5.6460 hn        1 1HL      0.337500
     43 H13        -2.3640    1.8320    8.9310 h4        1 1HL      0.042100
     44 H14        -1.6600    6.0830    9.6090 ha        1 1HL      0.171000
     45 H15        -0.4490    6.1350    7.3910 ha        1 1HL      0.184000
     46 H143       -1.7340   -2.0190    2.6240 hn        1 1HL      0.487133
@<TRIPOS>BOND
     1    1    2 1   
     2    1    3 1   
     3    1   27 1   
     4    1   31 1   
     5    2    6 1   
     6    2   32 1   
     7    2   33 1   
     8    3    4 1   
     9    4    5 2   
    10    4   14 1   
    11    5    6 1   
    12    6    7 1   
    13    6   15 1   
    14    7    8 ar  
    15    7   12 ar  
    16    8    9 ar  
    17    8   34 1   
    18    9   10 ar  
    19    9   16 1   
    20   10   11 ar  
    21   10   35 1   
    22   11   12 ar  
    23   11   36 1   
    24   12   13 1   
    25   14   37 1   
    26   14   38 1   
    27   14   46 1   
    28   15   39 1   
    29   15   40 1   
    30   15   41 1   
    31   16   17 1   
    32   16   42 1   
    33   17   18 1   
    34   17   19 2   
    35   18   20 ar  
    36   18   24 ar  
    37   20   21 ar  
    38   21   22 ar  
    39   21   43 1   
    40   22   23 ar  
    41   22   25 1   
    42   23   24 ar  
    43   23   44 1   
    44   24   45 1   
    45   25   26 3   
    46   27   28 1   
    47   27   29 1   
    48   27   30 1   
@<TRIPOS>SUBSTRUCTURE
     1 1HL         1 TEMP              0 ****  ****    0 ROOT
