@<TRIPOS>MOLECULE
1HL
   45    40     1     0     0
SMALL
bcc


@<TRIPOS>ATOM
      1 C1          0.3900   -0.9880   -3.8570 c3        1 1HL      0.009000
      2 C2          1.4480   -1.1820   -3.6130 c3        1 1HL     -0.229000
      3 O3         -0.5900   -2.1250   -3.4670 os        1 1HL     -0.256000
      4 C4         -0.5170   -2.5740   -2.2320 c2        1 1HL      0.217000
      5 N5          0.9360   -2.4800   -1.5690 n1        1 1HL     -0.296000
      6 C6          1.7430   -1.5020   -2.0820 c2        1 1HL      0.092000
      7 C7          1.3200   -0.3140   -1.3890 c1        1 1HL     -0.084000
      8 C8          0.5970   -0.4200   -0.2110 c1        1 1HL     -0.141000
      9 C9          0.2760    0.7190    0.5100 c1        1 1HL      0.058000
     10 C10         0.6770    1.9650    0.0540 c1        1 1HL     -0.129000
     11 C11         1.3990    2.0720   -1.1240 c1        1 1HL     -0.142000
     12 C12         1.7210    0.9330   -1.8460 c1        1 1HL      0.061000
     13 F13         2.4700    1.0310   -2.9510 f         1 1HL     -0.109000
     14 N14        -1.4430   -3.5440   -1.7750 n3        1 1HL     -0.314000
     15 C15         3.2220   -1.5830   -1.7810 c3        1 1HL     -0.198000
     16 N16        -0.4150    0.6040    1.7470 n         1 1HL     -0.298000
     17 C17        -0.5840    1.7470    2.5750 c2        1 1HL      0.360000
     18 C18        -1.3240    1.6270    3.8880 c2        1 1HL     -0.048000
     19 O19        -0.1390    2.8210    2.2250 o         1 1HL     -0.349000
     20 N20        -1.5420    0.4060    4.4510 n2        1 1HL     -0.133000
     21 C21        -2.2090    0.3100    5.6360 c1        1 1HL     -0.031000
     22 C22        -2.6680    1.4550    6.2680 c1        1 1HL     -0.041000
     23 C23        -2.4510    2.6790    5.7050 c1        1 1HL     -0.063000
     24 C24        -1.7820    2.7740    4.5180 c1        1 1HL     -0.127000
     25 C25        -3.4490    1.3440    7.5600 c1        1 1HL     -0.103000
     26 N26        -4.0390    1.2610    8.5350 n1        1 1HL     -0.010000
     27 C27         0.2720   -0.7420   -5.5450 c3        1 1HL      0.415000
     28 F28         0.5140   -1.8960   -6.1810 f         1 1HL     -0.158667
     29 F29        -0.9600   -0.3150   -5.8490 f         1 1HL     -0.158667
     30 F30         1.1700    0.1750   -5.9260 f         1 1HL     -0.158667
     31 H1          0.1110   -0.1680   -3.4020 h1        1 1HL      0.135000
     32 H2          1.9720   -0.3940   -3.8680 hc        1 1HL      0.127500
     33 H3          1.7540   -1.9430   -4.1500 hc        1 1HL      0.127500
     34 H4          0.3150   -1.2980    0.1110 ha        1 1HL      0.158000
     35 H5          0.4500    2.7660    0.5610 ha        1 1HL      0.180000
     36 H6          1.6810    2.9490   -1.4460 ha        1 1HL      0.154000
     37 H7         -1.2900   -3.9890   -0.9910 hn        1 1HL      0.217000
     38 H8         -2.1830   -3.7400   -2.2730 hn        1 1HL      0.217000
     39 H9          3.7210   -1.0810   -2.4590 hc        1 1HL      0.090667
     40 H10         3.3970   -1.1990   -0.8960 hc        1 1HL      0.090667
     41 H11         3.5070   -2.5200   -1.7930 hc        1 1HL      0.090667
     42 H12        -0.7140   -0.2100    2.0290 hn        1 1HL      0.255000
     43 H13        -2.3640   -0.5650    6.0380 ha        1 1HL      0.179000
     44 H14        -2.7730    3.4850    6.1490 ha        1 1HL      0.160000
     45 H15        -1.6260    3.6480    4.1150 ha        1 1HL      0.181000
@<TRIPOS>BOND
     1    1    2 1   
     2    1    3 1   
     3    1   27 1   
     4    1   31 1   
     5    2    6 1   
     6    2   32 1   
     7    2   33 1   
     8    3    4 1   
     9    4    5 1   
    10    4   14 1   
    11    6    7 1   
    12    6   15 1   
    13    7    8 1   
    14    8   34 1   
    15    9   10 1   
    16    9   16 1   
    17   10   35 1   
    18   11   12 1   
    19   11   36 1   
    20   14   37 1   
    21   14   38 1   
    22   15   39 1   
    23   15   40 1   
    24   15   41 1   
    25   16   17 1   
    26   16   42 1   
    27   17   18 1   
    28   17   19 1   
    29   18   20 1   
    30   18   24 1   
    31   20   21 1   
    32   21   43 1   
    33   22   23 1   
    34   22   25 1   
    35   23   44 1   
    36   24   45 1   
    37   25   26 1   
    38   27   28 1   
    39   27   29 1   
    40   27   30 1   
@<TRIPOS>SUBSTRUCTURE
     1 1HL         1 TEMP              0 ****  ****    0 ROOT
