@<TRIPOS>MOLECULE
1HM
   45    41     1     0     0
SMALL
bcc


@<TRIPOS>ATOM
      1 C1         -0.1280    2.0630   -3.6040 c3        1 1HM      0.016000
      2 C2          0.9670    1.9390   -3.7350 c3        1 1HM     -0.222000
      3 C4          0.0280    3.3450   -1.5480 c1        1 1HM      0.223000
      4 C6          1.8000    1.7880   -2.3810 c3        1 1HM      0.068000
      5 C12         1.3490   -0.6360   -2.4450 c1        1 1HM      0.070000
      6 C15         3.2720    1.4480   -2.6340 c3        1 1HM      0.018000
      7 C17        -0.6190   -1.6880    2.1470 c1        1 1HM      0.360000
      8 C18        -1.0300   -1.6800    3.5950 c2        1 1HM     -0.046000
      9 O3         -0.5460    3.2530   -2.7160 o         1 1HM     -0.244000
     10 N5          1.5300    2.7460   -1.4810 n2        1 1HM     -0.305000
     11 C7          1.2650    0.5680   -1.7650 c2        1 1HM     -0.091000
     12 C8          0.8730    0.5830   -0.4190 c2        1 1HM     -0.121000
     13 C9          0.5680   -0.6150    0.2330 c1        1 1HM      0.051000
     14 C10         0.6530   -1.8180   -0.4520 c1        1 1HM     -0.120000
     15 C11         1.0430   -1.8330   -1.7910 c2        1 1HM     -0.146000
     16 F13         1.9880   -1.3580   -3.3750 f         1 1HM     -0.099000
     17 N14        -0.3670    4.3500   -0.6490 n3        1 1HM     -0.318000
     18 N16         0.1800   -0.6030    1.6140 n2        1 1HM     -0.297000
     19 O19        -0.9540   -2.5940    1.4330 o         1 1HM     -0.350000
     20 N20        -1.1550   -3.0370    3.5390 n1        1 1HM     -0.132000
     21 C21        -1.8880   -3.6920    4.4750 c1        1 1HM     -0.032000
     22 C22        -2.5110   -2.9810    5.4910 c1        1 1HM     -0.043000
     23 C23        -2.3860   -1.6240    5.5470 c1        1 1HM     -0.062000
     24 C24        -1.6490   -0.9690    4.6060 c2        1 1HM     -0.128000
     25 C25        -3.2640   -3.7170    6.5750 c1        1 1HM     -0.102000
     26 N26        -3.8350   -4.2750    7.3980 n1        1 1HM     -0.012000
     27 C27        -0.7370    0.6450   -2.9030 c3        1 1HM      0.387000
     28 F28        -0.2930    0.5430   -1.6570 f         1 1HM     -0.160000
     29 F29        -0.3290   -0.4120   -3.6090 f         1 1HM     -0.160000
     30 F30        -2.0750    0.6900   -2.8970 f         1 1HM     -0.160000
     31 F31         3.3850    0.1430   -2.9610 f         1 1HM     -0.164000
     32 H1         -0.5380    2.1760   -4.4910 h1        1 1HM      0.151000
     33 H2          1.1230    1.1410   -4.2820 hc        1 1HM      0.134000
     34 H3          1.3080    2.7180   -4.2210 hc        1 1HM      0.134000
     35 H4          3.6120    1.9970   -3.3670 h1        1 1HM      0.098000
     36 H5          3.7930    1.6280   -1.8220 h1        1 1HM      0.098000
     37 H6          0.8120    1.4380    0.0660 ha        1 1HM      0.159000
     38 H7          0.4420   -2.6500    0.0010 ha        1 1HM      0.177000
     39 H8          1.1030   -2.6760   -2.2690 ha        1 1HM      0.154000
     40 H9         -1.1820    4.7490   -0.7430 hn        1 1HM      0.222000
     41 H10         0.2200    4.6560   -0.0220 hn        1 1HM      0.222000
     42 H11         0.5280    0.0350    2.1840 hn        1 1HM      0.255000
     43 H12        -1.9760   -4.6580    4.4340 ha        1 1HM      0.178000
     44 H13        -2.8210   -1.1260    6.2560 ha        1 1HM      0.160000
     45 H14        -1.5600   -0.0000    4.6450 ha        1 1HM      0.180000
@<TRIPOS>BOND
     1    1    2 1   
     2    1    9 1   
     3    1   27 1   
     4    1   32 1   
     5    2    4 1   
     6    2   33 1   
     7    2   34 1   
     8    3   10 1   
     9    3   17 1   
    10    4    6 1   
    11    4   10 1   
    12    4   11 1   
    13    5   11 1   
    14    5   15 1   
    15    6   31 1   
    16    6   35 1   
    17    6   36 1   
    18    7    8 1   
    19    7   19 1   
    20    8   20 1   
    21    8   24 1   
    22   11   12 1   
    23   12   13 1   
    24   12   37 1   
    25   13   18 1   
    26   14   15 1   
    27   14   38 1   
    28   15   39 1   
    29   17   40 1   
    30   17   41 1   
    31   18   42 1   
    32   21   22 1   
    33   21   43 1   
    34   22   25 1   
    35   23   24 1   
    36   23   44 1   
    37   24   45 1   
    38   25   26 1   
    39   27   28 1   
    40   27   29 1   
    41   27   30 1   
@<TRIPOS>SUBSTRUCTURE
     1 1HM         1 TEMP              0 ****  ****    0 ROOT
