@<TRIPOS>MOLECULE
1HM
   46    48     1     0     0
SMALL
bcc


@<TRIPOS>ATOM
      1 C1          0.0000    0.0000    0.0000 c3        1 1HM      0.152100
      2 C2          1.5350    0.0000    0.0000 c3        1 1HM     -0.151400
      3 C4          0.1580   -1.5140    1.8200 c2        1 1HM      0.381500
      4 C6          2.0120    0.0000    1.4570 c3        1 1HM      0.123500
      5 C12         2.3840    2.4770    1.5090 ca        1 1HM      0.051900
      6 C15         3.5050   -0.3270    1.5040 c3        1 1HM     -0.064100
      7 C17         0.1730    3.8290    5.7610 c         1 1HM      0.496600
      8 C18        -0.7710    4.0530    6.8820 ca        1 1HM      0.345800
      9 O3         -0.4420   -1.1910    0.6590 os        1 1HM     -0.389400
     10 N5          1.2710   -1.0040    2.2180 n2        1 1HM     -0.414900
     11 C7          1.7760    1.3610    2.0610 ca        1 1HM     -0.178300
     12 C8          0.9560    1.4930    3.1630 ca        1 1HM     -0.106000
     13 C9          0.7400    2.7480    3.7190 ca        1 1HM     -0.058400
     14 C10         1.3500    3.8660    3.1650 ca        1 1HM     -0.067000
     15 C11         2.1710    3.7280    2.0620 ca        1 1HM     -0.061000
     16 F13         3.1900    2.3430    0.4340 f         1 1HM     -0.119900
     17 N14        -0.4540   -2.4430    2.6270 nz        1 1HM      0.085400
     18 N16        -0.0920    2.8850    4.8360 ns        1 1HM     -0.020100
     19 O19         1.1840    4.4960    5.6770 o         1 1HM     -0.593100
     20 N20        -1.8720    3.3150    6.9690 nb        1 1HM     -0.554000
     21 C21        -2.7370    3.4770    7.9440 ca        1 1HM      0.419200
     22 C22        -2.5260    4.4410    8.9340 ca        1 1HM     -0.114300
     23 C23        -1.3770    5.2370    8.8730 ca        1 1HM     -0.066000
     24 C24        -0.4890    5.0310    7.8330 ca        1 1HM     -0.157300
     25 C25        -3.4740    4.6130    9.9940 cg        1 1HM      0.192800
     26 N26        -4.2130    4.7410   10.8480 n1        1 1HM     -0.312800
     27 C27        -0.5180    0.0170   -1.4390 c3        1 1HM      0.586900
     28 F28        -0.0280   -1.1000   -2.1250 f         1 1HM     -0.186300
     29 F29        -1.9170   -0.0170   -1.4320 f         1 1HM     -0.186300
     30 F30        -0.0830    1.1830   -2.0780 f         1 1HM     -0.186300
     31 F31         4.2160    0.6370    0.7810 f         1 1HM     -0.162300
     32 H1         -0.3640    0.8690    0.5350 h1        1 1HM      0.071700
     33 H2          1.8170    0.8500   -0.6100 hc        1 1HM      0.086700
     34 H3          2.1000   -0.8000   -0.4630 hc        1 1HM      0.086700
     35 H4          3.7320    0.7120    1.7140 h1        1 1HM      0.184700
     36 H5          3.7360   -0.7730    0.5440 h1        1 1HM      0.184700
     37 H6          0.2660    0.6590    3.1160 ha        1 1HM      0.085000
     38 H7          1.4990    4.8070    3.6790 ha        1 1HM      0.176000
     39 H8          2.5980    4.4960    1.4300 ha        1 1HM      0.140000
     40 H9         -0.0700   -2.0210    3.4490 hn        1 1HM      0.267133
     41 H10        -1.3440   -1.9850    2.6510 hn        1 1HM      0.267133
     42 H11        -0.8150    2.1930    4.8170 hn        1 1HM      0.179500
     43 H12        -3.6930    3.1330    8.3190 h4        1 1HM      0.016100
     44 H13        -1.2810    5.8360    9.7710 ha        1 1HM      0.134000
     45 H14         0.1700    4.9000    8.6830 ha        1 1HM      0.165000
     46 H143        0.0290   -3.2600    2.9430 hn        1 1HM      0.267133
@<TRIPOS>BOND
     1    1    2 1   
     2    1    9 1   
     3    1   27 1   
     4    1   32 1   
     5    2    4 1   
     6    2   33 1   
     7    2   34 1   
     8    3    9 1   
     9    3   10 2   
    10    3   17 1   
    11    4    6 1   
    12    4   10 1   
    13    4   11 1   
    14    5   11 ar  
    15    5   15 ar  
    16    5   16 1   
    17    6   31 1   
    18    6   35 1   
    19    6   36 1   
    20    7    8 1   
    21    7   18 1   
    22    7   19 2   
    23    8   20 ar  
    24    8   24 ar  
    25   11   12 ar  
    26   12   13 ar  
    27   12   37 1   
    28   13   14 ar  
    29   13   18 1   
    30   14   15 ar  
    31   14   38 1   
    32   15   39 1   
    33   17   40 1   
    34   17   41 1   
    35   17   46 1   
    36   18   42 1   
    37   20   21 ar  
    38   21   22 ar  
    39   21   43 1   
    40   22   23 ar  
    41   22   25 1   
    42   23   24 ar  
    43   23   44 1   
    44   24   45 1   
    45   25   26 3   
    46   27   28 1   
    47   27   29 1   
    48   27   30 1   
@<TRIPOS>SUBSTRUCTURE
     1 1HM         1 TEMP              0 ****  ****    0 ROOT
