@<TRIPOS>MOLECULE
1HM
   45    47     1     0     0
SMALL
bcc


@<TRIPOS>ATOM
      1 C1         -3.1710   -1.1970    0.4860 c3        1 1HM      0.119100
      2 C2         -3.6690    0.0860   -0.1440 c3        1 1HM     -0.145400
      3 C4         -2.3520   -1.7510   -1.6950 c2        1 1HM      0.800500
      4 C6         -2.6630    0.5740   -1.2130 c3        1 1HM      0.192500
      5 C12        -1.6950    2.4360    0.2420 ca        1 1HM      0.100900
      6 C15        -3.3650    1.6530   -2.1280 c3        1 1HM      0.174900
      7 C17         3.2860    1.0530    0.6820 c         1 1HM      0.576600
      8 C18         4.5520    0.2780    0.3750 ca        1 1HM      0.369800
      9 O3         -2.8940   -2.2140   -0.4760 os        1 1HM     -0.459400
     10 N5         -2.2400   -0.5080   -2.0920 n2        1 1HM     -0.717900
     11 C7         -1.4920    1.2510   -0.5060 ca        1 1HM     -0.103300
     12 C8         -0.2000    0.7320   -0.5780 ca        1 1HM     -0.139000
     13 C9          0.8930    1.3530    0.0730 ca        1 1HM      0.048600
     14 C10         0.6640    2.5280    0.8160 ca        1 1HM     -0.123000
     15 C11        -0.6170    3.0560    0.8950 ca        1 1HM     -0.143000
     16 F13        -2.9220    3.0030    0.3470 f         1 1HM     -0.131900
     17 N14        -1.8920   -2.8600   -2.4110 nh        1 1HM     -0.879800
     18 N16         2.1680    0.7760   -0.0790 n         1 1HM     -0.445100
     19 O19         3.3190    1.9190    1.5770 o         1 1HM     -0.587100
     20 N20         4.4900   -0.9190   -0.2600 nb        1 1HM     -0.659000
     21 C21         5.6410   -1.5690   -0.4820 ca        1 1HM      0.434200
     22 C22         6.9060   -1.0640   -0.0910 ca        1 1HM     -0.110300
     23 C23         6.9580    0.1730    0.5630 ca        1 1HM     -0.062000
     24 C24         5.7640    0.8560    0.8030 ca        1 1HM     -0.192300
     25 C25         8.0850   -1.8040   -0.3620 cg        1 1HM      0.226800
     26 N26         9.0510   -2.4120   -0.5840 n1        1 1HM     -0.334800
     27 C27        -4.2660   -1.8250    1.4230 c3        1 1HM      0.630900
     28 F28        -5.4450   -2.1280    0.7970 f         1 1HM     -0.228633
     29 F29        -3.8660   -2.9900    2.0210 f         1 1HM     -0.228633
     30 F30        -4.6100   -0.9950    2.4580 f         1 1HM     -0.228633
     31 F31        -4.4900    2.1890   -1.5400 f         1 1HM     -0.238300
     32 H1         -2.2440   -1.0320    1.1030 h1        1 1HM      0.097700
     33 H2         -4.6650   -0.0930   -0.6300 hc        1 1HM      0.096700
     34 H3         -3.8140    0.8690    0.6440 hc        1 1HM      0.096700
     35 H4         -2.6320    2.4820   -2.3270 h1        1 1HM      0.062200
     36 H5         -3.6720    1.1930   -3.1080 h1        1 1HM      0.062200
     37 H6         -0.0130   -0.1840   -1.1650 ha        1 1HM      0.154000
     38 H7          1.4880    3.0390    1.3430 ha        1 1HM      0.179000
     39 H8         -0.7990    3.9750    1.4740 ha        1 1HM      0.156000
     40 H9         -2.2840   -3.7280   -2.1160 hn        1 1HM      0.426300
     41 H10        -1.8320   -2.7330   -3.3970 hn        1 1HM      0.426300
     42 H11         2.2150    0.0170   -0.7260 hn        1 1HM      0.341500
     43 H12         5.5540   -2.5430   -0.9980 h4        1 1HM      0.042100
     44 H13         7.9200    0.6000    0.8860 ha        1 1HM      0.161000
     45 H14         5.7530    1.8250    1.3280 ha        1 1HM      0.181000
@<TRIPOS>BOND
     1    1    2 1   
     2    1    9 1   
     3    1   27 1   
     4    1   32 1   
     5    2    4 1   
     6    2   33 1   
     7    2   34 1   
     8    3    9 1   
     9    3   10 2   
    10    3   17 1   
    11    4    6 1   
    12    4   10 1   
    13    4   11 1   
    14    5   11 ar  
    15    5   15 ar  
    16    5   16 1   
    17    6   31 1   
    18    6   35 1   
    19    6   36 1   
    20    7    8 1   
    21    7   18 1   
    22    7   19 2   
    23    8   20 ar  
    24    8   24 ar  
    25   11   12 ar  
    26   12   13 ar  
    27   12   37 1   
    28   13   14 ar  
    29   13   18 1   
    30   14   15 ar  
    31   14   38 1   
    32   15   39 1   
    33   17   40 1   
    34   17   41 1   
    35   18   42 1   
    36   20   21 ar  
    37   21   22 ar  
    38   21   43 1   
    39   22   23 ar  
    40   22   25 1   
    41   23   24 ar  
    42   23   44 1   
    43   24   45 1   
    44   25   26 3   
    45   27   28 1   
    46   27   29 1   
    47   27   30 1   
@<TRIPOS>SUBSTRUCTURE
     1 1HM         1 TEMP              0 ****  ****    0 ROOT
