@<TRIPOS>MOLECULE
1HM
   47    49     1     0     0
SMALL
bcc


@<TRIPOS>ATOM
      1 C1          2.0020    0.3250    0.3360 c3        1 1HM      0.092100
      2 C2          1.7870   -0.1870    1.7450 c3        1 1HM     -0.156400
      3 C4          0.1900   -1.0660   -0.2850 c2        1 1HM      0.695500
      4 C6          0.3130   -0.5580    2.0390 c3        1 1HM      0.172500
      5 C12        -0.9450    1.6830    1.7880 ca        1 1HM      0.181900
      6 C15         0.3370   -1.7500    3.0830 c3        1 1HM      0.171900
      7 C17        -0.0720    2.5390    6.6580 c         1 1HM      0.477600
      8 C18        -0.0280    3.9770    6.9910 ca        1 1HM      0.296800
      9 O3          1.4200   -0.5480   -0.6600 os        1 1HM     -0.420400
     10 N5         -0.3980   -1.0910    0.8660 n2        1 1HM     -0.573900
     11 C7         -0.4150    0.6550    2.6080 ca        1 1HM     -0.113300
     12 C8         -0.5500    0.7960    3.9930 ca        1 1HM     -0.064000
     13 C9         -1.2120    1.9060    4.5490 ca        1 1HM     -0.050400
     14 C10        -1.7540    2.9080    3.7250 ca        1 1HM     -0.046000
     15 C11        -1.6140    2.7910    2.3500 ca        1 1HM     -0.135000
     16 F13        -0.8170    1.6510    0.4420 f         1 1HM     -0.129900
     17 N14        -0.4160   -1.6560   -1.5040 n4        1 1HM     -0.790600
     18 N16        -1.3480    2.0090    6.0040 n4        1 1HM     -0.539200
     19 O19         0.7860    1.6950    6.8640 o         1 1HM     -0.412100
     20 N20        -1.0400    4.7950    6.5710 nb        1 1HM     -0.686000
     21 C21        -0.9680    6.0840    6.8960 ca        1 1HM      0.448200
     22 C22         0.1100    6.6380    7.6530 ca        1 1HM     -0.018300
     23 C23         1.1360    5.7920    8.0750 ca        1 1HM     -0.062000
     24 C24         1.0730    4.4290    7.7400 ca        1 1HM     -0.126300
     25 C25         0.1140    8.0210    7.9570 cg        1 1HM      0.174800
     26 N26         0.1180    9.1580    8.2070 n1        1 1HM     -0.227800
     27 C27         3.5380    0.3530   -0.0380 c3        1 1HM      0.651900
     28 F28         4.1380   -0.8710    0.0460 f         1 1HM     -0.200967
     29 F29         3.7530    0.8030   -1.3080 f         1 1HM     -0.200967
     30 F30         4.2340    1.1860    0.7930 f         1 1HM     -0.200967
     31 F31         1.2570   -1.5220    4.0810 f         1 1HM     -0.215300
     32 H1          1.5750    1.3530    0.1730 h1        1 1HM      0.118700
     33 H2          2.1350    0.5920    2.4750 hc        1 1HM      0.120200
     34 H3          2.4330   -1.0960    1.9070 hc        1 1HM      0.120200
     35 H4         -0.6880   -1.8660    3.5310 h1        1 1HM      0.083200
     36 H5          0.6230   -2.7040    2.5560 h1        1 1HM      0.083200
     37 H6         -0.1100    0.0430    4.6750 ha        1 1HM      0.186000
     38 H7         -2.2780    3.7860    4.1460 ha        1 1HM      0.190000
     39 H8         -2.0250    3.5680    1.6810 ha        1 1HM      0.199000
     40 H9          0.2500   -2.3380   -1.8990 hn        1 1HM      0.497467
     41 H10        -0.5720   -0.9030   -2.1900 hn        1 1HM      0.497467
     42 H11        -1.5410    1.0720    6.3850 hn        1 1HM      0.477800
     43 H12        -1.8010    6.7290    6.5490 h4        1 1HM      0.070100
     44 H13         1.9870    6.1780    8.6650 ha        1 1HM      0.198000
     45 H14         1.8680    3.7330    8.0600 ha        1 1HM      0.192000
     46 H143       -1.3080   -2.1230   -1.2830 hn        1 1HM      0.497467
     47 H162       -2.1430    2.6270    6.2260 hn        1 1HM      0.477800
@<TRIPOS>BOND
     1    1    2 1   
     2    1    9 1   
     3    1   27 1   
     4    1   32 1   
     5    2    4 1   
     6    2   33 1   
     7    2   34 1   
     8    3    9 1   
     9    3   10 2   
    10    3   17 1   
    11    4    6 1   
    12    4   10 1   
    13    4   11 1   
    14    5   11 ar  
    15    5   15 ar  
    16    5   16 1   
    17    6   31 1   
    18    6   35 1   
    19    6   36 1   
    20    7    8 1   
    21    7   18 1   
    22    7   19 2   
    23    8   20 ar  
    24    8   24 ar  
    25   11   12 ar  
    26   12   13 ar  
    27   12   37 1   
    28   13   14 ar  
    29   13   18 1   
    30   14   15 ar  
    31   14   38 1   
    32   15   39 1   
    33   17   40 1   
    34   17   41 1   
    35   17   46 1   
    36   18   42 1   
    37   18   47 1   
    38   20   21 ar  
    39   21   22 ar  
    40   21   43 1   
    41   22   23 ar  
    42   22   25 1   
    43   23   24 ar  
    44   23   44 1   
    45   24   45 1   
    46   25   26 3   
    47   27   28 1   
    48   27   29 1   
    49   27   30 1   
@<TRIPOS>SUBSTRUCTURE
     1 1HM         1 TEMP              0 ****  ****    0 ROOT
