@<TRIPOS>MOLECULE
1HN
   21    22     1     0     0
SMALL
bcc


@<TRIPOS>ATOM
      1 C1          0.3340    0.7390   -0.0830 ca        1 1HN      0.187100
      2 O1          0.6100    2.0770   -0.1260 oh        1 1HN     -0.552100
      3 C2          1.3020   -0.2600   -0.0750 ca        1 1HN     -0.233600
      4 O2          3.1760    1.2330   -0.1560 o         1 1HN     -0.833300
      5 C3          0.8850   -1.6090   -0.0280 ca        1 1HN     -0.040000
      6 O3          3.5870   -0.9550   -0.1030 o         1 1HN     -0.833300
      7 C4         -0.4460   -1.9560    0.0090 ca        1 1HN     -0.219000
      8 C5         -2.8320   -1.2750    0.0400 ca        1 1HN     -0.140000
      9 C6         -3.7850   -0.2870    0.0330 ca        1 1HN     -0.136000
     10 C7         -3.4010    1.0740   -0.0140 ca        1 1HN     -0.182000
     11 C8         -2.0700    1.4150   -0.0510 ca        1 1HN     -0.076000
     12 C9          2.7900    0.0220   -0.1140 c         1 1HN      0.919200
     13 C4A        -1.4460   -0.9530    0.0020 ca        1 1HN     -0.005000
     14 C8A        -1.0640    0.4130   -0.0440 ca        1 1HN     -0.085000
     15 HO1         1.5850    2.2010   -0.1500 ho        1 1HN      0.487000
     16 H3          1.6790   -2.3760   -0.0230 ha        1 1HN      0.156000
     17 H4         -0.7530   -3.0100    0.0460 ha        1 1HN      0.111000
     18 H5         -3.1200   -2.3360    0.0760 ha        1 1HN      0.115000
     19 H6         -4.8540   -0.5390    0.0620 ha        1 1HN      0.108000
     20 H7         -4.1790    1.8500   -0.0190 ha        1 1HN      0.111000
     21 H8         -1.7510    2.4680   -0.0880 ha        1 1HN      0.141000
@<TRIPOS>BOND
     1    1    2 1   
     2    1    3 ar  
     3    1   14 ar  
     4    2   15 1   
     5    3    5 ar  
     6    3   12 1   
     7    4   12 1   
     8    5    7 ar  
     9    5   16 1   
    10    6   12 1   
    11    7   13 ar  
    12    7   17 1   
    13    8    9 ar  
    14    8   13 ar  
    15    8   18 1   
    16    9   10 ar  
    17    9   19 1   
    18   10   11 ar  
    19   10   20 1   
    20   11   14 ar  
    21   11   21 1   
    22   13   14 ar  
@<TRIPOS>SUBSTRUCTURE
     1 1HN         1 TEMP              0 ****  ****    0 ROOT
