@<TRIPOS>MOLECULE
1HN
   21    17     1     0     0
SMALL
bcc


@<TRIPOS>ATOM
      1 C1          0.0270    0.0060   -1.2770 c1        1 1HN      0.170600
      2 O1         -0.3550    0.0750   -2.6290 oh        1 1HN     -0.535600
      3 C2          1.4150   -0.0050   -1.3120 cg        1 1HN     -0.182200
      4 O2          2.4970    1.1760   -3.1050 o         1 1HN     -0.833300
      5 C3          2.1410   -0.0040   -0.1250 c1        1 1HN     -0.086750
      6 O3          2.8670   -0.9690   -2.9670 o         1 1HN     -0.833300
      7 C4          1.4780    0.0080    1.0950 c1        1 1HN     -0.086750
      8 C5         -0.6020    0.0300    2.3680 c1        1 1HN     -0.050500
      9 C6         -1.9900    0.0400    2.4030 c1        1 1HN     -0.086750
     10 C7         -2.7160    0.0390    1.2160 c1        1 1HN     -0.086750
     11 C8         -2.0530    0.0280   -0.0040 c1        1 1HN     -0.050500
     12 C9          2.3050    0.0710   -2.5330 c         1 1HN      0.867800
     13 C4A         0.0710    0.0180    1.1320 cg        1 1HN     -0.045000
     14 C8A        -0.6460    0.0170   -0.0410 cg        1 1HN     -0.045000
     15 HO1        -0.7400   -0.6910   -2.8680 ho        1 1HN      0.487000
     16 H3          3.1170   -0.0110   -0.1500 ha        1 1HN      0.064000
     17 H4          1.9880    0.0080    1.9280 ha        1 1HN      0.064000
     18 H5         -0.0920    0.0520    3.2010 ha        1 1HN      0.070500
     19 H6         -2.4560    0.0480    3.2610 ha        1 1HN      0.064000
     20 H7         -3.6920    0.0460    1.2410 ha        1 1HN      0.064000
     21 H8         -2.5630    0.0180   -0.8360 ha        1 1HN      0.070500
@<TRIPOS>BOND
     1    1    2 1   
     2    1    3 3   
     3    2   15 1   
     4    3   12 1   
     5    4   12 1   
     6    5    7 3   
     7    5   16 1   
     8    6   12 1   
     9    7   17 1   
    10    8   13 3   
    11    8   18 1   
    12    9   10 3   
    13    9   19 1   
    14   10   20 1   
    15   11   14 3   
    16   11   21 1   
    17   13   14 1   
@<TRIPOS>SUBSTRUCTURE
     1 1HN         1 TEMP              0 ****  ****    0 ROOT
