@<TRIPOS>MOLECULE
1HO
   44    44     1     0     0
SMALL
bcc


@<TRIPOS>ATOM
      1 C27         0.4240    0.5850    0.1910 ca        1 1HO     -0.125300
      2 C28         3.9250   -0.6790    0.3430 cg        1 1HO      0.173800
      3 C26         1.7910    0.4480   -0.1060 ca        1 1HO     -0.064000
      4 O22        -2.3360    0.7430    1.0220 o         1 1HO     -0.398100
      5 C20        -1.5650   -0.0780    1.4870 c         1 1HO      0.468600
      6 N19        -2.1330   -1.0660    2.5110 n4        1 1HO     -0.538200
      7 C15        -4.4300   -1.7790    1.9020 ca        1 1HO     -0.036000
      8 C16        -5.8040   -1.7070    2.0740 ca        1 1HO     -0.132000
      9 C17        -6.3550   -0.8460    3.0470 ca        1 1HO      0.218900
     10 C1         -6.1730    3.0910    5.7430 c         1 1HO      0.687500
     11 C3         -6.0560    0.8410    4.8980 ce        1 1HO      0.572900
     12 C8         -5.5010   -0.0620    3.8580 ca        1 1HO     -0.216900
     13 C4         -9.1210    6.6160    4.4050 c2        1 1HO      0.262000
     14 C5         -9.7380    7.7160    3.9520 c2        1 1HO     -0.179000
     15 C9         -6.8120    0.1130    6.0090 c3        1 1HO      0.052600
     16 N2         -5.8420    2.1110    4.7890 nf        1 1HO     -0.615100
     17 O6         -5.4030    3.6300    6.5300 o         1 1HO     -0.395100
     18 F10        -7.5710    0.9780    6.7700 f         1 1HO     -0.233300
     19 F11        -8.6650    6.3680    5.6550 f         1 1HO     -0.213500
     20 F12        -8.8080    5.4920    3.7170 f         1 1HO     -0.213500
     21 C13        -4.1170   -0.1180    3.6660 ca        1 1HO     -0.022000
     22 C14        -3.5800   -0.9850    2.7000 ca        1 1HO     -0.053400
     23 C21        -0.1260   -0.2410    1.1860 ca        1 1HO      0.285800
     24 N23         0.6000   -1.1710    1.8800 nb        1 1HO     -0.685000
     25 C24         1.8930   -1.2890    1.5900 ca        1 1HO      0.453200
     26 C25         2.5430   -0.4950    0.5950 ca        1 1HO     -0.015300
     27 N29         5.0600   -0.8310    0.1360 n1        1 1HO     -0.226800
     28 H1         -0.1970    1.3230   -0.3450 ha        1 1HO      0.189000
     29 H2          2.2540    1.0820   -0.8840 ha        1 1HO      0.197000
     30 H3         -1.6570   -0.8950    3.4080 hn        1 1HO      0.479800
     31 H4         -4.0250   -2.4620    1.1320 ha        1 1HO      0.182000
     32 H5         -6.4810   -2.3180    1.4480 ha        1 1HO      0.207000
     33 H6        -10.0630    7.7970    2.9060 ha        1 1HO      0.181000
     34 H7         -9.9370    8.5700    4.6140 ha        1 1HO      0.181000
     35 H8         -7.4930   -0.6610    5.5490 h1        1 1HO      0.121200
     36 H9         -6.0590   -0.4030    6.6740 h1        1 1HO      0.121200
     37 H10        -8.2620    3.0290    5.9990 hn        1 1HO      0.484467
     38 H11        -7.5880    4.5340    6.3110 hn        1 1HO      0.484467
     39 H12        -3.4630    0.5260    4.2800 ha        1 1HO      0.174000
     40 H13         2.4620   -2.0490    2.1660 h4        1 1HO      0.074100
     41 H192       -1.8890   -2.0190    2.2020 hn        1 1HO      0.479800
     42 H73        -7.7980    4.0340    4.7320 hn        1 1HO      0.484467
     43 F18        -7.6920   -0.7750    3.1880 f         1 1HO     -0.094900
     44 N7         -7.5630    3.7110    5.6840 n4        1 1HO     -0.759400
@<TRIPOS>BOND
     1    1    3 ar  
     2    1   23 ar  
     3    1   28 1   
     4    2   26 1   
     5    2   27 3   
     6    3   26 ar  
     7    3   29 1   
     8    4    5 2   
     9    5    6 1   
    10    5   23 1   
    11    6   22 1   
    12    6   30 1   
    13    6   41 1   
    14    7    8 ar  
    15    7   22 ar  
    16    7   31 1   
    17    8    9 ar  
    18    8   32 1   
    19    9   12 ar  
    20    9   43 1   
    21   10   16 1   
    22   10   17 2   
    23   10   44 1   
    24   11   12 1   
    25   11   15 1   
    26   11   16 2   
    27   12   21 ar  
    28   13   14 2   
    29   13   19 1   
    30   13   20 1   
    31   14   33 1   
    32   14   34 1   
    33   15   18 1   
    34   15   35 1   
    35   15   36 1   
    36   21   22 ar  
    37   21   39 1   
    38   23   24 ar  
    39   24   25 ar  
    40   25   26 ar  
    41   25   40 1   
    42   37   44 1   
    43   38   44 1   
    44   42   44 1   
@<TRIPOS>SUBSTRUCTURE
     1 1HO         1 TEMP              0 ****  ****    0 ROOT
