@<TRIPOS>MOLECULE
1HO
   42    44     1     0     0
SMALL
bcc


@<TRIPOS>ATOM
      1 C27        -5.4320    1.2120   -0.3020 ca        1 1HO     -0.192300
      2 C28        -7.9120   -1.5340    0.0540 cg        1 1HO      0.226800
      3 C26        -6.6600    0.5490   -0.3070 ca        1 1HO     -0.062000
      4 O22        -3.0190    2.5130    0.1160 o         1 1HO     -0.589100
      5 C20        -2.9700    1.2690    0.0590 c         1 1HO      0.575600
      6 N19        -1.7960    0.5500   -0.0360 n         1 1HO     -0.444100
      7 C15        -0.2090    2.4440   -0.1940 ca        1 1HO     -0.117000
      8 C16         1.1060    2.8850   -0.1670 ca        1 1HO     -0.146000
      9 C17         2.1680    1.9880    0.0490 ca        1 1HO      0.109900
     10 C1          3.1010   -2.7780    0.1740 c2        1 1HO      0.809500
     11 C3          3.0450   -0.3850    0.4920 c3        1 1HO      0.173500
     12 C8          1.9120    0.6090    0.2400 ca        1 1HO     -0.088300
     13 C4          4.0850   -0.3280   -0.7210 c3        1 1HO      0.349600
     14 C5          4.9780   -1.6060   -0.6770 c3        1 1HO      0.087400
     15 C9          3.7650    0.1060    1.8030 c3        1 1HO      0.150900
     16 N2          2.5250   -1.7230    0.6940 n2        1 1HO     -0.729900
     17 O6          4.1830   -2.7810   -0.7290 os        1 1HO     -0.449400
     18 F10         4.7550   -0.7500    2.2330 f         1 1HO     -0.241300
     19 F11         3.4520   -0.2130   -1.9400 f         1 1HO     -0.221300
     20 F12         4.8830    0.7950   -0.6980 f         1 1HO     -0.221300
     21 C13         0.5840    0.1820    0.2180 ca        1 1HO     -0.115000
     22 C14        -0.4910    1.0780    0.0010 ca        1 1HO      0.039600
     23 C21        -4.2710    0.4920    0.0490 ca        1 1HO      0.370800
     24 N23        -4.2930   -0.8220    0.3860 nb        1 1HO     -0.661000
     25 C24        -5.4780   -1.4480    0.3820 ca        1 1HO      0.433200
     26 C25        -6.6950   -0.8080    0.0400 ca        1 1HO     -0.111300
     27 N29        -8.9110   -2.1300    0.0650 n1        1 1HO     -0.335800
     28 H1         -5.3560    2.2820   -0.5540 ha        1 1HO      0.181000
     29 H2         -7.5830    1.0850   -0.5760 ha        1 1HO      0.160000
     30 H3         -1.8500   -0.4460    0.0020 hn        1 1HO      0.339500
     31 H4         -1.0170    3.1750   -0.3640 ha        1 1HO      0.178000
     32 H5          1.3330    3.9510   -0.3190 ha        1 1HO      0.155000
     33 H6          5.6230   -1.6660   -1.5930 h1        1 1HO      0.096200
     34 H7          5.5950   -1.5940    0.2580 h1        1 1HO      0.096200
     35 H8          4.2260    1.1120    1.6010 h1        1 1HO      0.074700
     36 H9          2.9890    0.1970    2.6120 h1        1 1HO      0.074700
     37 H10         1.8060   -4.2260    0.7900 hn        1 1HO      0.427300
     38 H11         3.0410   -4.7580   -0.2310 hn        1 1HO      0.427300
     39 H12         0.3530   -0.8850    0.3790 ha        1 1HO      0.159000
     40 H13        -5.4600   -2.5170    0.6660 h4        1 1HO      0.041100
     41 F18         3.4260    2.4920    0.0600 f         1 1HO     -0.132900
     42 N7          2.7300   -4.0950    0.4440 nh        1 1HO     -0.881800
@<TRIPOS>BOND
     1    1    3 ar  
     2    1   23 ar  
     3    1   28 1   
     4    2   26 1   
     5    2   27 3   
     6    3   26 ar  
     7    3   29 1   
     8    4    5 2   
     9    5    6 1   
    10    5   23 1   
    11    6   22 1   
    12    6   30 1   
    13    7    8 ar  
    14    7   22 ar  
    15    7   31 1   
    16    8    9 ar  
    17    8   32 1   
    18    9   12 ar  
    19    9   41 1   
    20   10   16 2   
    21   10   17 1   
    22   10   42 1   
    23   11   12 1   
    24   11   13 1   
    25   11   15 1   
    26   11   16 1   
    27   12   21 ar  
    28   13   14 1   
    29   13   19 1   
    30   13   20 1   
    31   14   17 1   
    32   14   33 1   
    33   14   34 1   
    34   15   18 1   
    35   15   35 1   
    36   15   36 1   
    37   21   22 ar  
    38   21   39 1   
    39   23   24 ar  
    40   24   25 ar  
    41   25   26 ar  
    42   25   40 1   
    43   37   42 1   
    44   38   42 1   
@<TRIPOS>SUBSTRUCTURE
     1 1HO         1 TEMP              0 ****  ****    0 ROOT
