@<TRIPOS>MOLECULE
1HO
   42    35     1     0     0
SMALL
bcc


@<TRIPOS>ATOM
      1 C27         3.9670   -2.9820   -2.0890 c1        1 1HO     -0.112750
      2 C28         7.6030   -2.2030   -1.6050 c1        1 1HO     -0.102000
      3 C26         5.3280   -3.0660   -2.1470 c1        1 1HO     -0.112750
      4 O22         1.1730   -2.6950   -1.8690 o         1 1HO     -0.349000
      5 C20         1.8570   -1.8110   -1.3930 c1        1 1HO      0.361000
      6 N19         1.2410   -0.7130   -0.7360 n2        1 1HO     -0.298000
      7 C15        -1.1350   -1.1020   -1.5240 c1        1 1HO     -0.112750
      8 C16        -2.4670   -0.7720   -1.3300 c1        1 1HO     -0.112750
      9 C17        -2.8380    0.0100   -0.2470 c1        1 1HO      0.087000
     10 C1         -4.0290    2.6240    0.6470 c1        1 1HO      0.234000
     11 C3         -2.5460    1.0490    1.8370 c3        1 1HO      0.039000
     12 C8         -1.8760    0.4620    0.6430 c2        1 1HO     -0.082000
     13 C4         -1.7390    2.3900    2.1320 c3        1 1HO      0.198000
     14 C5         -1.7860    3.1760    1.3020 c3        1 1HO     -0.056000
     15 C9         -2.4000   -0.0040    2.9130 c3        1 1HO      0.030000
     16 N2         -3.7880    1.2510    1.4540 n2        1 1HO     -0.298000
     17 O6         -3.1440    3.6000    0.9230 o         1 1HO     -0.246000
     18 N7         -5.3280    2.9550    0.1820 n3        1 1HO     -0.319000
     19 F10        -3.2400   -1.0210    2.6610 f         1 1HO     -0.153000
     20 F11        -2.2240    2.9340    3.2560 f         1 1HO     -0.157000
     21 F12        -0.4540    2.0710    2.3370 f         1 1HO     -0.157000
     22 C13        -0.5430    0.1320    0.4500 c2        1 1HO     -0.128000
     23 C14        -0.1730   -0.6500   -0.6340 c1        1 1HO      0.058000
     24 F18        -4.1470   -0.2740   -0.2530 f         1 1HO     -0.104000
     25 C21         3.3660   -1.8950   -1.4730 c1        1 1HO     -0.047000
     26 N23         4.1330   -0.9110   -0.9260 n1        1 1HO     -0.133000
     27 C24         5.4920   -0.9940   -0.9830 c1        1 1HO     -0.031000
     28 C25         6.0960   -2.0800   -1.5990 c1        1 1HO     -0.041000
     29 N29         8.7400   -2.2960   -1.6100 n1        1 1HO     -0.010000
     30 H1          3.4180   -3.6870   -2.4810 ha        1 1HO      0.168250
     31 H2          5.7520   -3.8310   -2.5810 ha        1 1HO      0.168250
     32 H3          1.7540   -0.0420   -0.3920 hn        1 1HO      0.254000
     33 H4         -0.8740   -1.6520   -2.2870 ha        1 1HO      0.168250
     34 H5         -3.1450   -1.0900   -1.9570 ha        1 1HO      0.168250
     35 H6         -1.2880    3.9670    1.5990 h1        1 1HO      0.132500
     36 H7         -1.3430    2.8120    0.5070 h1        1 1HO      0.132500
     37 H8         -1.4780   -0.3360    2.9210 h1        1 1HO      0.096500
     38 H9         -2.6140    0.3880    3.7850 h1        1 1HO      0.096500
     39 H10        -5.9580    2.3000    0.0820 hn        1 1HO      0.225000
     40 H11        -5.5400    3.8250   -0.0010 hn        1 1HO      0.225000
     41 H12         0.1340    0.4510    1.0770 ha        1 1HO      0.143000
     42 H13         6.0410   -0.2880   -0.5910 ha        1 1HO      0.179000
@<TRIPOS>BOND
     1    1    3 1   
     2    1   30 1   
     3    2   29 1   
     4    3   31 1   
     5    4    5 1   
     6    5   25 1   
     7    6   23 1   
     8    6   32 1   
     9    7    8 1   
    10    7   33 1   
    11    8   34 1   
    12    9   12 1   
    13   10   16 1   
    14   10   18 1   
    15   11   12 1   
    16   11   13 1   
    17   11   15 1   
    18   11   16 1   
    19   12   22 1   
    20   13   14 1   
    21   13   20 1   
    22   13   21 1   
    23   14   17 1   
    24   14   35 1   
    25   14   36 1   
    26   15   19 1   
    27   15   37 1   
    28   15   38 1   
    29   18   39 1   
    30   18   40 1   
    31   22   23 1   
    32   22   41 1   
    33   25   26 1   
    34   27   28 1   
    35   27   42 1   
@<TRIPOS>SUBSTRUCTURE
     1 1HO         1 TEMP              0 ****  ****    0 ROOT
