@<TRIPOS>MOLECULE
1HO
   43    45     1     0     0
SMALL
bcc


@<TRIPOS>ATOM
      1 C27         0.2300   -0.5940    0.1350 ca        1 1HO     -0.180300
      2 C28         3.5980    0.2700    1.4570 cg        1 1HO      0.213800
      3 C26         1.6240   -0.5240    0.2280 ca        1 1HO     -0.058000
      4 O22        -2.5270   -0.4240   -0.1180 o         1 1HO     -0.568100
      5 C20        -2.0480   -0.0670    0.9720 c         1 1HO      0.582600
      6 N19        -2.8350    0.2350    2.0770 ns        1 1HO     -0.457100
      7 C15        -5.0410   -0.3710    1.1350 ca        1 1HO     -0.101000
      8 C16        -6.4200   -0.3400    1.2510 ca        1 1HO     -0.123000
      9 C17        -7.0430    0.3020    2.3380 ca        1 1HO      0.114900
     10 C1         -6.1280    3.2930    6.0290 c2        1 1HO      0.666500
     11 C3         -6.9290    1.6360    4.5060 c3        1 1HO      0.143500
     12 C8         -6.2620    0.9400    3.3290 ca        1 1HO     -0.121300
     13 C4         -7.8670    2.8290    3.9800 c3        1 1HO      0.369600
     14 C5         -8.2840    3.7330    5.1840 c3        1 1HO      0.075400
     15 C9         -7.8140    0.5550    5.2390 c3        1 1HO      0.148900
     16 N2         -5.9370    2.1580    5.4480 n2        1 1HO     -0.557900
     17 O6         -7.1340    4.2380    5.8820 os        1 1HO     -0.423400
     18 F10        -8.3000    0.9950    6.4500 f         1 1HO     -0.239300
     19 F11        -7.2330    3.5730    3.0110 f         1 1HO     -0.192300
     20 F12        -8.9920    2.3700    3.3420 f         1 1HO     -0.192300
     21 C13        -4.8710    0.9020    3.2010 ca        1 1HO     -0.138000
     22 C14        -4.2360    0.2520    2.1160 ca        1 1HO      0.072600
     23 C21        -0.5480    0.0250    1.1330 ca        1 1HO      0.358800
     24 N23        -0.0070    0.6940    2.1840 nb        1 1HO     -0.674000
     25 C24         1.3280    0.7570    2.2610 ca        1 1HO      0.430200
     26 C25         2.1920    0.1620    1.3060 ca        1 1HO     -0.091300
     27 N29         4.7510    0.3590    1.5820 n1        1 1HO     -0.310800
     28 H1         -0.2610   -1.1150   -0.7030 ha        1 1HO      0.185000
     29 H2          2.2580   -1.0000   -0.5380 ha        1 1HO      0.170000
     30 H3         -2.3770    0.5700    2.8970 hn        1 1HO      0.337500
     31 H4         -4.5860   -0.8830    0.2670 ha        1 1HO      0.195000
     32 H5         -7.0520   -0.8220    0.4870 ha        1 1HO      0.174000
     33 H6         -8.7990    4.6660    4.8240 h1        1 1HO      0.127700
     34 H7         -8.9260    3.1540    5.8970 h1        1 1HO      0.127700
     35 H8         -8.6820    0.3080    4.5630 h1        1 1HO      0.105700
     36 H9         -7.1840   -0.3620    5.4040 h1        1 1HO      0.105700
     37 H10        -4.3720    3.1950    7.1510 hn        1 1HO      0.488467
     38 H11        -4.8270    4.7470    6.6710 hn        1 1HO      0.488467
     39 H12        -4.2320    1.3800    3.9600 ha        1 1HO      0.134000
     40 H13         1.7400    1.3100    3.1260 h4        1 1HO      0.041100
     41 H73        -5.6610    3.9770    7.9070 hn        1 1HO      0.488467
     42 F18        -8.3970    0.2930    2.3940 f         1 1HO     -0.128900
     43 N7         -5.1630    3.8380    7.0170 nz        1 1HO     -0.788600
@<TRIPOS>BOND
     1    1    3 ar  
     2    1   23 ar  
     3    1   28 1   
     4    2   26 1   
     5    2   27 3   
     6    3   26 ar  
     7    3   29 1   
     8    4    5 2   
     9    5    6 1   
    10    5   23 1   
    11    6   22 1   
    12    6   30 1   
    13    7    8 ar  
    14    7   22 ar  
    15    7   31 1   
    16    8    9 ar  
    17    8   32 1   
    18    9   12 ar  
    19    9   42 1   
    20   10   16 2   
    21   10   17 1   
    22   10   43 1   
    23   11   12 1   
    24   11   13 1   
    25   11   15 1   
    26   11   16 1   
    27   12   21 ar  
    28   13   14 1   
    29   13   19 1   
    30   13   20 1   
    31   14   17 1   
    32   14   33 1   
    33   14   34 1   
    34   15   18 1   
    35   15   35 1   
    36   15   36 1   
    37   21   22 ar  
    38   21   39 1   
    39   23   24 ar  
    40   24   25 ar  
    41   25   26 ar  
    42   25   40 1   
    43   37   43 1   
    44   38   43 1   
    45   41   43 1   
@<TRIPOS>SUBSTRUCTURE
     1 1HO         1 TEMP              0 ****  ****    0 ROOT
