@<TRIPOS>MOLECULE
1HO
   43    44     1     0     0
SMALL
bcc


@<TRIPOS>ATOM
      1 C27         0.1050   -0.7200    0.3250 ca        1 1HO     -0.182300
      2 C28         3.1840    1.3500    0.0660 cg        1 1HO      0.213800
      3 C26         1.3920   -0.3260   -0.0550 ca        1 1HO     -0.059000
      4 O22        -2.2910   -1.5600    1.5040 o         1 1HO     -0.573100
      5 C20        -2.0190   -0.3490    1.5590 c         1 1HO      0.583600
      6 N19        -2.9420    0.6100    1.9590 n         1 1HO     -0.459100
      7 C15        -4.9520   -0.8310    2.0480 ca        1 1HO     -0.098000
      8 C16        -6.2550   -1.0200    2.4740 ca        1 1HO     -0.134000
      9 C17        -6.9180   -0.0320    3.2290 ca        1 1HO      0.132900
     10 C1         -5.8080    2.3370    6.4890 c2        1 1HO      0.696500
     11 C3         -6.9320    2.2410    4.3390 cy        1 1HO      0.169700
     12 C8         -6.2530    1.1720    3.5410 ca        1 1HO     -0.133300
     13 C4         -6.6890    3.8110    3.8160 cy        1 1HO      0.397800
     14 C5         -8.1970    3.7920    3.5080 cv        1 1HO     -0.181200
     15 C9         -8.4030    2.5330    3.9380 cv        1 1HO     -0.086200
     16 N2         -6.8070    2.0100    5.7540 n2        1 1HO     -0.565900
     17 O6         -4.5870    2.9460    6.2840 oh        1 1HO     -0.610600
     18 F10       -10.5020    0.1320    4.5950 f         1 1HO     -0.296000
     19 F11        -6.2350    4.6630    4.7870 f         1 1HO     -0.215800
     20 F12        -5.8150    4.0190    2.7990 f         1 1HO     -0.215800
     21 C13        -4.9270    1.3410    3.1360 ca        1 1HO     -0.155000
     22 C14        -4.2560    0.3580    2.3750 ca        1 1HO      0.079600
     23 C21        -0.6440    0.1310    1.1600 ca        1 1HO      0.356800
     24 N23        -0.1740    1.3200    1.6210 nb        1 1HO     -0.668000
     25 C24         1.0600    1.6850    1.2540 ca        1 1HO      0.433200
     26 C25         1.8870    0.8970    0.4130 ca        1 1HO     -0.090300
     27 N29         4.2490    1.7230   -0.2180 n1        1 1HO     -0.308800
     28 H1         -0.3200   -1.6800   -0.0090 ha        1 1HO      0.182000
     29 H2          2.0030   -0.9690   -0.7080 ha        1 1HO      0.170000
     30 H3         -2.6350    1.5570    2.0360 hn        1 1HO      0.344500
     31 H4         -4.4600   -1.6240    1.4550 ha        1 1HO      0.193000
     32 H5         -6.7900   -1.9500    2.2240 ha        1 1HO      0.169000
     33 H6         -8.7860    4.5820    3.0570 ha        1 1HO      0.203000
     34 H7         -4.6580    3.5820    5.5430 ho        1 1HO      0.496000
     35 H8        -10.5630   -0.5820    4.1840 ha        1 1HO      0.300000
     36 H9         -9.2460    1.8490    4.0270 ha        1 1HO      0.223000
     37 H10        -5.0080    1.3760    8.1290 hn        1 1HO      0.483800
     38 H11        -5.7470    2.8350    8.4930 hn        1 1HO      0.483800
     39 H12        -4.4070    2.2760    3.4010 ha        1 1HO      0.135000
     40 H13         1.4160    2.6560    1.6470 h4        1 1HO      0.045100
     41 H73        -6.6890    1.4710    8.1850 hn        1 1HO      0.483800
     42 F18        -8.1840   -0.2680    3.6480 f         1 1HO     -0.135900
     43 N7         -5.8240    1.9720    7.9410 n4        1 1HO     -0.804600
@<TRIPOS>BOND
     1    1    3 ar  
     2    1   23 ar  
     3    1   28 1   
     4    2   26 1   
     5    2   27 3   
     6    3   26 ar  
     7    3   29 1   
     8    4    5 2   
     9    5    6 1   
    10    5   23 1   
    11    6   22 1   
    12    6   30 1   
    13    7    8 ar  
    14    7   22 ar  
    15    7   31 1   
    16    8    9 ar  
    17    8   32 1   
    18    9   12 ar  
    19    9   42 1   
    20   10   16 2   
    21   10   17 1   
    22   10   43 1   
    23   11   12 1   
    24   11   13 1   
    25   11   15 1   
    26   11   16 1   
    27   12   21 ar  
    28   13   14 1   
    29   13   19 1   
    30   13   20 1   
    31   14   15 2   
    32   14   33 1   
    33   15   36 1   
    34   17   34 1   
    35   18   35 1   
    36   21   22 ar  
    37   21   39 1   
    38   23   24 ar  
    39   24   25 ar  
    40   25   26 ar  
    41   25   40 1   
    42   37   43 1   
    43   38   43 1   
    44   41   43 1   
@<TRIPOS>SUBSTRUCTURE
     1 1HO         1 TEMP              0 ****  ****    0 ROOT
