@<TRIPOS>MOLECULE
1HP
   30    32     1     0     0
SMALL
bcc


@<TRIPOS>ATOM
      1 CAI        -0.0240    0.0980    0.0160 ca        1 1HP     -0.081000
      2 CAQ         1.3660   -0.0080    0.0230 ca        1 1HP     -0.192500
      3 NAR         2.3400    0.2420    1.0010 na        1 1HP     -0.174300
      4 CAA         2.1180    0.3020    2.4070 c3        1 1HP      0.031600
      5 CAM         3.5970   -0.0820    0.3800 cc        1 1HP      0.596700
      6 NAB         4.7940   -0.0890    1.1170 nh        1 1HP     -0.855800
      7 NAK         3.4750   -0.4150   -0.9390 nd        1 1HP     -0.666700
      8 CAP         2.0820   -0.3920   -1.1990 ca        1 1HP      0.551300
      9 NAJ         1.4320   -0.6560   -2.3650 nb        1 1HP     -0.610000
     10 CAH         0.1000   -0.5470   -2.3260 ca        1 1HP      0.396200
     11 CAO        -0.6750   -0.1810   -1.1890 cp        1 1HP     -0.145300
     12 CAN        -2.1270   -0.1010   -1.2920 cp        1 1HP     -0.067000
     13 CAF        -2.9400   -0.5700   -0.2500 ca        1 1HP     -0.083500
     14 CAD        -4.3260   -0.4980   -0.3430 ca        1 1HP     -0.184500
     15 CAL        -4.9100    0.0520   -1.4930 ca        1 1HP      0.127100
     16 OAC        -6.2710    0.1590   -1.6580 oh        1 1HP     -0.495100
     17 CAE        -4.1100    0.5270   -2.5460 ca        1 1HP     -0.184500
     18 CAG        -2.7280    0.4460   -2.4370 ca        1 1HP     -0.083500
     19 HAI        -0.5880    0.3940    0.9120 ha        1 1HP      0.140000
     20 HAA1        2.3960   -0.6660    2.9070 h1        1 1HP      0.051700
     21 HAA2        2.7440    1.1260    2.8460 h1        1 1HP      0.051700
     22 HAA3        1.0350    0.5200    2.6040 h1        1 1HP      0.051700
     23 HAB1        4.8640    0.6670    1.7650 hn        1 1HP      0.407300
     24 HAB2        5.6030   -0.1770    0.5350 hn        1 1HP      0.407300
     25 HAH        -0.4120   -0.7760   -3.2800 h4        1 1HP      0.027100
     26 HAF        -2.4780   -1.0090    0.6470 ha        1 1HP      0.137500
     27 HAD        -4.9580   -0.8720    0.4750 ha        1 1HP      0.144000
     28 HOAC       -6.6970   -0.2120   -0.8720 ho        1 1HP      0.420000
     29 HAE        -4.5880    0.9570   -3.4390 ha        1 1HP      0.144000
     30 HAG        -2.0960    0.8230   -3.2560 ha        1 1HP      0.137500
@<TRIPOS>BOND
     1    1    2 ar  
     2    1   11 ar  
     3    1   19 1   
     4    2    3 1   
     5    2    8 ar  
     6    3    4 1   
     7    3    5 1   
     8    4   20 1   
     9    4   21 1   
    10    4   22 1   
    11    5    6 1   
    12    5    7 2   
    13    6   23 1   
    14    6   24 1   
    15    7    8 1   
    16    8    9 ar  
    17    9   10 ar  
    18   10   11 ar  
    19   10   25 1   
    20   11   12 1   
    21   12   13 ar  
    22   12   18 ar  
    23   13   14 ar  
    24   13   26 1   
    25   14   15 ar  
    26   14   27 1   
    27   15   16 1   
    28   15   17 ar  
    29   16   28 1   
    30   17   18 ar  
    31   17   29 1   
    32   18   30 1   
@<TRIPOS>SUBSTRUCTURE
     1 1HP         1 TEMP              0 ****  ****    0 ROOT
