@<TRIPOS>MOLECULE
1HP
   31    33     1     0     0
SMALL
bcc


@<TRIPOS>ATOM
      1 CAI        -0.0360   -0.0720    0.0610 ca        1 1HP     -0.118000
      2 CAQ         1.3690    0.0170    0.0270 ca        1 1HP     -0.126500
      3 NAR         2.3510   -0.1020    1.0080 na        1 1HP     -0.118300
      4 CAA         2.1890   -0.3940    2.3940 c3        1 1HP      0.003600
      5 CAM         3.5800    0.0890    0.3160 cc        1 1HP      0.344700
      6 NAB         4.8780    0.0430    0.9820 n4        1 1HP     -0.742600
      7 NAK         3.4430    0.3250   -1.0230 nd        1 1HP     -0.518700
      8 CAP         2.0560    0.2850   -1.2400 ca        1 1HP      0.498300
      9 NAJ         1.3740    0.4620   -2.4210 nb        1 1HP     -0.565000
     10 CAH         0.0560    0.3700   -2.3400 ca        1 1HP      0.410200
     11 CAO        -0.7060    0.1060   -1.1420 cp        1 1HP     -0.043300
     12 CAN        -2.1550    0.0360   -1.2190 cp        1 1HP     -0.130000
     13 CAF        -2.9470    0.5460   -0.1750 ca        1 1HP     -0.061500
     14 CAD        -4.3320    0.4870   -0.2370 ca        1 1HP     -0.186500
     15 CAL        -4.9440   -0.1000   -1.3610 ca        1 1HP      0.166100
     16 OAC        -6.3120   -0.1330   -1.3590 oh        1 1HP     -0.478100
     17 CAE        -4.1670   -0.6160   -2.4110 ca        1 1HP     -0.186500
     18 CAG        -2.7810   -0.5420   -2.3350 ca        1 1HP     -0.061500
     19 HAI        -0.5770   -0.2820    0.9960 ha        1 1HP      0.163000
     20 HAA1        2.7010   -1.3610    2.6530 h1        1 1HP      0.075367
     21 HAA2        1.0920   -0.4950    2.6240 h1        1 1HP      0.075367
     22 HAA3        2.6130    0.4390    3.0190 h1        1 1HP      0.075367
     23 HAB1        4.9270    0.7840    1.6930 hn        1 1HP      0.479467
     24 HAB2        5.0090   -0.8750    1.4230 hn        1 1HP      0.479467
     25 HAH        -0.4870    0.5270   -3.2950 h4        1 1HP      0.057100
     26 HAF        -2.4660    1.0140    0.6980 ha        1 1HP      0.137500
     27 HAD        -4.9590    0.8900    0.5720 ha        1 1HP      0.158500
     28 HOAC       -6.6120   -0.5450   -2.1840 ho        1 1HP      0.434000
     29 HAE        -4.6510   -1.0750   -3.2850 ha        1 1HP      0.158500
     30 HAG        -2.1750   -0.9560   -3.1560 ha        1 1HP      0.137500
     31 HAB3        5.6190    0.1950    0.2780 hn        1 1HP      0.479467
@<TRIPOS>BOND
     1    1    2 ar  
     2    1   11 ar  
     3    1   19 1   
     4    2    3 1   
     5    2    8 ar  
     6    3    4 1   
     7    3    5 1   
     8    4   20 1   
     9    4   21 1   
    10    4   22 1   
    11    5    6 1   
    12    5    7 2   
    13    6   23 1   
    14    6   24 1   
    15    6   31 1   
    16    7    8 1   
    17    8    9 ar  
    18    9   10 ar  
    19   10   11 ar  
    20   10   25 1   
    21   11   12 1   
    22   12   13 ar  
    23   12   18 ar  
    24   13   14 ar  
    25   13   26 1   
    26   14   15 ar  
    27   14   27 1   
    28   15   16 1   
    29   15   17 ar  
    30   16   28 1   
    31   17   18 ar  
    32   17   29 1   
    33   18   30 1   
@<TRIPOS>SUBSTRUCTURE
     1 1HP         1 TEMP              0 ****  ****    0 ROOT
