@<TRIPOS>MOLECULE
1HP
   30    22     1     0     0
SMALL
bcc


@<TRIPOS>ATOM
      1 CAI         0.2770   -0.0780    0.7200 c1        1 1HP     -0.076333
      2 CAQ         1.6600    0.0300    0.7230 c1        1 1HP     -0.077000
      3 NAR         2.5700    0.0270    1.7300 n1        1 1HP     -0.142500
      4 CAA         2.6110   -0.2880    3.1180 c2        1 1HP     -0.069000
      5 CAM         3.8060    0.1650    1.1800 c1        1 1HP      0.062000
      6 NAB         5.2080    0.2530    1.3780 n2        1 1HP     -0.294000
      7 NAK         3.6590    0.2530   -0.1690 n2        1 1HP     -0.160000
      8 CAP         2.3350    0.1700   -0.4530 c1        1 1HP      0.062000
      9 NAJ         1.6400    0.2050   -1.6510 n1        1 1HP     -0.142500
     10 CAH         0.2820    0.0980   -1.6550 c1        1 1HP     -0.076333
     11 CAO        -0.4060   -0.0440   -0.4610 c1        1 1HP     -0.077000
     12 CAN        -1.7310   -0.0330   -0.8660 c1        1 1HP     -0.077000
     13 CAF        -2.3820   -1.2270   -1.1380 c1        1 1HP     -0.122000
     14 CAD        -3.6980   -1.2150   -1.5740 c1        1 1HP     -0.122000
     15 CAL        -4.3630   -0.0090   -1.7380 c1        1 1HP      0.083000
     16 OAC        -5.6930    0.0030   -2.1950 oh        1 1HP     -0.250000
     17 CAE        -3.7120    1.1840   -1.4660 c1        1 1HP     -0.212000
     18 CAG        -2.3960    1.1720   -1.0300 c1        1 1HP     -0.076333
     19 HAI        -0.2070   -0.1780    1.5620 ha        1 1HP      0.148000
     20 HAA1        1.7760   -0.7330    3.3770 ha        1 1HP      0.091667
     21 HAA2        2.7170    0.5380    3.6380 ha        1 1HP      0.091667
     22 HAA3        3.3690   -0.8850    3.2950 ha        1 1HP      0.091667
     23 HAB1        5.7620    0.3940    0.6650 hn        1 1HP      0.203000
     24 HAB2        5.5580    0.1600    2.2170 hn        1 1HP      0.203000
     25 HAH        -0.2070    0.1230   -2.5000 ha        1 1HP      0.148000
     26 HAF        -1.9140   -2.0750   -1.0220 ha        1 1HP      0.144000
     27 HAD        -4.1560   -2.0550   -1.7650 ha        1 1HP      0.144000
     28 HOAC       -6.2460    0.0000   -1.4980 ho        1 1HP      0.219000
     29 HAE        -4.1800    2.0320   -1.5820 ha        1 1HP      0.136000
     30 HAG        -1.9380    2.0120   -0.8390 ha        1 1HP      0.148000
@<TRIPOS>BOND
     1    1    2 1   
     2    1   19 1   
     3    3    5 1   
     4    4   20 1   
     5    4   21 1   
     6    4   22 1   
     7    5    7 1   
     8    6   23 1   
     9    6   24 1   
    10    7    8 1   
    11    8    9 1   
    12   10   11 1   
    13   10   25 1   
    14   12   18 1   
    15   13   14 1   
    16   13   26 1   
    17   14   27 1   
    18   15   16 1   
    19   15   17 1   
    20   16   28 1   
    21   17   29 1   
    22   18   30 1   
@<TRIPOS>SUBSTRUCTURE
     1 1HP         1 TEMP              0 ****  ****    0 ROOT
