@<TRIPOS>MOLECULE
1HP
   30    32     1     0     0
SMALL
bcc


@<TRIPOS>ATOM
      1 CAI        -0.5110    0.6220    0.1200 ca        1 1HP     -0.081000
      2 CAQ        -1.8550    0.2680    0.0100 ca        1 1HP     -0.192500
      3 NAR        -3.0500    0.9700    0.2290 na        1 1HP     -0.174300
      4 CAA        -3.1970    2.3860    0.2480 c3        1 1HP      0.030600
      5 CAM        -4.1020    0.0380   -0.0820 cc        1 1HP      0.597700
      6 NAB        -5.4480    0.4430   -0.1140 nh        1 1HP     -0.855800
      7 NAK        -3.6430   -1.2130   -0.3780 nd        1 1HP     -0.666700
      8 CAP        -2.2300   -1.1060   -0.3440 ca        1 1HP      0.551300
      9 NAJ        -1.3000   -2.0730   -0.5740 nb        1 1HP     -0.610000
     10 CAH        -0.0230   -1.6890   -0.4620 ca        1 1HP      0.395200
     11 CAO         0.4300   -0.3830   -0.1230 cp        1 1HP     -0.145300
     12 CAN         1.8580   -0.1070   -0.0350 cp        1 1HP     -0.067000
     13 CAF         2.3800    1.1020   -0.5230 ca        1 1HP     -0.083500
     14 CAD         3.7400    1.3770   -0.4440 ca        1 1HP     -0.184500
     15 CAL         4.5960    0.4260    0.1360 ca        1 1HP      0.127100
     16 OAC         5.9310    0.7530    0.1890 oh        1 1HP     -0.496100
     17 CAE         4.0930   -0.7860    0.6280 ca        1 1HP     -0.184500
     18 CAG         2.7280   -1.0450    0.5390 ca        1 1HP     -0.083500
     19 HAI        -0.2000    1.6390    0.3950 ha        1 1HP      0.141000
     20 HAA1       -3.5840    2.7710   -0.7350 h1        1 1HP      0.052367
     21 HAA2       -3.9220    2.6730    1.0580 h1        1 1HP      0.052367
     22 HAA3       -2.2030    2.8610    0.4630 h1        1 1HP      0.052367
     23 HAB1       -5.6900    1.0740    0.6210 hn        1 1HP      0.407300
     24 HAB2       -6.0800   -0.3290   -0.1860 hn        1 1HP      0.407300
     25 HAH         0.7180   -2.4850   -0.6640 h4        1 1HP      0.026100
     26 HAF         1.7050    1.8390   -0.9840 ha        1 1HP      0.138000
     27 HAD         4.1550    2.3190   -0.8280 ha        1 1HP      0.144000
     28 HOAC        6.4040    0.0140    0.5980 ho        1 1HP      0.420000
     29 HAE         4.7690   -1.5250    1.0810 ha        1 1HP      0.144000
     30 HAG         2.3290   -1.9930    0.9300 ha        1 1HP      0.138000
@<TRIPOS>BOND
     1    1    2 ar  
     2    1   11 ar  
     3    1   19 1   
     4    2    3 1   
     5    2    8 ar  
     6    3    4 1   
     7    3    5 1   
     8    4   20 1   
     9    4   21 1   
    10    4   22 1   
    11    5    6 1   
    12    5    7 2   
    13    6   23 1   
    14    6   24 1   
    15    7    8 1   
    16    8    9 ar  
    17    9   10 ar  
    18   10   11 ar  
    19   10   25 1   
    20   11   12 1   
    21   12   13 ar  
    22   12   18 ar  
    23   13   14 ar  
    24   13   26 1   
    25   14   15 ar  
    26   14   27 1   
    27   15   16 1   
    28   15   17 ar  
    29   16   28 1   
    30   17   18 ar  
    31   17   29 1   
    32   18   30 1   
@<TRIPOS>SUBSTRUCTURE
     1 1HP         1 TEMP              0 ****  ****    0 ROOT
