@<TRIPOS>MOLECULE
1HP
   30    32     1     0     0
SMALL
bcc


@<TRIPOS>ATOM
      1 CAI        -0.0240    0.0970    0.0160 ca        1 1HP     -0.081000
      2 CAQ         1.3670   -0.0050    0.0200 ca        1 1HP     -0.192500
      3 NAR         2.3410    0.2430    0.9970 na        1 1HP     -0.174300
      4 CAA         2.1220    0.3020    2.4030 c3        1 1HP      0.031600
      5 CAM         3.5980   -0.0760    0.3730 cc        1 1HP      0.596700
      6 NAB         4.7960   -0.0830    1.1090 nv        1 1HP     -0.855800
      7 NAK         3.4750   -0.4060   -0.9460 nd        1 1HP     -0.666700
      8 CAP         2.0810   -0.3860   -1.2040 ca        1 1HP      0.551300
      9 NAJ         1.4300   -0.6480   -2.3700 nb        1 1HP     -0.610000
     10 CAH         0.0980   -0.5420   -2.3280 ca        1 1HP      0.396200
     11 CAO        -0.6760   -0.1800   -1.1890 cp        1 1HP     -0.145300
     12 CAN        -2.1280   -0.1030   -1.2890 cp        1 1HP     -0.067000
     13 CAF        -2.9380   -0.5770   -0.2480 ca        1 1HP     -0.083500
     14 CAD        -4.3250   -0.5080   -0.3380 ca        1 1HP     -0.184500
     15 CAL        -4.9120    0.0450   -1.4850 ca        1 1HP      0.127100
     16 OAC        -6.2730    0.1500   -1.6480 oh        1 1HP     -0.495100
     17 CAE        -4.1150    0.5260   -2.5380 ca        1 1HP     -0.184500
     18 CAG        -2.7330    0.4460   -2.4310 ca        1 1HP     -0.083500
     19 HAI        -0.5870    0.3910    0.9130 ha        1 1HP      0.140000
     20 HAA1        2.7450    1.1290    2.8410 h1        1 1HP      0.051700
     21 HAA2        1.0390    0.5160    2.6020 h1        1 1HP      0.051700
     22 HAA3        2.4050   -0.6650    2.9020 h1        1 1HP      0.051700
     23 HAB1        5.6050   -0.1680    0.5250 hn        1 1HP      0.407300
     24 HAB2        4.8670    0.6730    1.7580 hn        1 1HP      0.407300
     25 HAH        -0.4150   -0.7700   -3.2820 h4        1 1HP      0.027100
     26 HAF        -2.4740   -1.0170    0.6480 ha        1 1HP      0.137500
     27 HAD        -4.9550   -0.8850    0.4800 ha        1 1HP      0.144000
     28 HOAC       -6.6980   -0.2240   -0.8620 ho        1 1HP      0.420000
     29 HAE        -4.5950    0.9570   -3.4280 ha        1 1HP      0.144000
     30 HAG        -2.1030    0.8270   -3.2510 ha        1 1HP      0.137500
@<TRIPOS>BOND
     1    1    2 ar  
     2    1   11 ar  
     3    1   19 1   
     4    2    3 1   
     5    2    8 ar  
     6    3    4 1   
     7    3    5 1   
     8    4   20 1   
     9    4   21 1   
    10    4   22 1   
    11    5    6 1   
    12    5    7 2   
    13    6   23 1   
    14    6   24 1   
    15    7    8 1   
    16    8    9 ar  
    17    9   10 ar  
    18   10   11 ar  
    19   10   25 1   
    20   11   12 1   
    21   12   13 ar  
    22   12   18 ar  
    23   13   14 ar  
    24   13   26 1   
    25   14   15 ar  
    26   14   27 1   
    27   15   16 1   
    28   15   17 ar  
    29   16   28 1   
    30   17   18 ar  
    31   17   29 1   
    32   18   30 1   
@<TRIPOS>SUBSTRUCTURE
     1 1HP         1 TEMP              0 ****  ****    0 ROOT
