@<TRIPOS>MOLECULE
1HQ
   44    46     1     0     0
SMALL
bcc


@<TRIPOS>ATOM
      1 C2          0.2850   -0.9390    0.4160 c2        1 1HQ     -0.064000
      2 C3          1.0360   -1.2720    1.5560 c2        1 1HQ     -0.064000
      3 C4          1.8970   -0.2990    2.0940 c2        1 1HQ     -0.120000
      4 N5          2.0410    0.9540    1.5650 n2        1 1HQ     -0.155000
      5 C6          1.3240    1.2560    0.4850 c2        1 1HQ     -0.016000
      6 N9          3.5350    0.4080    3.9380 n4        1 1HQ     -0.039000
      7 C15         7.5900    0.1370    2.6790 ca        1 1HQ      0.184000
      8 C1          0.4230    0.3360   -0.1340 c2        1 1HQ      0.052000
      9 C7          2.6710   -0.6690    3.2960 c2        1 1HQ      0.335000
     10 O8          2.6910   -1.7520    3.8660 o         1 1HQ     -0.201000
     11 C10        -0.3050    0.7320   -1.2830 c1        1 1HQ     -0.156000
     12 N11        -0.9030    1.0570   -2.2270 n1        1 1HQ      0.098000
     13 C12         4.9300    0.3120    3.4990 ca        1 1HQ     -0.162000
     14 C13         5.4040    1.1920    2.5110 ca        1 1HQ     -0.050000
     15 C14         6.7270    1.1010    2.1110 ca        1 1HQ     -0.155000
     16 C16         7.1140   -0.7520    3.6830 ca        1 1HQ     -0.086000
     17 C17         5.7790   -0.6510    4.0770 ca        1 1HQ     -0.065000
     18 C19         8.0650   -1.7760    4.2780 c3        1 1HQ     -0.020000
     19 C20         8.5660   -2.6820    3.1220 c3        1 1HQ     -0.218000
     20 C21         9.2200   -3.9480    3.6280 c3        1 1HQ     -0.020000
     21 O22         8.3750   -4.6530    4.5740 os        1 1HQ     -0.230000
     22 C23         7.7070   -3.8110    5.4410 c2        1 1HQ      0.099000
     23 N24         7.4640   -2.5410    5.3710 n2        1 1HQ     -0.207000
     24 C25         9.3530   -0.9680    4.7530 c2        1 1HQ     -0.012000
     25 F26         8.9970   -0.0470    5.8570 f         1 1HQ     -0.001000
     26 F27        10.2200   -1.7240    5.4480 f         1 1HQ     -0.163000
     27 N28         7.2510   -4.6500    6.5810 n4        1 1HQ     -0.028000
     28 H1         -0.4020   -1.6800   -0.0300 ha        1 1HQ      0.196000
     29 H2          0.9480   -2.2700    2.0160 ha        1 1HQ      0.187000
     30 H3          1.4540    2.2790    0.0760 h4        1 1HQ      0.209000
     31 H4          3.1710    1.3430    3.7030 hn        1 1HQ      0.269500
     32 H5          4.7480    1.9500    2.0450 ha        1 1HQ      0.183000
     33 H6          7.1240    1.7820    1.3350 ha        1 1HQ      0.198000
     34 H7          5.3700   -1.3300    4.8450 ha        1 1HQ      0.161000
     35 H8          9.3240   -2.1140    2.5150 hc        1 1HQ      0.146000
     36 H9          7.7030   -2.9370    2.4550 hc        1 1HQ      0.146000
     37 H10        10.1960   -3.7400    4.1440 h1        1 1HQ      0.151500
     38 H11         9.3570   -4.7090    2.8100 h1        1 1HQ      0.151500
     39 H12         9.4180    0.6380    6.0770 ha        1 1HQ      0.392000
     40 H13         8.0820   -4.9570    7.1070 hn        1 1HQ      0.282000
     41 H14         6.7740   -5.4790    6.2000 hn        1 1HQ      0.282000
     42 H92         3.5030    0.2860    4.9590 hn        1 1HQ      0.269500
     43 H283        6.6180   -4.1290    7.1990 hn        1 1HQ      0.282000
     44 F18         8.8570    0.0910    2.2300 f         1 1HQ     -0.043000
@<TRIPOS>BOND
     1    1    2 1   
     2    1    8 1   
     3    1   28 1   
     4    2    3 1   
     5    2   29 1   
     6    3    4 1   
     7    3    9 1   
     8    4    5 1   
     9    5    8 1   
    10    5   30 1   
    11    6    9 1   
    12    6   13 1   
    13    6   31 1   
    14    6   42 1   
    15    7   15 1   
    16    7   16 1   
    17    7   44 1   
    18    8   11 1   
    19    9   10 1   
    20   11   12 1   
    21   13   14 1   
    22   13   17 1   
    23   14   15 1   
    24   14   32 1   
    25   15   33 1   
    26   16   17 1   
    27   16   18 1   
    28   17   34 1   
    29   18   19 1   
    30   18   23 1   
    31   18   24 1   
    32   19   20 1   
    33   19   35 1   
    34   19   36 1   
    35   20   21 1   
    36   20   37 1   
    37   20   38 1   
    38   21   22 1   
    39   22   23 1   
    40   22   27 1   
    41   24   25 1   
    42   24   26 1   
    43   25   39 1   
    44   27   40 1   
    45   27   41 1   
    46   27   43 1   
@<TRIPOS>SUBSTRUCTURE
     1 1HQ         1 TEMP              0 ****  ****    0 ROOT
