@<TRIPOS>MOLECULE
1HQ
   43    45     1     0     0
SMALL
bcc


@<TRIPOS>ATOM
      1 C2         -0.1540    0.6990    0.1620 c2        1 1HQ     -0.059000
      2 C3          1.2420    0.7610    0.1330 c2        1 1HQ     -0.116000
      3 C4          1.9680    0.2240    1.2150 c2        1 1HQ     -0.059000
      4 N5          1.3730   -0.3500    2.2920 n2        1 1HQ     -0.146000
      5 C6          0.0350   -0.4020    2.3110 c2        1 1HQ     -0.035000
      6 N9          4.2230   -0.4800    1.9770 ns        1 1HQ     -0.311000
      7 C15         8.4240   -0.6170    2.3570 ca        1 1HQ      0.079000
      8 C1         -0.7780    0.1090    1.2660 c2        1 1HQ     -0.023000
      9 C7          3.4730    0.3360    1.1400 c2        1 1HQ      0.364000
     10 O8          3.9900    1.1260    0.3310 o         1 1HQ     -0.333000
     11 C10        -2.1900    0.0160    1.3560 c1        1 1HQ     -0.116000
     12 N11        -3.3480   -0.0620    1.4310 n1        1 1HQ      0.014000
     13 C12         5.6230   -0.4930    2.0740 ca        1 1HQ      0.071000
     14 C13         6.4650    0.0070    1.0560 ca        1 1HQ     -0.110000
     15 C14         7.8400   -0.0550    1.2050 ca        1 1HQ     -0.137000
     16 C16         7.6010   -1.1290    3.3880 ca        1 1HQ     -0.097000
     17 C17         6.2150   -1.0550    3.2300 ca        1 1HQ     -0.158000
     18 C19         8.2320   -1.7320    4.6310 c3        1 1HQ     -0.008000
     19 C20         9.2230   -2.8410    4.1910 c3        1 1HQ     -0.215000
     20 C21         9.5970   -3.7590    5.3320 c3        1 1HQ     -0.018000
     21 O22         8.4250   -4.3120    5.9870 os        1 1HQ     -0.242000
     22 C23         7.4160   -3.3760    6.1380 c2        1 1HQ      0.073000
     23 N24         7.2230   -2.2340    5.5680 n2        1 1HQ     -0.176000
     24 C25         9.1410   -0.6100    5.2860 c2        1 1HQ     -0.028000
     25 F26         8.3250    0.5940    5.5470 f         1 1HQ      0.008000
     26 F27         9.4800   -0.8600    6.5640 f         1 1HQ     -0.169000
     27 N28         6.4770   -3.9170    7.1580 nz        1 1HQ     -0.026000
     28 H1         -0.7480    1.1100   -0.6700 ha        1 1HQ      0.170000
     29 H2          1.7770    1.2280   -0.7110 ha        1 1HQ      0.184000
     30 H3         -0.4210   -0.8720    3.2020 h4        1 1HQ      0.179000
     31 H4          3.7380   -1.0290    2.6530 hn        1 1HQ      0.250000
     32 H5          6.0420    0.4540    0.1390 ha        1 1HQ      0.191000
     33 H6          8.5000    0.3340    0.4120 ha        1 1HQ      0.169000
     34 H7          5.5490   -1.4370    4.0200 ha        1 1HQ      0.136000
     35 H8         10.1610   -2.3540    3.8040 hc        1 1HQ      0.148500
     36 H9          8.7650   -3.4280    3.3530 hc        1 1HQ      0.148500
     37 H10        10.1340   -4.6800    4.9760 h1        1 1HQ      0.137000
     38 H11        10.1960   -3.2230    6.1160 h1        1 1HQ      0.137000
     39 H12         8.4780    1.3480    5.2280 ha        1 1HQ      0.389000
     40 H13         5.6760   -3.2890    7.2880 hn        1 1HQ      0.274333
     41 H14         6.9890   -4.0250    8.0430 hn        1 1HQ      0.274333
     42 H283        6.1570   -4.8390    6.8380 hn        1 1HQ      0.274333
     43 F18         9.7750   -0.6440    2.4350 f         1 1HQ     -0.088000
@<TRIPOS>BOND
     1    1    2 1   
     2    1    8 1   
     3    1   28 1   
     4    2    3 1   
     5    2   29 1   
     6    3    4 1   
     7    3    9 1   
     8    4    5 1   
     9    5    8 1   
    10    5   30 1   
    11    6    9 1   
    12    6   13 1   
    13    6   31 1   
    14    7   15 1   
    15    7   16 1   
    16    7   43 1   
    17    8   11 1   
    18    9   10 1   
    19   11   12 1   
    20   13   14 1   
    21   13   17 1   
    22   14   15 1   
    23   14   32 1   
    24   15   33 1   
    25   16   17 1   
    26   16   18 1   
    27   17   34 1   
    28   18   19 1   
    29   18   23 1   
    30   18   24 1   
    31   19   20 1   
    32   19   35 1   
    33   19   36 1   
    34   20   21 1   
    35   20   37 1   
    36   20   38 1   
    37   21   22 1   
    38   22   23 1   
    39   22   27 1   
    40   24   25 1   
    41   24   26 1   
    42   25   39 1   
    43   27   40 1   
    44   27   41 1   
    45   27   42 1   
@<TRIPOS>SUBSTRUCTURE
     1 1HQ         1 TEMP              0 ****  ****    0 ROOT
