@<TRIPOS>MOLECULE
1HQ
   42    44     1     0     0
SMALL
bcc


@<TRIPOS>ATOM
      1 C2          6.5180    0.4210    0.3320 ca        1 1HQ     -0.063000
      2 C3          5.3110    1.1120    0.4620 ca        1 1HQ     -0.192300
      3 C4          4.1240    0.4980    0.0120 ca        1 1HQ      0.370800
      4 N5          4.1010   -0.7370   -0.5480 nb        1 1HQ     -0.658000
      5 C6          5.2640   -1.3900   -0.6710 ca        1 1HQ      0.434200
      6 N9          1.6520    0.6190    0.1220 n         1 1HQ     -0.443100
      7 C15        -2.2770    2.1290    0.3710 ca        1 1HQ      0.088900
      8 C1          6.5050   -0.8550   -0.2440 ca        1 1HQ     -0.111300
      9 C7          2.8490    1.3050    0.1590 c         1 1HQ      0.576600
     10 O8          2.9410    2.5340    0.3380 o         1 1HQ     -0.590100
     11 C10         7.6980   -1.6040   -0.4040 cg        1 1HQ      0.227800
     12 N11         8.6770   -2.2190   -0.5340 n1        1 1HQ     -0.336800
     13 C12         0.3610    1.1730    0.2090 ca        1 1HQ      0.047600
     14 C13         0.1170    2.5330    0.4820 ca        1 1HQ     -0.127000
     15 C14        -1.1880    2.9970    0.5560 ca        1 1HQ     -0.142000
     16 C16        -2.0590    0.7540    0.1120 ca        1 1HQ     -0.083300
     17 C17        -0.7430    0.3040    0.0230 ca        1 1HQ     -0.116000
     18 C19        -3.2300   -0.2090   -0.0740 c3        1 1HQ      0.187500
     19 C20        -4.2300    0.0170    1.0840 c3        1 1HQ     -0.146400
     20 C21        -5.1210   -1.1870    1.3010 c3        1 1HQ      0.130400
     21 O22        -4.3780   -2.4000    1.4460 os        1 1HQ     -0.461400
     22 C23        -3.3120   -2.5300    0.5400 c2        1 1HQ      0.807500
     23 N24        -2.7780   -1.5820   -0.1940 n2        1 1HQ     -0.728900
     24 C25        -3.9510    0.2370   -1.4260 c3        1 1HQ      0.399900
     25 F26        -3.1950    0.0290   -2.5520 f         1 1HQ     -0.239800
     26 F27        -5.0840   -0.5010   -1.6870 f         1 1HQ     -0.239800
     27 N28        -2.8320   -3.8410    0.5910 nh        1 1HQ     -0.886800
     28 H1          7.4610    0.8740    0.6750 ha        1 1HQ      0.160000
     29 H2          5.2730    2.1230    0.8970 ha        1 1HQ      0.181000
     30 H3          5.2080   -2.3930   -1.1360 h4        1 1HQ      0.042100
     31 H4          1.6780   -0.3590   -0.0800 hn        1 1HQ      0.342500
     32 H5          0.9460    3.2440    0.6340 ha        1 1HQ      0.180000
     33 H6         -1.3820    4.0610    0.7590 ha        1 1HQ      0.153000
     34 H7         -0.5500   -0.7590   -0.2070 ha        1 1HQ      0.167000
     35 H8         -3.6530    0.2340    2.0200 hc        1 1HQ      0.078200
     36 H9         -4.8790    0.9040    0.8670 hc        1 1HQ      0.078200
     37 H10        -5.6870   -1.1080    2.2680 h1        1 1HQ      0.069700
     38 H11        -5.8360   -1.3170    0.4440 h1        1 1HQ      0.069700
     39 H12        -4.2180    1.3330   -1.3330 h2        1 1HQ      0.075700
     40 H13        -3.4910   -4.5060    0.9290 hn        1 1HQ      0.423800
     41 H14        -2.2900   -4.1310   -0.1920 hn        1 1HQ      0.423800
     42 F18        -3.5270    2.6560    0.4410 f         1 1HQ     -0.150900
@<TRIPOS>BOND
     1    1    2 ar  
     2    1    8 ar  
     3    1   28 1   
     4    2    3 ar  
     5    2   29 1   
     6    3    4 ar  
     7    3    9 1   
     8    4    5 ar  
     9    5    8 ar  
    10    5   30 1   
    11    6    9 1   
    12    6   13 1   
    13    6   31 1   
    14    7   15 ar  
    15    7   16 ar  
    16    7   42 1   
    17    8   11 1   
    18    9   10 2   
    19   11   12 3   
    20   13   14 ar  
    21   13   17 ar  
    22   14   15 ar  
    23   14   32 1   
    24   15   33 1   
    25   16   17 ar  
    26   16   18 1   
    27   17   34 1   
    28   18   19 1   
    29   18   23 1   
    30   18   24 1   
    31   19   20 1   
    32   19   35 1   
    33   19   36 1   
    34   20   21 1   
    35   20   37 1   
    36   20   38 1   
    37   21   22 1   
    38   22   23 2   
    39   22   27 1   
    40   24   25 1   
    41   24   26 1   
    42   24   39 1   
    43   27   40 1   
    44   27   41 1   
@<TRIPOS>SUBSTRUCTURE
     1 1HQ         1 TEMP              0 ****  ****    0 ROOT
