@<TRIPOS>MOLECULE
1HQ
   42    38     1     0     0
SMALL
bcc


@<TRIPOS>ATOM
      1 C2         -5.8100   -0.1820    2.9330 c1        1 1HQ     -0.062000
      2 C3         -4.5720    0.3570    2.8400 c1        1 1HQ     -0.128000
      3 C4         -3.8700    0.2880    1.6410 c1        1 1HQ     -0.046000
      4 N5         -4.4290   -0.3240    0.5590 n2        1 1HQ     -0.132000
      5 C6         -5.6710   -0.8660    0.6510 c1        1 1HQ     -0.032000
      6 N9         -1.6900    0.6490    0.3560 n3        1 1HQ     -0.296000
      7 C15         2.3830    1.8310    0.2620 c1        1 1HQ      0.080000
      8 C1         -6.3720   -0.7960    1.8490 c1        1 1HQ     -0.043000
      9 C7         -2.4310    0.7750    1.5750 c1        1 1HQ      0.359000
     10 O8         -1.8970    1.2260    2.5660 o         1 1HQ     -0.352000
     11 C10        -7.7970   -1.2660    1.9110 c1        1 1HQ     -0.101000
     12 N11        -8.8760   -1.6210    1.9610 n1        1 1HQ     -0.012000
     13 C12        -0.2920    1.0640    0.3080 c1        1 1HQ      0.047000
     14 C13         0.0940    2.2900    0.8740 c1        1 1HQ     -0.118000
     15 C14         1.4140    2.6710    0.8520 c2        1 1HQ     -0.151000
     16 C16         2.0010    0.6130   -0.3010 c1        1 1HQ     -0.076000
     17 C17         0.6690    0.2290   -0.2790 c2        1 1HQ     -0.112000
     18 F18         3.4330    2.7060    0.3150 f         1 1HQ     -0.110000
     19 C19         3.0290   -0.3160   -0.8280 c2        1 1HQ      0.055000
     20 C20         3.8280    0.5430   -1.9080 c3        1 1HQ     -0.231000
     21 C21         4.4900   -0.0750   -2.6360 c3        1 1HQ     -0.019000
     22 O22         3.7760   -1.1170   -3.3980 os        1 1HQ     -0.259000
     23 C23         2.9980   -1.9670   -2.6840 c2        1 1HQ      0.225000
     24 N24         2.3420   -1.3200   -1.3470 n2        1 1HQ     -0.314000
     25 C25         3.8950   -0.7300    0.4400 c3        1 1HQ      0.217000
     26 F26         4.1190    0.3430    1.1990 f         1 1HQ     -0.166000
     27 F27         3.2280   -1.6480    1.1530 f         1 1HQ     -0.166000
     28 N28         2.3690   -3.0530   -3.3270 n3        1 1HQ     -0.319000
     29 H1         -6.2900   -0.1340    3.7600 ha        1 1HQ      0.160000
     30 H2         -4.1760    0.7910    3.6080 ha        1 1HQ      0.180000
     31 H3         -6.0920   -1.3270   -0.1630 ha        1 1HQ      0.179000
     32 H4         -2.0600    0.2300   -0.3550 hn        1 1HQ      0.255000
     33 H5         -0.6220    2.9140    1.3080 ha        1 1HQ      0.176000
     34 H6          1.6810    3.5200    1.2440 ha        1 1HQ      0.152000
     35 H7          0.3970   -0.6290   -0.6770 ha        1 1HQ      0.165000
     36 H8          4.3880    1.1620   -1.4450 hc        1 1HQ      0.126000
     37 H9          3.1700    1.0570   -2.4440 hc        1 1HQ      0.126000
     38 H10         4.9130    0.5560   -3.2880 h1        1 1HQ      0.102500
     39 H11         5.1890   -0.5000   -2.1240 h1        1 1HQ      0.102500
     40 H12         4.7610   -1.1110    0.1410 h2        1 1HQ      0.101000
     41 H13         1.9720   -3.7040   -2.8350 hn        1 1HQ      0.219000
     42 H14         2.4100   -3.1310   -4.2650 hn        1 1HQ      0.219000
@<TRIPOS>BOND
     1    1    8 1   
     2    1   29 1   
     3    2    3 1   
     4    2   30 1   
     5    3    4 1   
     6    4    5 1   
     7    5   31 1   
     8    6    9 1   
     9    6   13 1   
    10    6   32 1   
    11    7   15 1   
    12    7   16 1   
    13    8   11 1   
    14    9   10 1   
    15   11   12 1   
    16   13   17 1   
    17   14   15 1   
    18   14   33 1   
    19   15   34 1   
    20   16   17 1   
    21   17   35 1   
    22   19   20 1   
    23   19   24 1   
    24   19   25 1   
    25   20   21 1   
    26   20   36 1   
    27   20   37 1   
    28   21   22 1   
    29   21   38 1   
    30   21   39 1   
    31   22   23 1   
    32   23   24 1   
    33   23   28 1   
    34   25   26 1   
    35   25   27 1   
    36   25   40 1   
    37   28   41 1   
    38   28   42 1   
@<TRIPOS>SUBSTRUCTURE
     1 1HQ         1 TEMP              0 ****  ****    0 ROOT
