@<TRIPOS>MOLECULE
1HQ
   43    45     1     0     0
SMALL
bcc


@<TRIPOS>ATOM
      1 C2         -0.1510    0.7340    0.1800 c2        1 1HQ     -0.059000
      2 C3          1.2140    0.4690    0.0360 c2        1 1HQ     -0.119000
      3 C4          1.9290   -0.0260    1.1440 c2        1 1HQ     -0.057000
      4 N5          1.3540   -0.2640    2.3510 n2        1 1HQ     -0.143000
      5 C6          0.0450   -0.0100    2.4770 c2        1 1HQ     -0.034000
      6 N9          4.2200   -0.3150    2.0440 n         1 1HQ     -0.311000
      7 C15         8.3750   -1.0480    2.1960 ca        1 1HQ      0.089000
      8 C1         -0.7550    0.4940    1.4190 c2        1 1HQ     -0.027000
      9 C7          3.3960   -0.3180    0.9280 c2        1 1HQ      0.364000
     10 O8          3.8160   -0.5270   -0.2240 o         1 1HQ     -0.335000
     11 C10        -2.1350    0.7410    1.6290 c1        1 1HQ     -0.114000
     12 N11        -3.2680    0.9430    1.8030 n1        1 1HQ      0.011000
     13 C12         5.5980   -0.5820    2.0460 ca        1 1HQ      0.071000
     14 C13         6.4060   -0.4500    0.8940 ca        1 1HQ     -0.103000
     15 C14         7.7690   -0.6700    0.9800 ca        1 1HQ     -0.136000
     16 C16         7.5820   -1.2360    3.3470 ca        1 1HQ     -0.084000
     17 C17         6.2110   -0.9650    3.2590 ca        1 1HQ     -0.144000
     18 C19         8.1460   -1.6550    4.7050 c3        1 1HQ     -0.001000
     19 C20         9.5160   -2.3500    4.5560 c3        1 1HQ     -0.222000
     20 C21         9.8710   -3.2480    5.7210 c3        1 1HQ     -0.015000
     21 O22         8.8230   -4.2070    6.0050 os        1 1HQ     -0.240000
     22 C23         7.5610   -3.6370    5.9060 c2        1 1HQ      0.059000
     23 N24         7.1750   -2.5260    5.3830 n2        1 1HQ     -0.162000
     24 C25         8.3700   -0.2690    5.4290 c2        1 1HQ     -0.012000
     25 F26         7.2490    0.3220    5.8610 f         1 1HQ     -0.150000
     26 F27         8.9710   -0.4910    6.7880 f         1 1HQ     -0.028000
     27 N28         6.6050   -4.5770    6.5530 n4        1 1HQ     -0.025000
     28 H1         -0.7370    1.1230   -0.6680 ha        1 1HQ      0.168000
     29 H2          1.7290    0.6280   -0.9250 ha        1 1HQ      0.182000
     30 H3         -0.3960   -0.2150    3.4700 h4        1 1HQ      0.179000
     31 H4          3.8000   -0.2000    2.9410 hn        1 1HQ      0.253000
     32 H5          5.9630   -0.1660   -0.0770 ha        1 1HQ      0.188000
     33 H6          8.4060   -0.5410    0.0900 ha        1 1HQ      0.167000
     34 H7          5.5940   -1.0200    4.1720 ha        1 1HQ      0.145000
     35 H8         10.3080   -1.5610    4.4450 hc        1 1HQ      0.149000
     36 H9          9.5140   -2.9710    3.6200 hc        1 1HQ      0.149000
     37 H10        10.0540   -2.6680    6.6640 h1        1 1HQ      0.121500
     38 H11        10.7520   -3.9060    5.4880 h1        1 1HQ      0.121500
     39 H12         9.4590    0.0700    7.1670 ha        1 1HQ      0.383000
     40 H13         7.0080   -4.9020    7.4390 hn        1 1HQ      0.274667
     41 H14         6.4800   -5.3800    5.9230 hn        1 1HQ      0.274667
     42 H283        5.6990   -4.1200    6.7170 hn        1 1HQ      0.274667
     43 F18         9.7220   -1.1980    2.1970 f         1 1HQ     -0.104000
@<TRIPOS>BOND
     1    1    2 1   
     2    1    8 1   
     3    1   28 1   
     4    2    3 1   
     5    2   29 1   
     6    3    4 1   
     7    3    9 1   
     8    4    5 1   
     9    5    8 1   
    10    5   30 1   
    11    6    9 1   
    12    6   13 1   
    13    6   31 1   
    14    7   15 1   
    15    7   16 1   
    16    7   43 1   
    17    8   11 1   
    18    9   10 1   
    19   11   12 1   
    20   13   14 1   
    21   13   17 1   
    22   14   15 1   
    23   14   32 1   
    24   15   33 1   
    25   16   17 1   
    26   16   18 1   
    27   17   34 1   
    28   18   19 1   
    29   18   23 1   
    30   18   24 1   
    31   19   20 1   
    32   19   35 1   
    33   19   36 1   
    34   20   21 1   
    35   20   37 1   
    36   20   38 1   
    37   21   22 1   
    38   22   23 1   
    39   22   27 1   
    40   24   25 1   
    41   24   26 1   
    42   26   39 1   
    43   27   40 1   
    44   27   41 1   
    45   27   42 1   
@<TRIPOS>SUBSTRUCTURE
     1 1HQ         1 TEMP              0 ****  ****    0 ROOT
