@<TRIPOS>MOLECULE
1HR
   23    24     1     0     0
SMALL
bcc


@<TRIPOS>ATOM
      1 OAA         1.2800   -0.3510   -0.9450 o         1 1HR     -0.832800
      2 CAJ         2.3800    0.0190   -0.4580 c         1 1HR      0.929600
      3 OAC         3.4110    0.2900   -1.1440 o         1 1HR     -0.832800
      4 CAO         2.4950    0.1890    1.0530 cx        1 1HR     -0.178700
      5 CAI         2.3480   -0.9620    1.9980 cx        1 1HR     -0.094400
      6 CAP         3.7190   -0.4010    1.7240 cx        1 1HR     -0.262700
      7 CAK         4.4600    0.3970    2.7190 c         1 1HR      0.618700
      8 OAB         4.1980    0.4190    3.9310 o         1 1HR     -0.570100
      9 CAN         5.5870    1.1960    2.1670 ca        1 1HR     -0.165600
     10 CAH         6.5710    1.6830    3.0340 ca        1 1HR     -0.078000
     11 CAM         7.6380    2.4310    2.5340 ca        1 1HR     -0.013600
     12 CL2         8.8260    3.0020    3.6120 cl        1 1HR     -0.105400
     13 CAL         7.7170    2.7030    1.1590 ca        1 1HR      0.032400
     14 CLA         9.0050    3.6120    0.5200 cl        1 1HR     -0.102400
     15 CAF         6.7270    2.2230    0.2970 ca        1 1HR     -0.137000
     16 CAG         5.6630    1.4700    0.7940 ca        1 1HR     -0.070000
     17 H2          2.1350    1.1820    1.3790 hc        1 1HR      0.069700
     18 H3          2.0990   -1.9570    1.5900 hc        1 1HR      0.064700
     19 H4          1.9000   -0.7880    2.9920 hc        1 1HR      0.064700
     20 H5          4.4010   -0.9850    1.0690 hc        1 1HR      0.109700
     21 H6          6.4890    1.4720    4.1130 ha        1 1HR      0.160000
     22 H7          6.7800    2.4360   -0.7820 ha        1 1HR      0.156000
     23 H8          4.8750    1.0920    0.0930 ha        1 1HR      0.240000
@<TRIPOS>BOND
     1    1    2 1   
     2    2    3 1   
     3    2    4 1   
     4    4    5 1   
     5    4    6 1   
     6    4   17 1   
     7    5    6 1   
     8    5   18 1   
     9    5   19 1   
    10    6    7 1   
    11    6   20 1   
    12    7    8 2   
    13    7    9 1   
    14    9   10 ar  
    15    9   16 ar  
    16   10   11 ar  
    17   10   21 1   
    18   11   12 1   
    19   11   13 ar  
    20   13   14 1   
    21   13   15 ar  
    22   15   16 ar  
    23   15   22 1   
    24   16   23 1   
@<TRIPOS>SUBSTRUCTURE
     1 1HR         1 TEMP              0 ****  ****    0 ROOT
