@<TRIPOS>MOLECULE
1HS
   22    21     1     0     0
SMALL
bcc


@<TRIPOS>ATOM
      1 CAK         3.4010   -1.2930   -0.4550 c3        1 1HS     -0.132100
      2 CAJ         3.8420    0.0640    0.0600 c3        1 1HS      0.141100
      3 OAC         5.0880   -0.0400    0.7450 oh        1 1HS     -0.613800
      4 CAI         2.8000    0.7010    0.9690 c3        1 1HS     -0.053300
      5 SAH         1.4140    1.3450    0.0920 ss        1 1HS     -0.351200
      6 CAG         0.1840    0.0700    0.3020 c3        1 1HS      0.067700
      7 CAF        -1.0050    0.4400   -0.5100 c3        1 1HS     -0.279600
      8 SAE        -2.2490   -0.8600   -0.5040 s6        1 1HS      1.427800
      9 OAD        -1.5410   -2.0320   -0.8580 o         1 1HS     -0.747867
     10 OAL        -2.7460   -0.8720    0.8180 o         1 1HS     -0.747867
     11 OAB        -3.1840   -0.4330   -1.4720 o         1 1HS     -0.747867
     12 H1          2.5040   -1.1790   -1.1110 hc        1 1HS      0.048367
     13 H2          4.2260   -1.7600   -1.0450 hc        1 1HS      0.048367
     14 H3          3.1410   -1.9720    0.3910 hc        1 1HS      0.048367
     15 H4          4.0700    0.7540   -0.8020 h1        1 1HS      0.081700
     16 H5          4.9530   -0.6440    1.4830 ho        1 1HS      0.389000
     17 H6          2.4660   -0.0360    1.7380 h1        1 1HS      0.065200
     18 H7          3.2730    1.5650    1.4990 h1        1 1HS      0.065200
     19 H8          0.5980   -0.9150   -0.0330 h1        1 1HS      0.066700
     20 H9         -0.0840   -0.0110    1.3840 h1        1 1HS      0.066700
     21 H10        -1.4740    1.3750   -0.1200 h1        1 1HS      0.078200
     22 H11        -0.7140    0.6330   -1.5700 h1        1 1HS      0.078200
@<TRIPOS>BOND
     1    1    2 1   
     2    1   12 1   
     3    1   13 1   
     4    1   14 1   
     5    2    3 1   
     6    2    4 1   
     7    2   15 1   
     8    3   16 1   
     9    4    5 1   
    10    4   17 1   
    11    4   18 1   
    12    5    6 1   
    13    6    7 1   
    14    6   19 1   
    15    6   20 1   
    16    7    8 1   
    17    7   21 1   
    18    7   22 1   
    19    8    9 1   
    20    8   10 1   
    21    8   11 1   
@<TRIPOS>SUBSTRUCTURE
     1 1HS         1 TEMP              0 ****  ****    0 ROOT
