@<TRIPOS>MOLECULE
1HS
   22    21     1     0     0
SMALL
bcc


@<TRIPOS>ATOM
      1 CAK         0.0670   -0.0380    0.0650 c3        1 1HS     -0.091100
      2 CAJ         1.5810    0.0610   -0.0180 c3        1 1HS      0.157100
      3 OAC         2.0410    0.3490    1.2970 oh        1 1HS     -0.615800
      4 CAI         2.0020    1.1310   -1.0120 c3        1 1HS     -0.054300
      5 SAH         3.7330    0.9730   -1.3420 ss        1 1HS     -0.381200
      6 CAG         4.2040    2.6490   -1.7390 c3        1 1HS      0.078700
      7 CAF         5.6630    2.6510   -2.0200 c3        1 1HS     -0.279600
      8 SAE         6.2610    4.2930   -2.4540 s6        1 1HS      1.428800
      9 OAD         5.5040    4.6580   -3.5900 o         1 1HS     -0.746867
     10 OAL         5.9940    5.0800   -1.3120 o         1 1HS     -0.746867
     11 OAB         7.6330    4.0890   -2.7120 o         1 1HS     -0.746867
     12 H1         -0.3720    0.9540    0.3260 hc        1 1HS      0.038367
     13 H2         -0.2210   -0.7720    0.8550 hc        1 1HS      0.038367
     14 H3         -0.3410   -0.3740   -0.9170 hc        1 1HS      0.038367
     15 H4          2.0110   -0.9340   -0.3350 h1        1 1HS      0.038700
     16 H5          2.9680    0.6160    1.2100 ho        1 1HS      0.422000
     17 H6          1.4230    1.0070   -1.9590 h1        1 1HS      0.065700
     18 H7          1.7780    2.1450   -0.6020 h1        1 1HS      0.065700
     19 H8          3.9640    3.3200   -0.8780 h1        1 1HS      0.068200
     20 H9          3.6290    2.9970   -2.6320 h1        1 1HS      0.068200
     21 H10         6.2380    2.2980   -1.1300 h1        1 1HS      0.077700
     22 H11         5.9040    1.9610   -2.8650 h1        1 1HS      0.077700
@<TRIPOS>BOND
     1    1    2 1   
     2    1   12 1   
     3    1   13 1   
     4    1   14 1   
     5    2    3 1   
     6    2    4 1   
     7    2   15 1   
     8    3   16 1   
     9    4    5 1   
    10    4   17 1   
    11    4   18 1   
    12    5    6 1   
    13    6    7 1   
    14    6   19 1   
    15    6   20 1   
    16    7    8 1   
    17    7   21 1   
    18    7   22 1   
    19    8    9 1   
    20    8   10 1   
    21    8   11 1   
@<TRIPOS>SUBSTRUCTURE
     1 1HS         1 TEMP              0 ****  ****    0 ROOT
