@<TRIPOS>MOLECULE
1HS
   22    21     1     0     0
SMALL
bcc


@<TRIPOS>ATOM
      1 CAK         0.0530   -0.0360    0.0280 c3        1 1HS     -0.091100
      2 CAJ         1.5670    0.0740   -0.0180 c3        1 1HS      0.157100
      3 OAC         1.9900    0.3990    1.3010 oh        1 1HS     -0.615800
      4 CAI         2.0060    1.1220   -1.0280 c3        1 1HS     -0.054300
      5 SAH         3.7460    0.9710   -1.3080 ss        1 1HS     -0.381200
      6 CAG         4.2140    2.6400   -1.7380 c3        1 1HS      0.078700
      7 CAF         5.6800    2.6470   -1.9790 c3        1 1HS     -0.279600
      8 SAE         6.2760    4.2830   -2.4390 s6        1 1HS      1.428800
      9 OAD         5.5540    4.6080   -3.6090 o         1 1HS     -0.746867
     10 OAL         5.9630    5.0990   -1.3290 o         1 1HS     -0.746867
     11 OAB         7.6590    4.0870   -2.6440 o         1 1HS     -0.746867
     12 H1         -0.4010    0.9580    0.2520 hc        1 1HS      0.038367
     13 H2         -0.2510   -0.7520    0.8280 hc        1 1HS      0.038367
     14 H3         -0.3270   -0.4000   -0.9560 hc        1 1HS      0.038367
     15 H4          2.0140   -0.9240   -0.2990 h1        1 1HS      0.038700
     16 H5          2.9170    0.6710    1.2310 ho        1 1HS      0.422000
     17 H6          1.4530    0.9700   -1.9860 h1        1 1HS      0.065700
     18 H7          1.7630    2.1450   -0.6490 h1        1 1HS      0.065700
     19 H8          3.9440    3.3320   -0.9030 h1        1 1HS      0.068200
     20 H9          3.6610    2.9570   -2.6560 h1        1 1HS      0.068200
     21 H10         6.2330    2.3230   -1.0650 h1        1 1HS      0.077700
     22 H11         5.9500    1.9390   -2.7980 h1        1 1HS      0.077700
@<TRIPOS>BOND
     1    1    2 1   
     2    1   12 1   
     3    1   13 1   
     4    1   14 1   
     5    2    3 1   
     6    2    4 1   
     7    2   15 1   
     8    3   16 1   
     9    4    5 1   
    10    4   17 1   
    11    4   18 1   
    12    5    6 1   
    13    6    7 1   
    14    6   19 1   
    15    6   20 1   
    16    7    8 1   
    17    7   21 1   
    18    7   22 1   
    19    8    9 1   
    20    8   10 1   
    21    8   11 1   
@<TRIPOS>SUBSTRUCTURE
     1 1HS         1 TEMP              0 ****  ****    0 ROOT
