@<TRIPOS>MOLECULE
1HS
   22    20     1     0     0
SMALL
bcc


@<TRIPOS>ATOM
      1 CAK        -3.3180   -1.7840    0.8370 c3        1 1HS     -0.091100
      2 CAJ        -1.8140   -1.6780    0.9500 c3        1 1HS      0.157100
      3 OAC        -1.4590   -1.4510    2.2930 oh        1 1HS     -0.615800
      4 CAI        -1.3250   -0.5280    0.0980 c3        1 1HS     -0.054300
      5 SAH         0.3080   -0.0640    0.6130 ss        1 1HS     -0.381200
      6 CAG         1.0370    0.9870   -0.6140 c3        1 1HS      0.078700
      7 CAF         2.5380    1.0190   -0.4230 c3        1 1HS     -0.314100
      8 SAE         3.2320    2.3150   -1.4140 s4        1 1HS      1.648500
      9 OAD         2.7990    2.1960   -2.8550 o         1 1HS     -0.677400
     10 OAL         4.7290    2.1630   -1.5440 o         1 1HS     -0.677400
     11 OAB         2.8670    3.6630   -0.8410 os        1 1HS     -1.071000
     12 H1         -3.7300   -0.9670    1.1870 hc        1 1HS      0.038367
     13 H2         -3.6300   -2.5560    1.3550 hc        1 1HS      0.038367
     14 H3         -3.5670   -1.8990   -0.1040 hc        1 1HS      0.038367
     15 H4         -1.4040   -2.5100    0.6410 h1        1 1HS      0.038700
     16 H5         -1.2000   -2.2160    2.6650 ho        1 1HS      0.422000
     17 H6         -1.3050   -0.8030   -0.8400 h1        1 1HS      0.065700
     18 H7         -1.9280    0.2340    0.2020 h1        1 1HS      0.065700
     19 H8          0.8290    0.6420   -1.5050 h1        1 1HS      0.068200
     20 H9          0.6780    1.8930   -0.5230 h1        1 1HS      0.068200
     21 H10         2.7430    1.1820    0.5190 h1        1 1HS      0.077700
     22 H11         2.9190    0.1600   -0.6960 h1        1 1HS      0.077700
@<TRIPOS>BOND
     1    1    2 1   
     2    1   12 1   
     3    1   13 1   
     4    1   14 1   
     5    2    3 1   
     6    2    4 1   
     7    2   15 1   
     8    3   16 1   
     9    4    5 1   
    10    4   17 1   
    11    4   18 1   
    12    5    6 1   
    13    6    7 1   
    14    6   19 1   
    15    6   20 1   
    16    7    8 1   
    17    7   21 1   
    18    7   22 1   
    19    8    9 1   
    20    8   10 1   
@<TRIPOS>SUBSTRUCTURE
     1 1HS         1 TEMP              0 ****  ****    0 ROOT
