@<TRIPOS>MOLECULE
1HU
   28    29     1     0     0
SMALL
bcc


@<TRIPOS>ATOM
      1 CAA         0.0200   -0.3100    0.0500 c3        1 1HU      0.078100
      2 NAI         1.4820   -0.0830    0.0110 ny        1 1HU     -0.759000
      3 CAG         2.0810   -0.0280    1.3820 c3        1 1HU      0.092800
      4 CAH         3.5960    0.1980    1.3520 c3        1 1HU     -0.003200
      5 CAK         4.1100    0.1260    2.7210 cc        1 1HU     -0.220400
      6 CAM         4.2160   -1.0680    3.5340 ca        1 1HU     -0.086800
      7 CAE         3.8940   -2.4140    3.3440 ca        1 1HU     -0.115000
      8 CAC         4.1430   -3.3150    4.3670 ca        1 1HU     -0.126000
      9 CAB         4.7120   -2.8990    5.5870 ca        1 1HU     -0.105000
     10 CAD         5.0510   -1.5750    5.8160 ca        1 1HU     -0.119000
     11 CAL         4.8060   -0.6530    4.7850 ca        1 1HU     -0.047200
     12 NAJ         5.0390    0.7270    4.7190 na        1 1HU     -0.167400
     13 CAF         4.6280    1.1860    3.4770 cd        1 1HU     -0.052100
     14 H1         -0.4750    0.5260    0.6130 hx        1 1HU      0.109367
     15 H2         -0.1950   -1.2840    0.5690 hx        1 1HU      0.109367
     16 H3         -0.3790   -0.3470   -1.0000 hx        1 1HU      0.109367
     17 H4          1.9340   -0.8390   -0.5170 hn        1 1HU      0.451300
     18 H6          1.5760    0.8060    1.9480 hx        1 1HU      0.112700
     19 H7          1.8580   -1.0050    1.9020 hx        1 1HU      0.112700
     20 H8          4.0900   -0.5940    0.7230 hc        1 1HU      0.063700
     21 H9          3.8290    1.1990    0.8980 hc        1 1HU      0.063700
     22 H10         3.4650   -2.7530    2.3910 ha        1 1HU      0.114000
     23 H11         3.9000   -4.3800    4.2310 ha        1 1HU      0.142000
     24 H12         4.8940   -3.6490    6.3730 ha        1 1HU      0.149000
     25 H13         5.5000   -1.2580    6.7670 ha        1 1HU      0.150000
     26 H14         5.4760    1.2660    5.4210 hn        1 1HU      0.316700
     27 H15         4.7360    2.2390    3.2030 h4        1 1HU      0.175000
     28 HAI2        1.6800    0.7990   -0.4750 hn        1 1HU      0.451300
@<TRIPOS>BOND
     1    1    2 1   
     2    1   14 1   
     3    1   15 1   
     4    1   16 1   
     5    2    3 1   
     6    2   17 1   
     7    2   28 1   
     8    3    4 1   
     9    3   18 1   
    10    3   19 1   
    11    4    5 1   
    12    4   20 1   
    13    4   21 1   
    14    5    6 1   
    15    5   13 2   
    16    6    7 ar  
    17    6   11 ar  
    18    7    8 ar  
    19    7   22 1   
    20    8    9 ar  
    21    8   23 1   
    22    9   10 ar  
    23    9   24 1   
    24   10   11 ar  
    25   10   25 1   
    26   11   12 1   
    27   12   13 1   
    28   12   26 1   
    29   13   27 1   
@<TRIPOS>SUBSTRUCTURE
     1 1HU         1 TEMP              0 ****  ****    0 ROOT
