@<TRIPOS>MOLECULE
1HU
   28    29     1     0     0
SMALL
bcc


@<TRIPOS>ATOM
      1 CAA         0.0190   -0.3170    0.0510 c3        1 1HU      0.078100
      2 NAI         1.4780   -0.0780    0.0140 n4        1 1HU     -0.759000
      3 CAG         2.0760   -0.0280    1.3870 c3        1 1HU      0.092800
      4 CAH         3.5900    0.2110    1.3590 c3        1 1HU     -0.003200
      5 CAK         4.1030    0.1330    2.7280 cc        1 1HU     -0.220400
      6 CAM         4.2190   -1.0670    3.5310 ca        1 1HU     -0.086800
      7 CAE         3.9090   -2.4140    3.3310 ca        1 1HU     -0.115000
      8 CAC         4.1650   -3.3200    4.3480 ca        1 1HU     -0.126000
      9 CAB         4.7290   -2.9090    5.5710 ca        1 1HU     -0.105000
     10 CAD         5.0570   -1.5840    5.8100 ca        1 1HU     -0.119000
     11 CAL         4.8040   -0.6550    4.7870 ca        1 1HU     -0.047200
     12 NAJ         5.0250    0.7270    4.7310 na        1 1HU     -0.167400
     13 CAF         4.6110    1.1920    3.4920 cd        1 1HU     -0.052100
     14 H1         -0.3800   -0.3490   -1.0000 hx        1 1HU      0.109367
     15 H2         -0.4840    0.5110    0.6200 hx        1 1HU      0.109367
     16 H3         -0.1890   -1.2960    0.5610 hx        1 1HU      0.109367
     17 H4          1.6700    0.8100   -0.4640 hn        1 1HU      0.451300
     18 H6          1.5630    0.7970    1.9580 hx        1 1HU      0.112700
     19 H7          1.8610   -1.0110    1.8980 hx        1 1HU      0.112700
     20 H8          4.0910   -0.5720    0.7250 hc        1 1HU      0.063700
     21 H9          3.8140    1.2170    0.9130 hc        1 1HU      0.063700
     22 H10         3.4830   -2.7490    2.3760 ha        1 1HU      0.114000
     23 H11         3.9320   -4.3860    4.2030 ha        1 1HU      0.142000
     24 H12         4.9180   -3.6630    6.3520 ha        1 1HU      0.149000
     25 H13         5.5020   -1.2700    6.7640 ha        1 1HU      0.150000
     26 H14         5.4570    1.2640    5.4380 hn        1 1HU      0.316700
     27 H15         4.7100    2.2480    3.2270 h4        1 1HU      0.175000
     28 HAI2        1.9370   -0.8260   -0.5200 hn        1 1HU      0.451300
@<TRIPOS>BOND
     1    1    2 1   
     2    1   14 1   
     3    1   15 1   
     4    1   16 1   
     5    2    3 1   
     6    2   17 1   
     7    2   28 1   
     8    3    4 1   
     9    3   18 1   
    10    3   19 1   
    11    4    5 1   
    12    4   20 1   
    13    4   21 1   
    14    5    6 1   
    15    5   13 2   
    16    6    7 ar  
    17    6   11 ar  
    18    7    8 ar  
    19    7   22 1   
    20    8    9 ar  
    21    8   23 1   
    22    9   10 ar  
    23    9   24 1   
    24   10   11 ar  
    25   10   25 1   
    26   11   12 1   
    27   12   13 1   
    28   12   26 1   
    29   13   27 1   
@<TRIPOS>SUBSTRUCTURE
     1 1HU         1 TEMP              0 ****  ****    0 ROOT
