@<TRIPOS>MOLECULE
1HU
   28    29     1     0     0
SMALL
bcc


@<TRIPOS>ATOM
      1 CAA         0.0110   -0.2770    0.0670 c3        1 1HU      0.078100
      2 NAI         1.4740   -0.0620    0.0210 n4        1 1HU     -0.759000
      3 CAG         2.0810   -0.0150    1.3890 c3        1 1HU      0.092800
      4 CAH         3.5980    0.1980    1.3520 c3        1 1HU     -0.003200
      5 CAK         4.1180    0.1170    2.7180 cc        1 1HU     -0.220400
      6 CAM         4.2170   -1.0790    3.5270 ca        1 1HU     -0.086800
      7 CAE         3.8820   -2.4220    3.3370 ca        1 1HU     -0.115000
      8 CAC         4.1280   -3.3270    4.3570 ca        1 1HU     -0.126000
      9 CAB         4.7070   -2.9190    5.5740 ca        1 1HU     -0.105000
     10 CAD         5.0590   -1.5990    5.8040 ca        1 1HU     -0.119000
     11 CAL         4.8170   -0.6720    4.7770 ca        1 1HU     -0.047200
     12 NAJ         5.0620    0.7060    4.7130 na        1 1HU     -0.167400
     13 CAF         4.6490    1.1710    3.4730 cd        1 1HU     -0.052100
     14 H1         -0.4740    0.5620    0.6350 hx        1 1HU      0.109367
     15 H2         -0.2100   -1.2500    0.5850 hx        1 1HU      0.109367
     16 H3         -0.3940   -0.3070   -0.9800 hx        1 1HU      0.109367
     17 H4          1.9170   -0.8210   -0.5120 hn        1 1HU      0.451300
     18 H6          1.5860    0.8210    1.9600 hx        1 1HU      0.112700
     19 H7          1.8520   -0.9920    1.9080 hx        1 1HU      0.112700
     20 H8          4.0820   -0.5970    0.7190 hc        1 1HU      0.063700
     21 H9          3.8370    1.1970    0.8990 hc        1 1HU      0.063700
     22 H10         3.4450   -2.7540    2.3860 ha        1 1HU      0.114000
     23 H11         3.8740   -4.3890    4.2200 ha        1 1HU      0.142000
     24 H12         4.8860   -3.6720    6.3580 ha        1 1HU      0.149000
     25 H13         5.5160   -1.2880    6.7540 ha        1 1HU      0.150000
     26 H14         5.5080    1.2390    5.4140 hn        1 1HU      0.316700
     27 H15         4.7660    2.2240    3.2020 h4        1 1HU      0.175000
     28 HAI2        1.6770    0.8200   -0.4630 hn        1 1HU      0.451300
@<TRIPOS>BOND
     1    1    2 1   
     2    1   14 1   
     3    1   15 1   
     4    1   16 1   
     5    2    3 1   
     6    2   17 1   
     7    2   28 1   
     8    3    4 1   
     9    3   18 1   
    10    3   19 1   
    11    4    5 1   
    12    4   20 1   
    13    4   21 1   
    14    5    6 1   
    15    5   13 2   
    16    6    7 ar  
    17    6   11 ar  
    18    7    8 ar  
    19    7   22 1   
    20    8    9 ar  
    21    8   23 1   
    22    9   10 ar  
    23    9   24 1   
    24   10   11 ar  
    25   10   25 1   
    26   11   12 1   
    27   12   13 1   
    28   12   26 1   
    29   13   27 1   
@<TRIPOS>SUBSTRUCTURE
     1 1HU         1 TEMP              0 ****  ****    0 ROOT
