@<TRIPOS>MOLECULE
1HV
   60    63     1     0     0
SMALL
bcc


@<TRIPOS>ATOM
      1 C11         0.2430   -0.0740    0.2340 ca        1 1HV     -0.076000
      2 C12         1.5420   -0.1610   -2.3120 ca        1 1HV     -0.129000
      3 C13         3.4670   -0.6000    3.4210 ca        1 1HV     -0.114500
      4 C14         2.2460    0.2110    5.3490 ca        1 1HV     -0.226600
      5 C15         1.3890    0.9350    4.4930 ca        1 1HV     -0.054500
      6 C16         3.2920   -0.5500    4.7970 ca        1 1HV     -0.054500
      7 C17         1.5610    0.8700    3.1150 ca        1 1HV     -0.114500
      8 C18         4.5610   -0.9170   -2.9900 ca        1 1HV     -0.139000
      9 C19         6.6960   -0.1230   -3.8250 ca        1 1HV     -0.216600
     10 C20         6.8570    0.6560   -2.6700 ca        1 1HV     -0.046500
     11 C21         5.5480   -0.9220   -3.9670 ca        1 1HV     -0.046500
     12 C22         5.8810    0.6620   -1.6830 ca        1 1HV     -0.139000
     13 C23         1.9860    0.3500    6.7710 c         1 1HV      0.591700
     14 C26         7.6900   -0.2040   -4.8960 c         1 1HV      0.566700
     15 C29         2.0830   -0.6800    9.0680 c3        1 1HV      0.102800
     16 C30         2.7130   -1.6940   10.0230 c3        1 1HV     -0.133400
     17 N1          2.5810   -2.4430   12.4320 nz        1 1HV     -0.837600
     18 N2          3.9280   -0.0020    0.4640 nc        1 1HV     -0.468100
     19 N3          3.6830   -0.0880   -0.8590 na        1 1HV      0.153800
     20 C4          2.7380    0.0190    1.1190 cd        1 1HV      0.361500
     21 C5          2.5940    0.0970    2.5620 ca        1 1HV      0.023100
     22 C6          4.7050   -0.1110   -1.8390 ca        1 1HV      0.109800
     23 C7          2.2850   -0.1160   -1.1260 ca        1 1HV     -0.040200
     24 C8          1.6350   -0.0500    0.1590 ca        1 1HV     -0.190900
     25 C9         -0.4840   -0.1370   -0.9470 ca        1 1HV     -0.118000
     26 C10         0.1570   -0.1720   -2.1990 ca        1 1HV     -0.072000
     27 N24         2.6320   -0.7230    7.6870 ny        1 1HV     -0.689800
     28 O25         1.3120    1.1730    7.3690 o         1 1HV     -0.417100
     29 O27         7.8830   -1.1240   -5.6760 o         1 1HV     -0.396100
     30 N28         8.5750    1.0220   -5.0840 ny        1 1HV     -0.671800
     31 C31         2.0560   -1.5130   11.3930 c3        1 1HV      0.102800
     32 C32         9.1250    1.1320   -6.4560 c3        1 1HV      0.079100
     33 H1         -0.2680   -0.0470    1.2080 ha        1 1HV      0.142000
     34 H2          2.0260   -0.1750   -3.2990 ha        1 1HV      0.153000
     35 H3          4.2950   -1.1920    2.9940 ha        1 1HV      0.183000
     36 H4          0.5820    1.5580    4.9190 ha        1 1HV      0.150500
     37 H5          4.0030   -1.1000    5.4310 ha        1 1HV      0.150500
     38 H6          0.8870    1.4420    2.4520 ha        1 1HV      0.183000
     39 H7          3.6760   -1.5670   -3.1180 ha        1 1HV      0.180500
     40 H8          7.7630    1.2620   -2.5070 ha        1 1HV      0.159500
     41 H9          5.4330   -1.5680   -4.8570 ha        1 1HV      0.159500
     42 H10         6.0330    1.2760   -0.7780 ha        1 1HV      0.180500
     43 H11         2.2360    0.3700    9.4630 hx        1 1HV      0.129200
     44 H12         0.9680   -0.8560    8.9940 hx        1 1HV      0.129200
     45 H13         3.8210   -1.5230   10.0980 hc        1 1HV      0.088700
     46 H14         2.5470   -2.7390    9.6470 hc        1 1HV      0.088700
     47 H15         3.5880   -2.3020   12.5740 hn        1 1HV      0.478133
     48 H16         2.0960   -2.2670   13.3250 hn        1 1HV      0.478133
     49 H18        -1.5860   -0.1560   -0.9110 ha        1 1HV      0.164000
     50 H19        -0.4580   -0.2080   -3.1140 ha        1 1HV      0.166000
     51 H20         3.6440   -0.5560    7.7060 hn        1 1HV      0.458800
     52 H21         8.0240    1.8600   -4.8640 hn        1 1HV      0.459800
     53 H22         0.9410   -1.6880   11.3110 hx        1 1HV      0.130700
     54 H23         2.2240   -0.4580   11.7640 hx        1 1HV      0.130700
     55 H24         8.2800    1.2420   -7.1890 hx        1 1HV      0.119033
     56 H25         9.8000    2.0290   -6.5120 hx        1 1HV      0.119033
     57 H26         9.7050    0.2010   -6.7050 hx        1 1HV      0.119033
     58 H131        2.4210   -3.4220   12.1610 hn        1 1HV      0.478133
     59 H242        2.4660   -1.6420    7.2660 hn        1 1HV      0.458800
     60 H282        9.3500    0.9610   -4.4130 hn        1 1HV      0.459800
@<TRIPOS>BOND
     1    1   24 ar  
     2    1   25 ar  
     3    1   33 1   
     4    2   23 ar  
     5    2   26 ar  
     6    2   34 1   
     7    3    6 ar  
     8    3   21 ar  
     9    3   35 1   
    10    4    5 ar  
    11    4    6 ar  
    12    4   13 1   
    13    5    7 ar  
    14    5   36 1   
    15    6   37 1   
    16    7   21 ar  
    17    7   38 1   
    18    8   11 ar  
    19    8   22 ar  
    20    8   39 1   
    21    9   10 ar  
    22    9   11 ar  
    23    9   14 1   
    24   10   12 ar  
    25   10   40 1   
    26   11   41 1   
    27   12   22 ar  
    28   12   42 1   
    29   13   27 1   
    30   13   28 2   
    31   14   29 2   
    32   14   30 1   
    33   15   16 1   
    34   15   27 1   
    35   15   43 1   
    36   15   44 1   
    37   16   31 1   
    38   16   45 1   
    39   16   46 1   
    40   17   31 1   
    41   17   47 1   
    42   17   48 1   
    43   17   58 1   
    44   18   19 1   
    45   18   20 2   
    46   19   22 1   
    47   19   23 1   
    48   20   21 1   
    49   20   24 1   
    50   23   24 ar  
    51   25   26 ar  
    52   25   49 1   
    53   26   50 1   
    54   27   51 1   
    55   27   59 1   
    56   30   32 1   
    57   30   52 1   
    58   30   60 1   
    59   31   53 1   
    60   31   54 1   
    61   32   55 1   
    62   32   56 1   
    63   32   57 1   
@<TRIPOS>SUBSTRUCTURE
     1 1HV         1 TEMP              0 ****  ****    0 ROOT
