@<TRIPOS>MOLECULE
1HV
   60    63     1     0     0
SMALL
bcc


@<TRIPOS>ATOM
      1 C11         0.2430   -0.0540    0.2380 ca        1 1HV     -0.076000
      2 C12         1.5390   -0.1440   -2.3090 ca        1 1HV     -0.129000
      3 C13         3.4670   -0.6010    3.4210 ca        1 1HV     -0.114500
      4 C14         2.2520    0.2140    5.3510 ca        1 1HV     -0.226600
      5 C15         1.3980    0.9430    4.4970 ca        1 1HV     -0.054500
      6 C16         3.2940   -0.5520    4.7970 ca        1 1HV     -0.054500
      7 C17         1.5680    0.8790    3.1190 ca        1 1HV     -0.114500
      8 C18         4.5540   -0.9140   -2.9910 ca        1 1HV     -0.139000
      9 C19         6.6920   -0.1290   -3.8270 ca        1 1HV     -0.216600
     10 C20         6.8580    0.6480   -2.6710 ca        1 1HV     -0.046500
     11 C21         5.5400   -0.9220   -3.9700 ca        1 1HV     -0.046500
     12 C22         5.8830    0.6570   -1.6830 ca        1 1HV     -0.139000
     13 C23         1.9950    0.3510    6.7730 c         1 1HV      0.591700
     14 C26         7.6840   -0.2130   -4.9000 c         1 1HV      0.566700
     15 C29         2.0870   -0.6830    9.0690 c3        1 1HV      0.102800
     16 C30         2.7120   -1.7020   10.0220 c3        1 1HV     -0.133400
     17 N1          2.5770   -2.4560   12.4290 n4        1 1HV     -0.837600
     18 N2          3.9290   -0.0010    0.4650 nc        1 1HV     -0.468100
     19 N3          3.6830   -0.0840   -0.8590 na        1 1HV      0.153800
     20 C4          2.7400    0.0250    1.1210 cd        1 1HV      0.361500
     21 C5          2.5970    0.1020    2.5640 ca        1 1HV      0.023100
     22 C6          4.7030   -0.1110   -1.8390 ca        1 1HV      0.109800
     23 C7          2.2830   -0.1050   -1.1240 ca        1 1HV     -0.040200
     24 C8          1.6350   -0.0370    0.1620 ca        1 1HV     -0.190900
     25 C9         -0.4850   -0.1120   -0.9430 ca        1 1HV     -0.118000
     26 C10         0.1550   -0.1480   -2.1950 ca        1 1HV     -0.072000
     27 N24         2.6350   -0.7260    7.6880 n4        1 1HV     -0.689800
     28 O25         1.3260    1.1770    7.3740 o         1 1HV     -0.417100
     29 O27         7.8730   -1.1330   -5.6800 o         1 1HV     -0.396100
     30 N28         8.5750    1.0100   -5.0870 n4        1 1HV     -0.672800
     31 C31         2.0570   -1.5210   11.3920 c3        1 1HV      0.102800
     32 C32         9.1200    1.1200   -6.4600 c3        1 1HV      0.079100
     33 H1         -0.2670   -0.0260    1.2120 ha        1 1HV      0.142000
     34 H2          2.0220   -0.1590   -3.2960 ha        1 1HV      0.153000
     35 H3          4.2920   -1.1970    2.9930 ha        1 1HV      0.183000
     36 H4          0.5950    1.5700    4.9250 ha        1 1HV      0.150500
     37 H5          4.0030   -1.1070    5.4300 ha        1 1HV      0.150500
     38 H6          0.8970    1.4560    2.4580 ha        1 1HV      0.183000
     39 H7          3.6660   -1.5590   -3.1190 ha        1 1HV      0.180500
     40 H8          7.7670    1.2490   -2.5090 ha        1 1HV      0.159500
     41 H9          5.4210   -1.5660   -4.8610 ha        1 1HV      0.159500
     42 H10         6.0390    1.2690   -0.7780 ha        1 1HV      0.180500
     43 H11         2.2460    0.3650    9.4660 hx        1 1HV      0.129200
     44 H12         0.9710   -0.8530    8.9950 hx        1 1HV      0.129200
     45 H13         3.8210   -1.5380   10.0960 hc        1 1HV      0.088700
     46 H14         2.5400   -2.7470    9.6430 hc        1 1HV      0.088700
     47 H15         3.5850   -2.3210   12.5710 hn        1 1HV      0.478133
     48 H16         2.0930   -2.2790   13.3220 hn        1 1HV      0.478133
     49 H18        -1.5870   -0.1250   -0.9060 ha        1 1HV      0.164000
     50 H19        -0.4620   -0.1800   -3.1100 ha        1 1HV      0.166000
     51 H20         3.6480   -0.5650    7.7060 hn        1 1HV      0.458800
     52 H21         8.0290    1.8490   -4.8630 hn        1 1HV      0.459800
     53 H22         0.9410   -1.6890   11.3100 hx        1 1HV      0.130700
     54 H23         2.2310   -0.4670   11.7660 hx        1 1HV      0.130700
     55 H24         8.2740    1.2360   -7.1900 hx        1 1HV      0.119367
     56 H25         9.8000    2.0140   -6.5160 hx        1 1HV      0.119367
     57 H26         9.6950    0.1870   -6.7140 hx        1 1HV      0.119367
     58 H131        2.4120   -3.4330   12.1560 hn        1 1HV      0.478133
     59 H242        2.4640   -1.6440    7.2650 hn        1 1HV      0.458800
     60 H282        9.3520    0.9430   -4.4190 hn        1 1HV      0.459800
@<TRIPOS>BOND
     1    1   24 ar  
     2    1   25 ar  
     3    1   33 1   
     4    2   23 ar  
     5    2   26 ar  
     6    2   34 1   
     7    3    6 ar  
     8    3   21 ar  
     9    3   35 1   
    10    4    5 ar  
    11    4    6 ar  
    12    4   13 1   
    13    5    7 ar  
    14    5   36 1   
    15    6   37 1   
    16    7   21 ar  
    17    7   38 1   
    18    8   11 ar  
    19    8   22 ar  
    20    8   39 1   
    21    9   10 ar  
    22    9   11 ar  
    23    9   14 1   
    24   10   12 ar  
    25   10   40 1   
    26   11   41 1   
    27   12   22 ar  
    28   12   42 1   
    29   13   27 1   
    30   13   28 2   
    31   14   29 2   
    32   14   30 1   
    33   15   16 1   
    34   15   27 1   
    35   15   43 1   
    36   15   44 1   
    37   16   31 1   
    38   16   45 1   
    39   16   46 1   
    40   17   31 1   
    41   17   47 1   
    42   17   48 1   
    43   17   58 1   
    44   18   19 1   
    45   18   20 2   
    46   19   22 1   
    47   19   23 1   
    48   20   21 1   
    49   20   24 1   
    50   23   24 ar  
    51   25   26 ar  
    52   25   49 1   
    53   26   50 1   
    54   27   51 1   
    55   27   59 1   
    56   30   32 1   
    57   30   52 1   
    58   30   60 1   
    59   31   53 1   
    60   31   54 1   
    61   32   55 1   
    62   32   56 1   
    63   32   57 1   
@<TRIPOS>SUBSTRUCTURE
     1 1HV         1 TEMP              0 ****  ****    0 ROOT
