@<TRIPOS>MOLECULE
1HV
   60    63     1     0     0
SMALL
bcc


@<TRIPOS>ATOM
      1 C11         0.2440   -0.0580    0.2370 ca        1 1HV     -0.076000
      2 C12         1.5410   -0.1450   -2.3100 ca        1 1HV     -0.129000
      3 C13         3.4670   -0.6030    3.4210 ca        1 1HV     -0.114500
      4 C14         2.2500    0.2100    5.3510 ca        1 1HV     -0.226600
      5 C15         1.3950    0.9390    4.4960 ca        1 1HV     -0.054500
      6 C16         3.2930   -0.5540    4.7970 ca        1 1HV     -0.054500
      7 C17         1.5660    0.8760    3.1190 ca        1 1HV     -0.114500
      8 C18         4.5560   -0.9110   -2.9910 ca        1 1HV     -0.139000
      9 C19         6.6940   -0.1240   -3.8260 ca        1 1HV     -0.216600
     10 C20         6.8590    0.6530   -2.6700 ca        1 1HV     -0.046500
     11 C21         5.5430   -0.9180   -3.9700 ca        1 1HV     -0.046500
     12 C22         5.8840    0.6610   -1.6820 ca        1 1HV     -0.139000
     13 C23         1.9910    0.3470    6.7720 c         1 1HV      0.591700
     14 C26         7.6870   -0.2060   -4.8990 c         1 1HV      0.566700
     15 C29         2.0840   -0.6870    9.0680 c3        1 1HV      0.102800
     16 C30         2.7110   -1.7050   10.0210 c3        1 1HV     -0.133400
     17 N1          2.5760   -2.4580   12.4290 n4        1 1HV     -0.837600
     18 N2          3.9290   -0.0010    0.4650 nc        1 1HV     -0.468100
     19 N3          3.6840   -0.0830   -0.8590 na        1 1HV      0.153800
     20 C4          2.7400    0.0240    1.1200 cd        1 1HV      0.361500
     21 C5          2.5960    0.1000    2.5630 ca        1 1HV      0.023100
     22 C6          4.7050   -0.1080   -1.8390 ca        1 1HV      0.109800
     23 C7          2.2840   -0.1050   -1.1250 ca        1 1HV     -0.040200
     24 C8          1.6350   -0.0390    0.1610 ca        1 1HV     -0.190900
     25 C9         -0.4840   -0.1150   -0.9450 ca        1 1HV     -0.118000
     26 C10         0.1560   -0.1500   -2.1970 ca        1 1HV     -0.072000
     27 N24         2.6330   -0.7300    7.6870 n4        1 1HV     -0.689800
     28 O25         1.3200    1.1710    7.3730 o         1 1HV     -0.417100
     29 O27         7.8770   -1.1250   -5.6790 o         1 1HV     -0.396100
     30 N28         8.5760    1.0180   -5.0850 n4        1 1HV     -0.672800
     31 C31         2.0550   -1.5250   11.3910 c3        1 1HV      0.102800
     32 C32         9.1240    1.1290   -6.4570 c3        1 1HV      0.079100
     33 H1         -0.2670   -0.0300    1.2100 ha        1 1HV      0.142000
     34 H2          2.0240   -0.1580   -3.2970 ha        1 1HV      0.153000
     35 H3          4.2920   -1.1970    2.9920 ha        1 1HV      0.183000
     36 H4          0.5900    1.5640    4.9240 ha        1 1HV      0.150500
     37 H5          4.0020   -1.1090    5.4290 ha        1 1HV      0.150500
     38 H6          0.8940    1.4520    2.4570 ha        1 1HV      0.183000
     39 H7          3.6700   -1.5570   -3.1200 ha        1 1HV      0.180500
     40 H8          7.7670    1.2540   -2.5060 ha        1 1HV      0.159500
     41 H9          5.4250   -1.5620   -4.8610 ha        1 1HV      0.159500
     42 H10         6.0380    1.2720   -0.7760 ha        1 1HV      0.180500
     43 H11         2.2410    0.3610    9.4650 hx        1 1HV      0.129200
     44 H12         0.9690   -0.8600    8.9940 hx        1 1HV      0.129200
     45 H13         3.8190   -1.5390   10.0960 hc        1 1HV      0.088700
     46 H14         2.5410   -2.7500    9.6430 hc        1 1HV      0.088700
     47 H15         2.4130   -3.4360   12.1560 hn        1 1HV      0.478133
     48 H16         3.5840   -2.3210   12.5710 hn        1 1HV      0.478133
     49 H18        -1.5860   -0.1300   -0.9080 ha        1 1HV      0.164000
     50 H19        -0.4600   -0.1820   -3.1120 ha        1 1HV      0.166000
     51 H20         3.6450   -0.5670    7.7060 hn        1 1HV      0.458800
     52 H21         8.0290    1.8570   -4.8620 hn        1 1HV      0.459800
     53 H22         2.2270   -0.4700   11.7650 hx        1 1HV      0.130700
     54 H23         0.9390   -1.6950   11.3090 hx        1 1HV      0.130700
     55 H24         9.7010    0.1960   -6.7090 hx        1 1HV      0.119367
     56 H25         9.8020    2.0230   -6.5120 hx        1 1HV      0.119367
     57 H26         8.2790    1.2420   -7.1890 hx        1 1HV      0.119367
     58 H131        2.0920   -2.2820   13.3220 hn        1 1HV      0.478133
     59 H242        2.4640   -1.6480    7.2640 hn        1 1HV      0.458800
     60 H282        9.3520    0.9520   -4.4150 hn        1 1HV      0.459800
@<TRIPOS>BOND
     1    1   24 ar  
     2    1   25 ar  
     3    1   33 1   
     4    2   23 ar  
     5    2   26 ar  
     6    2   34 1   
     7    3    6 ar  
     8    3   21 ar  
     9    3   35 1   
    10    4    5 ar  
    11    4    6 ar  
    12    4   13 1   
    13    5    7 ar  
    14    5   36 1   
    15    6   37 1   
    16    7   21 ar  
    17    7   38 1   
    18    8   11 ar  
    19    8   22 ar  
    20    8   39 1   
    21    9   10 ar  
    22    9   11 ar  
    23    9   14 1   
    24   10   12 ar  
    25   10   40 1   
    26   11   41 1   
    27   12   22 ar  
    28   12   42 1   
    29   13   27 1   
    30   13   28 2   
    31   14   29 2   
    32   14   30 1   
    33   15   16 1   
    34   15   27 1   
    35   15   43 1   
    36   15   44 1   
    37   16   31 1   
    38   16   45 1   
    39   16   46 1   
    40   17   31 1   
    41   17   47 1   
    42   17   48 1   
    43   17   58 1   
    44   18   19 1   
    45   18   20 2   
    46   19   22 1   
    47   19   23 1   
    48   20   21 1   
    49   20   24 1   
    50   23   24 ar  
    51   25   26 ar  
    52   25   49 1   
    53   26   50 1   
    54   27   51 1   
    55   27   59 1   
    56   30   32 1   
    57   30   52 1   
    58   30   60 1   
    59   31   53 1   
    60   31   54 1   
    61   32   55 1   
    62   32   56 1   
    63   32   57 1   
@<TRIPOS>SUBSTRUCTURE
     1 1HV         1 TEMP              0 ****  ****    0 ROOT
