@<TRIPOS>MOLECULE
1HW
   49    49     1     0     0
SMALL
bcc


@<TRIPOS>ATOM
      1 C1          0.1860   -0.3660    0.2460 ca        1 1HW     -0.096000
      2 C2          1.5690   -0.1960    0.1920 ca        1 1HW     -0.099000
      3 C3          2.2630    0.3220    1.3060 ca        1 1HW      0.007000
      4 C4          1.5390    0.6990    2.4420 ca        1 1HW     -0.123000
      5 C5          0.1430    0.5280    2.4740 ca        1 1HW      0.073000
      6 C10         3.7400    0.4410    1.2850 c2        1 1HW     -0.049000
      7 C11         5.6580    1.0500   -0.1390 c1        1 1HW     -0.090000
      8 C6         -0.5410   -0.0150    1.3820 ca        1 1HW     -0.193000
      9 C7          2.3010   -0.5250   -1.0590 c3        1 1HW     -0.117000
     10 C9          4.4240    0.3010   -0.0650 c3        1 1HW     -0.102000
     11 F31         5.0000    5.7350   -5.4330 f         1 1HW     -0.000500
     12 C28         9.3480    3.1930   -5.1000 c1        1 1HW      0.238000
     13 F29         9.5170    1.8960   -5.0730 f         1 1HW     -0.127000
     14 F30         4.3000    6.6950   -6.2250 f         1 1HW     -0.000500
     15 C17         7.7970    2.9270   -3.2490 ca        1 1HW      0.005000
     16 C16         6.3950    3.0990   -3.2030 ca        1 1HW      0.089000
     17 F26         5.7660    3.8750   -4.1140 f         1 1HW     -0.086000
     18 C15         5.6580    2.4430   -2.2040 ca        1 1HW     -0.124000
     19 C18         8.4510    2.1400   -2.2980 ca        1 1HW     -0.143000
     20 C19         7.7170    1.5350   -1.2850 ca        1 1HW     -0.054000
     21 C14         6.3090    1.6570   -1.2390 ca        1 1HW     -0.091000
     22 C8          3.4570    0.4360   -1.2290 c3        1 1HW     -0.170000
     23 N12         5.6540    0.6750    2.5950 n         1 1HW     -0.301000
     24 C20         6.2360    0.8080    3.8660 c2        1 1HW      0.286000
     25 O23         7.4630    1.0090    3.9200 o         1 1HW     -0.357000
     26 C21         5.3940    0.7030    5.1250 c3        1 1HW     -0.021000
     27 O22         6.2040    0.4930    6.2590 oh        1 1HW     -0.318000
     28 N13         4.3430    0.5830    2.4460 n2        1 1HW     -0.030000
     29 O24        -0.4580    0.9370    3.6500 os        1 1HW     -0.208000
     30 C25        -1.8680    0.7650    3.7260 c3        1 1HW     -0.077000
     31 H1         -0.3440   -0.7810   -0.6250 ha        1 1HW      0.134000
     32 H2          2.0280    1.1300    3.3290 ha        1 1HW      0.165000
     33 H4          6.2560    0.8340    1.7870 hn        1 1HW      0.275000
     34 H5         -1.6290   -0.1620    1.4030 ha        1 1HW      0.140000
     35 H6          1.6160   -0.4540   -1.9450 hc        1 1HW      0.093500
     36 H7          2.6780   -1.5830   -1.0130 hc        1 1HW      0.093500
     37 H8          4.8310   -0.7750   -0.0850 hc        1 1HW      0.165000
     38 H9          4.5660    2.5840   -2.1750 ha        1 1HW      0.162000
     39 H10         9.5440    2.0220   -2.3460 ha        1 1HW      0.159000
     40 H11         8.2300    0.9470   -0.5060 ha        1 1HW      0.164000
     41 H12         3.0580    1.4840   -1.2740 hc        1 1HW      0.092500
     42 H13         3.9950    0.2290   -2.1900 hc        1 1HW      0.092500
     43 H14         4.7000   -0.1800    5.0910 h1        1 1HW      0.118500
     44 H15         4.8020    1.6510    5.2390 h1        1 1HW      0.118500
     45 H16         6.9930    1.0470    6.1740 ho        1 1HW      0.222000
     46 H18        -2.3820    1.3660    2.9370 h1        1 1HW      0.084333
     47 H19        -2.1220    1.1520    4.7450 h1        1 1HW      0.084333
     48 H20        -2.1400   -0.3140    3.6350 h1        1 1HW      0.084333
     49 O27         8.5030    3.6610   -4.2050 os        1 1HW     -0.172000
@<TRIPOS>BOND
     1    1    2 1   
     2    1    8 1   
     3    1   31 1   
     4    2    3 1   
     5    2    9 1   
     6    3    4 1   
     7    3    6 1   
     8    4    5 1   
     9    4   32 1   
    10    5    8 1   
    11    5   29 1   
    12    6   10 1   
    13    6   28 1   
    14    7   10 1   
    15    7   21 1   
    16    8   34 1   
    17    9   22 1   
    18    9   35 1   
    19    9   36 1   
    20   10   22 1   
    21   10   37 1   
    22   12   13 1   
    23   12   49 1   
    24   15   16 1   
    25   15   19 1   
    26   15   49 1   
    27   16   17 1   
    28   16   18 1   
    29   18   21 1   
    30   18   38 1   
    31   19   20 1   
    32   19   39 1   
    33   20   21 1   
    34   20   40 1   
    35   22   41 1   
    36   22   42 1   
    37   23   24 1   
    38   23   28 1   
    39   23   33 1   
    40   24   25 1   
    41   24   26 1   
    42   26   27 1   
    43   26   43 1   
    44   26   44 1   
    45   27   45 1   
    46   29   30 1   
    47   30   46 1   
    48   30   47 1   
    49   30   48 1   
@<TRIPOS>SUBSTRUCTURE
     1 1HW         1 TEMP              0 ****  ****    0 ROOT
