@<TRIPOS>MOLECULE
1HW
   49    52     1     0     0
SMALL
bcc


@<TRIPOS>ATOM
      1 C1         -0.1450   -0.1740   -0.1590 ca        1 1HW     -0.107000
      2 C2          1.2530   -0.0690   -0.1340 ca        1 1HW     -0.086300
      3 C3          1.9080   -0.0190    1.1090 ca        1 1HW     -0.083900
      4 C4          1.1790   -0.0740    2.3040 ca        1 1HW     -0.167000
      5 C5         -0.2130   -0.1820    2.2510 ca        1 1HW      0.117100
      6 C10         3.3570    0.1110    1.1220 ce        1 1HW      0.381900
      7 C11         5.5470    0.3270    0.1980 c3        1 1HW      0.117000
      8 C6         -0.8840   -0.2320    1.0140 ca        1 1HW     -0.134000
      9 C7          1.9890   -0.0430   -1.4290 c3        1 1HW     -0.035100
     10 C9          4.1180   -0.1820   -0.1750 c3        1 1HW     -0.142000
     11 F31         5.7330    5.9180   -3.4340 f         1 1HW     -0.214633
     12 C28         6.7340    5.1970   -4.0000 c3        1 1HW      0.818700
     13 F29         7.5800    6.0370   -4.6440 f         1 1HW     -0.214633
     14 F30         6.1990    4.3220   -4.8860 f         1 1HW     -0.214633
     15 C17         6.9450    3.5370   -2.2890 ca        1 1HW      0.047100
     16 C16         7.4190    2.2210   -2.4950 ca        1 1HW      0.146900
     17 F26         8.3130    1.9530   -3.4710 f         1 1HW     -0.116900
     18 C15         6.9540    1.1900   -1.6590 ca        1 1HW     -0.149000
     19 C18         6.0240    3.8110   -1.2740 ca        1 1HW     -0.108000
     20 C19         5.5640    2.7770   -0.4640 ca        1 1HW     -0.113000
     21 C14         6.0230    1.4670   -0.6540 ca        1 1HW     -0.046300
     22 C8          3.4110    0.4800   -1.3310 c3        1 1HW     -0.065400
     23 N12         5.4050    0.6860    1.6480 n         1 1HW     -0.243800
     24 C20         6.5140    0.6030    2.5110 c         1 1HW      0.644100
     25 O23         7.6450    0.3790    2.0470 o         1 1HW     -0.581100
     26 C21         6.3060    0.8300    4.0020 c3        1 1HW      0.082400
     27 O22         7.5190    1.1600    4.6350 oh        1 1HW     -0.585800
     28 N13         4.1290    0.5530    2.0980 n2        1 1HW     -0.434300
     29 O24        -1.0360   -0.2500    3.3590 os        1 1HW     -0.324900
     30 C25        -0.3930   -0.1700    4.6260 c3        1 1HW      0.111700
     31 H1         -0.6660   -0.2100   -1.1290 ha        1 1HW      0.139000
     32 H2          1.7060   -0.0290    3.2680 ha        1 1HW      0.153000
     33 H4          6.2900   -0.5190    0.1190 h1        1 1HW      0.088700
     34 H5         -1.9800   -0.3140    0.9960 ha        1 1HW      0.154000
     35 H6          2.0100   -1.0920   -1.8390 hc        1 1HW      0.057200
     36 H7          1.4240    0.5890   -2.1670 hc        1 1HW      0.057200
     37 H8          4.1570   -1.2920   -0.3430 hc        1 1HW      0.083700
     38 H9          7.3440    0.1710   -1.8050 ha        1 1HW      0.159000
     39 H10         5.6720    4.8450   -1.1270 ha        1 1HW      0.162000
     40 H11         4.8390    3.0020    0.3340 ha        1 1HW      0.157000
     41 H12         3.3990    1.5930   -1.1880 hc        1 1HW      0.059700
     42 H13         3.9560    0.2680   -2.2870 hc        1 1HW      0.059700
     43 H14         5.6230    1.6990    4.2010 h1        1 1HW      0.079700
     44 H15         5.8750   -0.1090    4.4450 h1        1 1HW      0.079700
     45 H16         8.2160    0.5930    4.2720 ho        1 1HW      0.424000
     46 H18         0.1510    0.8000    4.7330 h1        1 1HW      0.047367
     47 H19         0.3060   -1.0300    4.7680 h1        1 1HW      0.047367
     48 H20        -1.2440   -0.2290    5.3520 h1        1 1HW      0.047367
     49 O27         7.5270    4.5640   -3.0250 os        1 1HW     -0.354900
@<TRIPOS>BOND
     1    1    2 ar  
     2    1    8 ar  
     3    1   31 1   
     4    2    3 ar  
     5    2    9 1   
     6    3    4 ar  
     7    3    6 1   
     8    4    5 ar  
     9    4   32 1   
    10    5    8 ar  
    11    5   29 1   
    12    6   10 1   
    13    6   28 2   
    14    7   10 1   
    15    7   21 1   
    16    7   23 1   
    17    7   33 1   
    18    8   34 1   
    19    9   22 1   
    20    9   35 1   
    21    9   36 1   
    22   10   22 1   
    23   10   37 1   
    24   11   12 1   
    25   12   13 1   
    26   12   14 1   
    27   12   49 1   
    28   15   16 ar  
    29   15   19 ar  
    30   15   49 1   
    31   16   17 1   
    32   16   18 ar  
    33   18   21 ar  
    34   18   38 1   
    35   19   20 ar  
    36   19   39 1   
    37   20   21 ar  
    38   20   40 1   
    39   22   41 1   
    40   22   42 1   
    41   23   24 1   
    42   23   28 1   
    43   24   25 2   
    44   24   26 1   
    45   26   27 1   
    46   26   43 1   
    47   26   44 1   
    48   27   45 1   
    49   29   30 1   
    50   30   46 1   
    51   30   47 1   
    52   30   48 1   
@<TRIPOS>SUBSTRUCTURE
     1 1HW         1 TEMP              0 ****  ****    0 ROOT
