@<TRIPOS>MOLECULE
1HW
   49    52     1     0     0
SMALL
bcc


@<TRIPOS>ATOM
      1 C1         -4.4430   -2.4900    1.0120 ca        1 1HW     -0.102000
      2 C2         -3.3550   -1.6160    1.0730 ca        1 1HW     -0.088300
      3 C3         -3.4060   -0.4110    0.3390 ca        1 1HW     -0.086900
      4 C4         -4.5250   -0.0960   -0.4320 ca        1 1HW     -0.116000
      5 C5         -5.6090   -0.9920   -0.4700 ca        1 1HW      0.116100
      6 C10        -2.2570    0.4790    0.3940 ce        1 1HW      0.381900
      7 C11        -0.0790    1.2110    1.0350 c3        1 1HW      0.115000
      8 C6         -5.5710   -2.1910    0.2490 ca        1 1HW     -0.184000
      9 C7         -2.1950   -1.9760    1.9360 c3        1 1HW     -0.034100
     10 C9         -1.2250    0.2600    1.5040 c3        1 1HW     -0.142000
     11 F31         6.1000    0.1200   -0.7540 f         1 1HW     -0.213300
     12 C28         5.6980   -1.1620   -0.9330 c3        1 1HW      0.819700
     13 F29         5.2010   -1.2990   -2.1890 f         1 1HW     -0.213300
     14 F30         6.7530   -1.9960   -0.7780 f         1 1HW     -0.213300
     15 C17         3.6150   -0.8160    0.1960 ca        1 1HW      0.047100
     16 C16         3.4650   -0.0810    1.3950 ca        1 1HW      0.146900
     17 F26         4.4690   -0.0130    2.2940 f         1 1HW     -0.116900
     18 C15         2.2460    0.5760    1.6440 ca        1 1HW     -0.149000
     19 C18         2.5730   -0.8810   -0.7340 ca        1 1HW     -0.110000
     20 C19         1.3740   -0.2260   -0.4710 ca        1 1HW     -0.115000
     21 C14         1.2040    0.4980    0.7160 ca        1 1HW     -0.045300
     22 C8         -0.9200   -1.2120    1.6220 c3        1 1HW     -0.065400
     23 N12        -0.6820    1.9040   -0.1520 n         1 1HW     -0.242800
     24 C20        -0.2870    3.2170   -0.4740 c         1 1HW      0.642100
     25 O23         0.6940    3.7220    0.0980 o         1 1HW     -0.581100
     26 C21        -1.0080    3.9550   -1.5930 c3        1 1HW      0.081400
     27 O22        -0.6700    5.3220   -1.5850 oh        1 1HW     -0.586800
     28 N13        -1.9150    1.4220   -0.4660 n2        1 1HW     -0.429300
     29 O24        -6.6680   -0.5820   -1.2580 os        1 1HW     -0.323900
     30 C25        -7.7790   -1.4680   -1.3250 c3        1 1HW      0.112700
     31 H1         -4.4110   -3.4340    1.5780 ha        1 1HW      0.137000
     32 H2         -4.5770    0.8380   -1.0110 ha        1 1HW      0.165000
     33 H4          0.1260    1.9890    1.8270 h1        1 1HW      0.089700
     34 H5         -6.4120   -2.8970    0.2210 ha        1 1HW      0.142000
     35 H6         -2.4840   -1.7840    3.0070 hc        1 1HW      0.056700
     36 H7         -1.9860   -3.0760    1.8420 hc        1 1HW      0.056700
     37 H8         -1.6380    0.6380    2.4770 hc        1 1HW      0.084700
     38 H9          2.1360    1.1590    2.5710 ha        1 1HW      0.160000
     39 H10         2.7160   -1.4480   -1.6670 ha        1 1HW      0.161000
     40 H11         0.5580   -0.2800   -1.2100 ha        1 1HW      0.157000
     41 H12        -0.1690   -1.3860    2.4350 hc        1 1HW      0.059700
     42 H13        -0.4750   -1.5910    0.6640 hc        1 1HW      0.059700
     43 H14        -0.7220    3.4830   -2.5720 h1        1 1HW      0.082200
     44 H15        -2.1230    3.9280   -1.4640 h1        1 1HW      0.082200
     45 H16         0.2860    5.3970   -1.4530 ho        1 1HW      0.423000
     46 H18        -8.4920   -0.9370   -2.0060 h1        1 1HW      0.046367
     47 H19        -7.4760   -2.4500   -1.7620 h1        1 1HW      0.046367
     48 H20        -8.2320   -1.6110   -0.3140 h1        1 1HW      0.046367
     49 O27         4.7670   -1.5790    0.0350 os        1 1HW     -0.358900
@<TRIPOS>BOND
     1    1    2 ar  
     2    1    8 ar  
     3    1   31 1   
     4    2    3 ar  
     5    2    9 1   
     6    3    4 ar  
     7    3    6 1   
     8    4    5 ar  
     9    4   32 1   
    10    5    8 ar  
    11    5   29 1   
    12    6   10 1   
    13    6   28 2   
    14    7   10 1   
    15    7   21 1   
    16    7   23 1   
    17    7   33 1   
    18    8   34 1   
    19    9   22 1   
    20    9   35 1   
    21    9   36 1   
    22   10   22 1   
    23   10   37 1   
    24   11   12 1   
    25   12   13 1   
    26   12   14 1   
    27   12   49 1   
    28   15   16 ar  
    29   15   19 ar  
    30   15   49 1   
    31   16   17 1   
    32   16   18 ar  
    33   18   21 ar  
    34   18   38 1   
    35   19   20 ar  
    36   19   39 1   
    37   20   21 ar  
    38   20   40 1   
    39   22   41 1   
    40   22   42 1   
    41   23   24 1   
    42   23   28 1   
    43   24   25 2   
    44   24   26 1   
    45   26   27 1   
    46   26   43 1   
    47   26   44 1   
    48   27   45 1   
    49   29   30 1   
    50   30   46 1   
    51   30   47 1   
    52   30   48 1   
@<TRIPOS>SUBSTRUCTURE
     1 1HW         1 TEMP              0 ****  ****    0 ROOT
