@<TRIPOS>MOLECULE
1HW
   49    51     1     0     0
SMALL
bcc


@<TRIPOS>ATOM
      1 C1         -0.1580    0.2230    0.5990 ca        1 1HW     -0.099000
      2 C2          1.1920    0.5510    0.4480 ca        1 1HW     -0.099000
      3 C3          2.1280    0.0970    1.3990 ca        1 1HW      0.003000
      4 C4          1.6960   -0.6940    2.4680 ca        1 1HW     -0.123000
      5 C5          0.3330   -1.0150    2.5970 ca        1 1HW      0.074000
      6 C10         3.5610    0.4480    1.2630 c2        1 1HW     -0.059000
      7 C11         5.3560    1.0760   -0.3530 c1        1 1HW     -0.035000
      8 C6         -0.6020   -0.5550    1.6650 ca        1 1HW     -0.191000
      9 C7          1.5840    1.3500   -0.7440 c3        1 1HW     -0.117000
     10 C9          3.9510    0.8160   -0.1540 c3        1 1HW     -0.116000
     11 F31         6.7480    5.4660   -5.0930 f         1 1HW     -0.142000
     12 C28         7.6150    4.4650   -5.3930 c3        1 1HW      0.533000
     13 F29         6.9660    3.5250   -6.1220 f         1 1HW     -0.142000
     14 F30         8.6480    4.9650   -6.1090 f         1 1HW     -0.142000
     15 C17         7.3870    3.2320   -3.3540 ca        1 1HW     -0.003000
     16 C16         7.5870    1.8360   -3.2300 ca        1 1HW      0.124000
     17 F26         8.4510    1.1900   -4.0410 f         1 1HW     -0.078000
     18 C15         6.8930    1.1310   -2.2350 ca        1 1HW     -0.145000
     19 C18         6.4940    3.9010   -2.5120 ca        1 1HW     -0.094000
     20 C19         5.7740    3.1860   -1.5640 ca        1 1HW     -0.140000
     21 C14         5.9680    1.7980   -1.4140 ca        1 1HW     -0.066000
     22 C8          2.9940    1.8880   -0.6650 c3        1 1HW     -0.162000
     23 N12         5.6050    0.6630    2.3640 n         1 1HW     -0.305000
     24 C20         6.3280    0.6550    3.5690 c2        1 1HW      0.287000
     25 O23         7.5570    0.8370    3.5040 o         1 1HW     -0.349000
     26 C21         5.6300    0.4160    4.8960 c3        1 1HW     -0.020000
     27 O22         6.4530    0.7960    5.9740 oh        1 1HW     -0.317000
     28 N13         4.3090    0.4070    2.3400 n2        1 1HW     -0.021000
     29 O24         0.0290   -1.8020    3.6910 os        1 1HW     -0.208000
     30 C25        -1.3450   -2.1280    3.8660 c3        1 1HW     -0.077000
     31 H1         -0.8870    0.5870   -0.1420 ha        1 1HW      0.134000
     32 H2          2.3970   -1.0780    3.2250 ha        1 1HW      0.165000
     33 H4          6.1340    0.7950    1.5040 hn        1 1HW      0.273000
     34 H5         -1.6690   -0.7970    1.7600 ha        1 1HW      0.141000
     35 H6          1.4840    0.6980   -1.6550 hc        1 1HW      0.094000
     36 H7          0.8700    2.2080   -0.8750 hc        1 1HW      0.094000
     37 H8          3.8020   -0.1330   -0.7810 hc        1 1HW      0.174000
     38 H9          7.0780    0.0530   -2.1070 ha        1 1HW      0.166000
     39 H10         6.3600    4.9900   -2.6220 ha        1 1HW      0.164000
     40 H11         5.0650    3.7120   -0.9060 ha        1 1HW      0.149000
     41 H12         3.0270    2.7700    0.0270 hc        1 1HW      0.096500
     42 H13         3.3210    2.2360   -1.6800 hc        1 1HW      0.096500
     43 H14         5.3680   -0.6750    4.9700 h1        1 1HW      0.118500
     44 H15         4.7020    1.0400    4.9990 h1        1 1HW      0.118500
     45 H16         7.3580    0.5120    5.7790 ho        1 1HW      0.222000
     46 H18        -1.9560   -1.2030    4.0040 h1        1 1HW      0.085000
     47 H19        -1.3480   -2.7470    4.7990 h1        1 1HW      0.085000
     48 H20        -1.7230   -2.7220    2.9980 h1        1 1HW      0.085000
     49 O27         8.2060    3.9340   -4.2310 os        1 1HW     -0.237000
@<TRIPOS>BOND
     1    1    2 1   
     2    1    8 1   
     3    1   31 1   
     4    2    3 1   
     5    2    9 1   
     6    3    4 1   
     7    3    6 1   
     8    4    5 1   
     9    4   32 1   
    10    5    8 1   
    11    5   29 1   
    12    6   10 1   
    13    6   28 1   
    14    7   10 1   
    15    7   21 1   
    16    8   34 1   
    17    9   22 1   
    18    9   35 1   
    19    9   36 1   
    20   10   22 1   
    21   10   37 1   
    22   11   12 1   
    23   12   13 1   
    24   12   14 1   
    25   12   49 1   
    26   15   16 1   
    27   15   19 1   
    28   15   49 1   
    29   16   17 1   
    30   16   18 1   
    31   18   21 1   
    32   18   38 1   
    33   19   20 1   
    34   19   39 1   
    35   20   21 1   
    36   20   40 1   
    37   22   41 1   
    38   22   42 1   
    39   23   24 1   
    40   23   28 1   
    41   23   33 1   
    42   24   25 1   
    43   24   26 1   
    44   26   27 1   
    45   26   43 1   
    46   26   44 1   
    47   27   45 1   
    48   29   30 1   
    49   30   46 1   
    50   30   47 1   
    51   30   48 1   
@<TRIPOS>SUBSTRUCTURE
     1 1HW         1 TEMP              0 ****  ****    0 ROOT
