@<TRIPOS>MOLECULE
1HW
   49    45     1     0     0
SMALL
bcc


@<TRIPOS>ATOM
      1 C1         -4.4570   -0.8750   -0.4500 c1        1 1HW     -0.085500
      2 C2         -3.0840   -0.8510   -0.4450 c1        1 1HW     -0.054100
      3 C3         -2.3450   -0.8490    0.8480 cg        1 1HW     -0.033200
      4 C4         -3.0350   -0.8700    2.0330 c1        1 1HW     -0.058500
      5 C5         -4.4480   -0.8950    2.0320 c1        1 1HW      0.099600
      6 C10        -0.7270   -0.9250    0.7840 ce        1 1HW      0.328200
      7 C11         1.3210   -0.6580   -0.2360 c3        1 1HW      0.080800
      8 C6         -5.1700   -0.8970    0.7780 c1        1 1HW     -0.085500
      9 C7         -2.2280   -0.7480   -1.7750 c3        1 1HW     -0.068300
     10 C9         -0.1840   -1.1970   -0.3960 c3        1 1HW     -0.142000
     11 F31         6.0360    1.6670   -4.2790 f         1 1HW     -0.213300
     12 C28         5.4120    2.5510   -3.5730 c3        1 1HW      0.819700
     13 F29         5.6080    2.3210   -2.3340 f         1 1HW     -0.213300
     14 F30         5.8660    3.7510   -3.8720 f         1 1HW     -0.213300
     15 O27         4.0070    2.4820   -3.8550 os        1 1HW     -0.342400
     16 C17         3.2640    1.7000   -2.9020 c1        1 1HW      0.030600
     17 C16         3.2830    0.3380   -2.9780 c1        1 1HW      0.112000
     18 F26         4.0510   -0.2540   -3.8570 f         1 1HW     -0.082000
     19 C15         2.4570   -0.4280   -2.1250 c1        1 1HW     -0.091500
     20 C18         2.4340    2.3340   -1.9870 c1        1 1HW     -0.052500
     21 C19         1.6050    1.5710   -1.1310 c1        1 1HW     -0.057500
     22 C14         1.6190    0.2140   -1.2020 c1        1 1HW     -0.011100
     23 C8         -0.8230   -0.5600   -1.6170 c3        1 1HW     -0.065400
     24 N12         1.3280    0.0520    1.1930 n         1 1HW     -0.242800
     25 C20         2.4630    0.1860    2.0650 c         1 1HW      0.642100
     26 O23         3.5690   -0.2790    1.7240 o         1 1HW     -0.581100
     27 C21         2.3320    0.9640    3.3690 c3        1 1HW      0.081400
     28 O22         3.5090    0.7870    4.1430 oh        1 1HW     -0.586800
     29 N13         0.0680    0.0110    1.5630 n2        1 1HW     -0.429300
     30 O24        -5.1480   -0.7890    3.2480 os        1 1HW     -0.307400
     31 C25        -5.8380   -2.0500    3.6700 c3        1 1HW      0.112700
     32 H1         -4.9400   -0.8780   -1.2980 ha        1 1HW      0.082000
     33 H2         -2.5480   -0.8680    2.8790 ha        1 1HW      0.107500
     34 H4          1.9290   -1.3790   -0.2460 h1        1 1HW      0.089700
     35 H5         -6.1950   -0.9120    0.7770 ha        1 1HW      0.082000
     36 H6         -2.5690   -0.0140   -2.2900 hc        1 1HW      0.056700
     37 H7         -2.3750   -1.6130   -2.3120 hc        1 1HW      0.056700
     38 H8         -0.1640   -2.2000   -0.5250 hc        1 1HW      0.084700
     39 H9          2.4700   -1.3790   -2.1770 ha        1 1HW      0.102500
     40 H10         2.4240    3.2780   -1.9360 ha        1 1HW      0.103500
     41 H11         1.0110    2.0300   -0.4760 ha        1 1HW      0.099500
     42 H12        -0.6420    0.4260   -1.5820 hc        1 1HW      0.059700
     43 H13        -0.3630   -0.9380   -2.4460 hc        1 1HW      0.059700
     44 H14         2.2190    1.8650    3.1830 h1        1 1HW      0.082200
     45 H15         1.5290    0.6230    3.8910 h1        1 1HW      0.082200
     46 H16         3.4170    1.1480    4.8640 ho        1 1HW      0.423000
     47 H18        -6.2500   -2.4910    2.8700 h1        1 1HW      0.046367
     48 H19        -6.5200   -1.8390    4.3040 h1        1 1HW      0.046367
     49 H20        -5.1800   -2.6650    4.0850 h1        1 1HW      0.046367
@<TRIPOS>BOND
     1    1    8 3   
     2    1   32 1   
     3    2    3 3   
     4    2    9 1   
     5    3    6 1   
     6    4    5 3   
     7    4   33 1   
     8    5   30 1   
     9    6   10 1   
    10    6   29 2   
    11    7   10 1   
    12    7   22 1   
    13    7   24 1   
    14    7   34 1   
    15    8   35 1   
    16    9   23 1   
    17    9   36 1   
    18    9   37 1   
    19   10   23 1   
    20   10   38 1   
    21   11   12 1   
    22   12   13 1   
    23   12   14 1   
    24   12   15 1   
    25   15   16 1   
    26   16   20 3   
    27   17   19 3   
    28   19   39 1   
    29   20   40 1   
    30   21   22 3   
    31   21   41 1   
    32   23   42 1   
    33   23   43 1   
    34   24   25 1   
    35   24   29 1   
    36   25   26 2   
    37   25   27 1   
    38   27   28 1   
    39   27   44 1   
    40   27   45 1   
    41   28   46 1   
    42   30   31 1   
    43   31   47 1   
    44   31   48 1   
    45   31   49 1   
@<TRIPOS>SUBSTRUCTURE
     1 1HW         1 TEMP              0 ****  ****    0 ROOT
