@<TRIPOS>MOLECULE
1HX
   35    35     1     0     0
SMALL
bcc


@<TRIPOS>ATOM
      1 C4          0.9130   -0.5340    1.2950 ca        1 1HX     -0.159000
      2 C6          1.8290    0.4880    3.3030 ca        1 1HX     -0.115000
      3 C1          1.7080    1.7490    2.7190 ca        1 1HX     -0.089000
      4 C3          0.8000    0.7450    0.7260 ca        1 1HX      0.063000
      5 C2          1.1960    1.8930    1.4320 ca        1 1HX     -0.151000
      6 C5          1.4310   -0.6480    2.5880 ca        1 1HX     -0.037000
      7 C7         -1.9580   -1.0640   -2.8380 c1        1 1HX      0.128000
      8 CL2         1.5750   -2.1820    3.2910 cl        1 1HX      0.028000
      9 F20         0.2960    0.8700   -0.5350 f         1 1HX     -0.174000
     10 C10        -2.6690   -1.5860   -3.9740 c3        1 1HX     -0.361000
     11 N8         -1.4080    0.2660   -2.7590 n4        1 1HX     -0.134000
     12 O11        -2.7050    1.3360   -4.3720 o         1 1HX     -0.245000
     13 C12        -0.3960    1.9850   -4.2710 c2        1 1HX     -0.223000
     14 C16         0.8960    2.0060   -3.6640 c2        1 1HX     -0.105000
     15 C15         1.7000    2.8910   -4.4080 c2        1 1HX     -0.141000
     16 C14         0.8880    3.4070   -5.4630 c2        1 1HX      0.089000
     17 C18         1.2920    4.3320   -6.4540 c1        1 1HX     -0.124000
     18 N19         1.6620    5.0930   -7.2520 n1        1 1HX      0.073000
     19 N13        -0.3800    2.8620   -5.3760 na        1 1HX     -0.038000
     20 C17        -1.4940    3.1340   -6.2380 c3        1 1HX     -0.106000
     21 H1          2.2360    0.3880    4.3220 ha        1 1HX      0.169000
     22 H2          2.0220    2.6430    3.2830 ha        1 1HX      0.160000
     23 H3          1.1010    2.8870    0.9710 ha        1 1HX      0.153000
     24 H4          0.6010   -1.4250    0.7310 ha        1 1HX      0.157000
     25 H5         -3.7100   -1.8550   -3.6080 hc        1 1HX      0.181667
     26 H6         -2.7680   -0.9530   -4.8920 hc        1 1HX      0.181667
     27 H7         -2.1940   -2.5770   -4.2440 hc        1 1HX      0.181667
     28 H8         -0.3990    0.1320   -2.5450 hn        1 1HX      0.298000
     29 H9          1.2090    1.4630   -2.7720 ha        1 1HX      0.171000
     30 H10         2.7430    3.1520   -4.2310 ha        1 1HX      0.197000
     31 H11        -1.8270    2.1820   -6.7350 h1        1 1HX      0.127667
     32 H12        -1.1930    3.8820   -7.0190 h1        1 1HX      0.127667
     33 H13        -2.3490    3.5410   -5.6310 h1        1 1HX      0.127667
     34 C9         -1.5740    1.2560   -3.8890 c2        1 1HX      0.289000
     35 H82        -1.8230    0.6800   -1.9000 hn        1 1HX      0.298000
@<TRIPOS>BOND
     1    1    4 1   
     2    1    6 1   
     3    1   24 1   
     4    2    3 1   
     5    2    6 1   
     6    2   21 1   
     7    3    5 1   
     8    3   22 1   
     9    4    5 1   
    10    4    9 1   
    11    5   23 1   
    12    6    8 1   
    13    7   10 1   
    14    7   11 1   
    15   10   25 1   
    16   10   26 1   
    17   10   27 1   
    18   11   28 1   
    19   11   34 1   
    20   11   35 1   
    21   12   34 1   
    22   13   14 1   
    23   13   19 1   
    24   13   34 1   
    25   14   15 1   
    26   14   29 1   
    27   15   16 1   
    28   15   30 1   
    29   16   17 1   
    30   16   19 1   
    31   17   18 1   
    32   19   20 1   
    33   20   31 1   
    34   20   32 1   
    35   20   33 1   
@<TRIPOS>SUBSTRUCTURE
     1 1HX         1 TEMP              0 ****  ****    0 ROOT
