@<TRIPOS>MOLECULE
1HX
   34    26     1     0     0
SMALL
bcc


@<TRIPOS>ATOM
      1 C4          0.4330   -1.2090    2.2780 c1        1 1HX     -0.121000
      2 C6          0.4510   -0.9600    4.6740 c1        1 1HX     -0.117000
      3 C1          1.8200   -1.1910    4.6860 c1        1 1HX     -0.117000
      4 C3          1.7980   -1.4390    2.2870 c2        1 1HX      0.100000
      5 C2          2.4960   -1.4300    3.4910 c1        1 1HX     -0.163000
      6 C5         -0.2430   -0.9690    3.4750 c1        1 1HX     -0.029000
      7 C7         -0.3300   -1.2560    0.9800 c2        1 1HX      0.063000
      8 C9         -0.7610    0.7190   -0.4660 c1        1 1HX      0.377000
      9 CL2        -1.9800   -0.7390    3.4660 cl        1 1HX      0.008000
     10 F20         2.4600   -1.5620    1.1310 f         1 1HX     -0.110000
     11 C10        -0.1380   -2.5950    0.3360 c3        1 1HX     -0.224000
     12 N8          0.1540   -0.2240    0.0990 n2        1 1HX     -0.366000
     13 O11        -1.8120    0.9550    0.0950 o         1 1HX     -0.382000
     14 C12        -0.3640    1.5190   -1.7490 c2        1 1HX     -0.115000
     15 C16         0.7450    2.3360   -1.8870 c1        1 1HX     -0.164000
     16 C15         0.7190    2.8740   -3.1420 c1        1 1HX     -0.142000
     17 C14        -0.4090    2.3930   -3.7910 c1        1 1HX     -0.020000
     18 C18        -0.8370    2.7270   -5.2270 c1        1 1HX     -0.074000
     19 N19        -1.1610    2.9800   -6.3100 n1        1 1HX     -0.027000
     20 N13        -1.0710    1.5590   -2.9260 n2        1 1HX     -0.059000
     21 C17        -2.2840    0.8830   -3.1880 c2        1 1HX     -0.088000
     22 H1         -0.0250   -0.7920    5.5120 ha        1 1HX      0.150000
     23 H2          2.3090   -1.1840    5.5300 ha        1 1HX      0.150000
     24 H3          3.4600   -1.5920    3.4980 ha        1 1HX      0.154000
     25 H4         -1.2910   -1.1120    1.1590 h4        1 1HX      0.151000
     26 H5          0.4420   -2.5010   -0.4450 hc        1 1HX      0.088667
     27 H6          0.2770   -3.2110    0.9790 hc        1 1HX      0.088667
     28 H7         -1.0030   -2.9490    0.0580 hc        1 1HX      0.088667
     29 H8          1.0250   -0.2030   -0.1360 hn        1 1HX      0.235000
     30 H9          1.4300    2.5000   -1.2030 DU        1 1HX      0.163000
     31 H10         1.3810    3.4920   -3.5180 DU        1 1HX      0.163000
     32 H11        -2.1670   -0.0730   -3.0180 ha        1 1HX      0.112667
     33 H12        -2.9870    1.2350   -2.6020 ha        1 1HX      0.112667
     34 H13        -2.5400    1.0200   -4.1260 ha        1 1HX      0.112667
@<TRIPOS>BOND
     1    1    4 1   
     2    1    6 1   
     3    2    3 1   
     4    2   22 1   
     5    3   23 1   
     6    4    5 1   
     7    4   10 1   
     8    5   24 1   
     9    7   11 1   
    10    7   12 1   
    11    7   25 1   
    12    8   13 1   
    13    8   14 1   
    14   11   26 1   
    15   11   27 1   
    16   11   28 1   
    17   12   29 1   
    18   14   15 1   
    19   14   20 1   
    20   15   16 1   
    21   16   17 1   
    22   17   20 1   
    23   18   19 1   
    24   21   32 1   
    25   21   33 1   
    26   21   34 1   
@<TRIPOS>SUBSTRUCTURE
     1 1HX         1 TEMP              0 ****  ****    0 ROOT
