@<TRIPOS>MOLECULE
1HX
   35    37     1     0     0
SMALL
bcc


@<TRIPOS>ATOM
      1 C4          0.0000    0.0000    0.0000 c3        1 1HX     -0.065000
      2 C6          0.0000   -0.0010    2.3960 c2        1 1HX     -0.078000
      3 C1          1.3820    0.0000    2.3960 c2        1 1HX     -0.003000
      4 C3          1.3840    0.0000    0.0000 c2        1 1HX     -0.057000
      5 C2          2.0750    0.0000    1.2000 c2        1 1HX     -0.074000
      6 C5         -0.6910   -0.0000    1.1970 c2        1 1HX     -0.043000
      7 C7         -0.7540    0.0070   -1.3060 c3        1 1HX     -0.324000
      8 Cl2        -2.4280    0.0010    1.1970 cl        1 1HX      0.197000
      9 F20         2.0610    0.0000   -1.1690 f         1 1HX     -0.075000
     10 C10        -0.6910   -1.3850   -1.9380 c3        1 1HX     -0.129000
     11 N8         -0.1480    0.9830   -2.2140 ny        1 1HX      0.654000
     12 O11        -2.0750    1.3000   -3.2720 o         1 1HX     -0.216000
     13 C12        -0.2500    2.4310   -4.1780 c2        1 1HX     -0.418000
     14 C16         1.0580    2.8710   -4.1440 c2        1 1HX     -0.131000
     15 C15         1.2500    3.6940   -5.2530 c2        1 1HX     -0.103000
     16 C14         0.0570    3.7440   -5.9460 c2        1 1HX     -0.087000
     17 C18        -0.1830    4.4800   -7.1510 c1        1 1HX     -0.124000
     18 N19        -0.3580    5.0550   -8.1140 n1        1 1HX      0.041000
     19 N13        -0.8520    2.9660   -5.2860 na        1 1HX      0.508000
     20 C17        -2.2410    2.7420   -5.6950 c3        1 1HX     -0.155000
     21 H1         -0.5410   -0.0010    3.3340 ha        1 1HX      0.146000
     22 H2          1.9240    0.0040    3.3350 ha        1 1HX      0.136000
     23 H3          3.1590    0.0040    1.2020 ha        1 1HX      0.146000
     24 H4          0.1590    0.0100   -0.7220 DU        1 1HX      0.143000
     25 H5         -1.6120   -1.5790   -2.4750 hc        1 1HX      0.082667
     26 H6         -0.5610   -2.1290   -1.1620 hc        1 1HX      0.082667
     27 H7          0.1450   -1.4320   -2.6260 hc        1 1HX      0.082667
     28 H8          0.0870    1.8120   -1.7050 hn        1 1HX      0.048500
     29 H9          1.7940    2.6220   -3.3900 ha        1 1HX      0.122000
     30 H10         2.1590    4.2310   -5.4970 ha        1 1HX      0.155000
     31 H11        -2.9070    3.0660   -4.9040 h1        1 1HX      0.090333
     32 H12        -2.4480    3.3090   -6.5950 h1        1 1HX      0.090333
     33 H13        -2.3960    1.6880   -5.8890 h1        1 1HX      0.090333
     34 C9         -0.8850    1.5380   -3.1960 c2        1 1HX      0.215000
     35 H82         0.8480    0.8830   -2.1960 hn        1 1HX      0.048500
@<TRIPOS>BOND
     1    1    4 1   
     2    1    6 1   
     3    1    7 1   
     4    1   24 1   
     5    2    3 1   
     6    2    6 1   
     7    2   21 1   
     8    3    5 1   
     9    3   22 1   
    10    4    5 1   
    11    4    9 1   
    12    5   23 1   
    13    6    8 1   
    14    7   10 1   
    15    7   11 1   
    16    7   24 1   
    17   10   25 1   
    18   10   26 1   
    19   10   27 1   
    20   11   28 1   
    21   11   34 1   
    22   11   35 1   
    23   12   34 1   
    24   13   14 1   
    25   13   19 1   
    26   13   34 1   
    27   14   15 1   
    28   14   29 1   
    29   15   16 1   
    30   15   30 1   
    31   16   17 1   
    32   16   19 1   
    33   17   18 1   
    34   19   20 1   
    35   20   31 1   
    36   20   32 1   
    37   20   33 1   
@<TRIPOS>SUBSTRUCTURE
     1 1HX         1 TEMP              0 ****  ****    0 ROOT
