@<TRIPOS>MOLECULE
1HX
   35    36     1     0     0
SMALL
bcc


@<TRIPOS>ATOM
      1 C4          0.3730    0.1400   -0.2780 ca        1 1HX     -0.213300
      2 C6          0.3600   -0.0200    2.1580 ca        1 1HX     -0.118000
      3 C1          1.7540   -0.1000    2.1710 ca        1 1HX     -0.055000
      4 C3          1.7880    0.0890   -0.2380 ca        1 1HX      0.163900
      5 C2          2.4740   -0.0400    0.9840 ca        1 1HX     -0.145000
      6 C5         -0.3190    0.1050    0.9440 ca        1 1HX      0.043400
      7 C7         -0.3020    0.1720   -1.6190 c3        1 1HX      0.200800
      8 CL2        -2.0180    0.2350    0.9970 cl        1 1HX     -0.073400
      9 F20         2.4970    0.1650   -1.3890 f         1 1HX     -0.125900
     10 C10        -1.0670   -1.1140   -1.9050 c3        1 1HX     -0.126100
     11 N8         -1.1880    1.3960   -1.7340 n4        1 1HX     -0.673800
     12 O11        -2.7060    1.3490   -3.4860 o         1 1HX     -0.462100
     13 C12        -0.5670    2.3470   -3.9600 cc        1 1HX     -0.266900
     14 C16         0.7730    2.7030   -3.6210 cd        1 1HX     -0.105000
     15 C15         1.3410    3.3320   -4.7460 cd        1 1HX     -0.139000
     16 C14         0.3400    3.3540   -5.7630 cc        1 1HX      0.060700
     17 C18         0.4780    3.8950   -7.0620 cg        1 1HX      0.205800
     18 N19         0.6300    4.3510   -8.1210 n1        1 1HX     -0.252800
     19 N13        -0.8140    2.7560   -5.2860 na        1 1HX      0.031900
     20 C17        -2.0480    2.5770   -5.9960 c3        1 1HX     -0.009400
     21 H1         -0.2020   -0.0580    3.1070 ha        1 1HX      0.180000
     22 H2          2.2860   -0.2090    3.1320 ha        1 1HX      0.175000
     23 H3          3.5750   -0.0930    0.9820 ha        1 1HX      0.181000
     24 H4          0.4880    0.2990   -2.4290 hx        1 1HX      0.119700
     25 H5         -1.8360   -1.3310   -1.1250 hc        1 1HX      0.083367
     26 H6         -0.3300   -1.9570   -1.9140 hc        1 1HX      0.083367
     27 H7         -1.5670   -1.0670   -2.9040 hc        1 1HX      0.083367
     28 H8         -2.0500    1.2290   -1.1890 hn        1 1HX      0.464300
     29 H9          1.2750    2.5140   -2.6730 ha        1 1HX      0.166000
     30 H10         2.3490    3.7330   -4.8460 ha        1 1HX      0.198000
     31 H11        -1.9560    3.0090   -7.0280 h1        1 1HX      0.089700
     32 H12        -2.8800    3.0920   -5.4410 h1        1 1HX      0.089700
     33 H13        -2.2870    1.4800   -6.0640 h1        1 1HX      0.089700
     34 C9         -1.5690    1.6890   -3.1660 c         1 1HX      0.591700
     35 H82        -0.6940    2.2020   -1.3400 hn        1 1HX      0.464300
@<TRIPOS>BOND
     1    1    4 ar  
     2    1    6 ar  
     3    1    7 1   
     4    2    3 ar  
     5    2    6 ar  
     6    2   21 1   
     7    3    5 ar  
     8    3   22 1   
     9    4    5 ar  
    10    4    9 1   
    11    5   23 1   
    12    6    8 1   
    13    7   10 1   
    14    7   11 1   
    15    7   24 1   
    16   10   25 1   
    17   10   26 1   
    18   10   27 1   
    19   11   28 1   
    20   11   34 1   
    21   11   35 1   
    22   12   34 2   
    23   13   14 2   
    24   13   19 1   
    25   13   34 1   
    26   14   15 1   
    27   14   29 1   
    28   15   16 2   
    29   15   30 1   
    30   16   17 1   
    31   16   19 1   
    32   17   18 3   
    33   19   20 1   
    34   20   31 1   
    35   20   32 1   
    36   20   33 1   
@<TRIPOS>SUBSTRUCTURE
     1 1HX         1 TEMP              0 ****  ****    0 ROOT
