@<TRIPOS>MOLECULE
1HX
   34    35     1     0     0
SMALL
bcc


@<TRIPOS>ATOM
      1 C4         -2.3690    0.1520    0.3100 ca        1 1HX     -0.128300
      2 C6         -4.1600   -0.1410   -1.3250 ca        1 1HX     -0.139000
      3 C1         -4.3320    1.2370   -1.4080 ca        1 1HX     -0.095000
      4 C3         -2.5670    1.5500    0.2120 ca        1 1HX      0.134900
      5 C2         -3.5430    2.0900   -0.6440 ca        1 1HX     -0.163000
      6 C5         -3.1870   -0.6760   -0.4720 ca        1 1HX      0.049400
      7 C7         -1.3220   -0.4230    1.2440 c3        1 1HX      0.147000
      8 CL2        -3.0410   -2.3700   -0.4190 cl        1 1HX     -0.070400
      9 F20        -1.8140    2.4050    0.9510 f         1 1HX     -0.144900
     10 C10        -1.7990   -0.2260    2.6880 c3        1 1HX     -0.106100
     11 N8         -0.0090    0.1400    1.0170 n         1 1HX     -0.556900
     12 O11         0.9090   -1.8110    0.2230 o         1 1HX     -0.621100
     13 C12         2.2880    0.1400    0.2160 cc        1 1HX     -0.159900
     14 C16         2.5790    1.5100    0.4140 cd        1 1HX     -0.164000
     15 C15         3.9270    1.7220    0.0180 cd        1 1HX     -0.142000
     16 C14         4.4330    0.4730   -0.4140 cc        1 1HX     -0.048300
     17 C18         5.7310    0.2060   -0.8970 cg        1 1HX      0.255800
     18 N19         6.8110    0.0210   -1.2900 n1        1 1HX     -0.352800
     19 N13         3.4270   -0.4900   -0.2910 na        1 1HX      0.008900
     20 C17         3.5380   -1.8770   -0.6270 c3        1 1HX      0.010600
     21 H1         -4.7880   -0.8120   -1.9310 ha        1 1HX      0.154000
     22 H2         -5.0960    1.6550   -2.0810 ha        1 1HX      0.146000
     23 H3         -3.6710    3.1810   -0.6990 ha        1 1HX      0.154000
     24 H4         -1.2380   -1.5410    1.0570 h1        1 1HX      0.111700
     25 H5         -2.7960   -0.7140    2.8070 hc        1 1HX      0.049367
     26 H6         -1.0810   -0.6960    3.4020 hc        1 1HX      0.049367
     27 H7         -1.8970    0.8590    2.9350 hc        1 1HX      0.049367
     28 H8          0.0990    1.1150    1.1690 hn        1 1HX      0.321500
     29 H9          1.9020    2.2690    0.7970 ha        1 1HX      0.159000
     30 H10         4.4780    2.6580    0.0380 ha        1 1HX      0.167000
     31 H11         2.7770   -2.1350   -1.4140 h1        1 1HX      0.073367
     32 H12         4.5710   -2.0930   -1.0060 h1        1 1HX      0.073367
     33 H13         3.3230   -2.5020    0.2820 h1        1 1HX      0.073367
     34 C9          1.0240   -0.5910    0.4710 c         1 1HX      0.703700
@<TRIPOS>BOND
     1    1    4 ar  
     2    1    6 ar  
     3    1    7 1   
     4    2    3 ar  
     5    2    6 ar  
     6    2   21 1   
     7    3    5 ar  
     8    3   22 1   
     9    4    5 ar  
    10    4    9 1   
    11    5   23 1   
    12    6    8 1   
    13    7   10 1   
    14    7   11 1   
    15    7   24 1   
    16   10   25 1   
    17   10   26 1   
    18   10   27 1   
    19   11   28 1   
    20   11   34 1   
    21   12   34 2   
    22   13   14 2   
    23   13   19 1   
    24   13   34 1   
    25   14   15 1   
    26   14   29 1   
    27   15   16 2   
    28   15   30 1   
    29   16   17 1   
    30   16   19 1   
    31   17   18 3   
    32   19   20 1   
    33   20   31 1   
    34   20   32 1   
    35   20   33 1   
@<TRIPOS>SUBSTRUCTURE
     1 1HX         1 TEMP              0 ****  ****    0 ROOT
