@<TRIPOS>MOLECULE
1HZ
   54    57     1     0     0
SMALL
bcc


@<TRIPOS>ATOM
      1 O1P         2.6980   -2.9310   -0.7970 o         1 1HZ     -0.651300
      2 S           2.4770   -2.0100    0.2460 s6        1 1HZ      1.457900
      3 O2P         3.0870   -2.2750    1.4910 o         1 1HZ     -0.651300
      4 C22         3.0340   -0.4640   -0.2680 c3        1 1HZ     -0.327600
      5 C21         4.5370   -0.4760   -0.4740 c3        1 1HZ     -0.008100
      6 C19         5.0890    0.8970   -0.6200 ca        1 1HZ     -0.101300
      7 C18         5.5980    1.3290   -1.8490 ca        1 1HZ     -0.133000
      8 C17         6.1230    2.6110   -1.9940 ca        1 1HZ     -0.118000
      9 C16         6.1590    3.4940   -0.9180 ca        1 1HZ     -0.138000
     10 C15         5.6620    3.0770    0.3240 ca        1 1HZ      0.117100
     11 O15         5.7060    3.9780    1.3600 oh        1 1HZ     -0.494100
     12 C14         5.1260    1.7800    0.4710 ca        1 1HZ      0.031100
     13 O14         4.6120    1.4800    1.7190 oh        1 1HZ     -0.524100
     14 N5'         0.8970   -1.7660    0.4630 n3        1 1HZ     -0.924100
     15 C5'        -0.1160   -2.0750   -0.5020 c3        1 1HZ      0.207800
     16 C4'        -1.3250   -2.8180    0.0900 c3        1 1HZ      0.078100
     17 O4'        -1.9580   -1.9940    1.0800 os        1 1HZ     -0.413600
     18 C1'        -3.2270   -1.5180    0.6250 c3        1 1HZ      0.228800
     19 C2'        -3.6320   -2.3720   -0.6220 c3        1 1HZ      0.082100
     20 O2'        -4.6270   -3.2950   -0.2340 oh        1 1HZ     -0.593800
     21 C3'        -2.3590   -3.1600   -1.0040 c3        1 1HZ      0.132100
     22 O3'        -2.5600   -4.5450   -1.1150 oh        1 1HZ     -0.570800
     23 N9         -3.1700   -0.0990    0.3580 na        1 1HZ     -0.295000
     24 C8         -2.1020    0.8030    0.5850 cc        1 1HZ      0.418700
     25 N7         -2.4140    2.0790    0.3200 nd        1 1HZ     -0.541100
     26 C5         -3.7550    2.0500   -0.0960 ca        1 1HZ     -0.230200
     27 C6         -4.6730    3.0740   -0.5110 ca        1 1HZ      0.768200
     28 N6         -4.2680    4.3780   -0.5770 nh        1 1HZ     -0.956500
     29 N1         -5.9570    2.7120   -0.8520 nb        1 1HZ     -0.794000
     30 C2         -6.2800    1.3940   -0.7830 ca        1 1HZ      0.693900
     31 N3         -5.5290    0.3270   -0.4180 nb        1 1HZ     -0.761000
     32 C4         -4.2540    0.6820   -0.0720 ca        1 1HZ      0.453800
     33 H1          2.5510   -0.1330   -1.2240 h1        1 1HZ      0.118700
     34 H2          2.7900    0.3380    0.4810 h1        1 1HZ      0.118700
     35 H3          5.0290   -0.9830    0.4050 hc        1 1HZ      0.067700
     36 H4          4.7790   -1.0860   -1.3860 hc        1 1HZ      0.067700
     37 H5          5.5810    0.6450   -2.7120 ha        1 1HZ      0.137000
     38 H6          6.5170    2.9330   -2.9700 ha        1 1HZ      0.138000
     39 H7          6.5700    4.5080   -1.0210 ha        1 1HZ      0.154000
     40 H8          5.3770    3.5330    2.1570 ho        1 1HZ      0.438000
     41 H9          4.7450    0.5320    1.8730 ho        1 1HZ      0.434000
     42 H10         0.5280   -1.4520    1.3310 hn        1 1HZ      0.459800
     43 H11        -0.4890   -1.1170   -0.9700 h1        1 1HZ      0.065700
     44 H12         0.3270   -2.7260   -1.3130 h1        1 1HZ      0.065700
     45 H13        -1.0020   -3.7450    0.6410 h1        1 1HZ      0.099700
     46 H14        -3.9440   -1.6980    1.4840 h2        1 1HZ      0.107700
     47 H15        -3.9830   -1.7420   -1.4800 h1        1 1HZ      0.088700
     48 H16        -5.4750   -2.8330   -0.2880 ho        1 1HZ      0.435000
     49 H17        -1.9950   -2.8450   -2.0210 h1        1 1HZ      0.095700
     50 H18        -3.0900   -4.8400   -0.3610 ho        1 1HZ      0.428000
     51 H19        -1.1330    0.4370    0.9480 h5        1 1HZ      0.079800
     52 H20        -3.3540    4.6120   -0.2790 hn        1 1HZ      0.451800
     53 H21        -4.9040    5.0950   -0.8260 hn        1 1HZ      0.451800
     54 H22        -7.3290    1.1610   -1.0700 h5        1 1HZ      0.053100
@<TRIPOS>BOND
     1    1    2 2   
     2    2    3 2   
     3    2    4 1   
     4    2   14 1   
     5    4    5 1   
     6    4   33 1   
     7    4   34 1   
     8    5    6 1   
     9    5   35 1   
    10    5   36 1   
    11    6    7 ar  
    12    6   12 ar  
    13    7    8 ar  
    14    7   37 1   
    15    8    9 ar  
    16    8   38 1   
    17    9   10 ar  
    18    9   39 1   
    19   10   11 1   
    20   10   12 ar  
    21   11   40 1   
    22   12   13 1   
    23   13   41 1   
    24   14   15 1   
    25   14   42 1   
    26   15   16 1   
    27   15   43 1   
    28   15   44 1   
    29   16   17 1   
    30   16   21 1   
    31   16   45 1   
    32   17   18 1   
    33   18   19 1   
    34   18   23 1   
    35   18   46 1   
    36   19   20 1   
    37   19   21 1   
    38   19   47 1   
    39   20   48 1   
    40   21   22 1   
    41   21   49 1   
    42   22   50 1   
    43   23   24 1   
    44   23   32 1   
    45   24   25 2   
    46   24   51 1   
    47   25   26 1   
    48   26   27 ar  
    49   26   32 ar  
    50   27   28 1   
    51   27   29 ar  
    52   28   52 1   
    53   28   53 1   
    54   29   30 ar  
    55   30   31 ar  
    56   30   54 1   
    57   31   32 ar  
@<TRIPOS>SUBSTRUCTURE
     1 1HZ         1 TEMP              0 ****  ****    0 ROOT
