@<TRIPOS>MOLECULE
1HZ
   55    58     1     0     0
SMALL
bcc


@<TRIPOS>ATOM
      1 O1P         1.5680    0.0930   -5.6540 o         1 1HZ     -0.579800
      2 S           1.1120   -0.1190   -4.3600 s6        1 1HZ      1.390900
      3 O2P        -0.1880    0.2130   -4.0120 o         1 1HZ     -0.579800
      4 C22         1.6010   -1.6020   -3.7720 c3        1 1HZ     -0.388600
      5 C21         1.1020   -1.9360   -2.3730 c3        1 1HZ      0.020900
      6 C19         2.0480   -2.8110   -1.6330 ca        1 1HZ     -0.105300
      7 C18         1.6630   -4.0950   -1.2280 ca        1 1HZ     -0.112000
      8 C17         2.5350   -4.9080   -0.5060 ca        1 1HZ     -0.103000
      9 C16         3.8110   -4.4600   -0.1710 ca        1 1HZ     -0.152000
     10 C15         4.2130   -3.1810   -0.5700 ca        1 1HZ      0.070100
     11 O15         5.4490   -2.6420   -0.2930 oh        1 1HZ     -0.516100
     12 C14         3.3340   -2.3540   -1.3010 ca        1 1HZ      0.091100
     13 O14         3.7080   -1.0910   -1.7210 oh        1 1HZ     -0.569100
     14 N5'         2.1620    0.9720   -3.3550 ny        1 1HZ     -0.764900
     15 C5'         1.4330    2.0880   -2.7150 c3        1 1HZ      0.105800
     16 C4'         2.2690    2.8250   -1.6570 c3        1 1HZ      0.086100
     17 O4'         3.6440    2.8700   -2.0460 os        1 1HZ     -0.417600
     18 C1'         4.0980    4.2140   -2.2660 c3        1 1HZ      0.264800
     19 C2'         2.9170    5.1750   -1.9040 c3        1 1HZ      0.068100
     20 O2'         3.3890    5.9550   -0.8250 oh        1 1HZ     -0.589800
     21 C3'         1.7570    4.2640   -1.4480 c3        1 1HZ      0.097100
     22 O3'         1.3950    4.4950   -0.1110 oh        1 1HZ     -0.568800
     23 N9          4.6210    4.3950   -3.5940 na        1 1HZ     -0.306000
     24 C8          5.5600    5.4280   -3.9050 cc        1 1HZ      0.415700
     25 N7          5.9270    5.4430   -5.1870 nd        1 1HZ     -0.510100
     26 C5          5.2280    4.3830   -5.7850 ca        1 1HZ     -0.240200
     27 C6          5.2070    3.8940   -7.1360 ca        1 1HZ      0.788200
     28 N6          5.9570    4.4850   -8.1020 nv        1 1HZ     -0.925500
     29 N1          4.4010    2.8040   -7.4240 nb        1 1HZ     -0.775000
     30 C2          3.6920    2.2630   -6.4150 ca        1 1HZ      0.712900
     31 N3          3.6240    2.6200   -5.1010 nb        1 1HZ     -0.872000
     32 C4          4.4000    3.7020   -4.7940 ca        1 1HZ      0.498800
     33 H1          1.2550   -2.4330   -4.4600 h1        1 1HZ      0.170200
     34 H2          2.7260   -1.7350   -3.7800 h1        1 1HZ      0.170200
     35 H3          0.0940   -2.4300   -2.4460 hc        1 1HZ      0.065700
     36 H4          0.9610   -0.9860   -1.7850 hc        1 1HZ      0.065700
     37 H5          0.6570   -4.4640   -1.4800 ha        1 1HZ      0.150000
     38 H6          2.2130   -5.9140   -0.1960 ha        1 1HZ      0.158000
     39 H7          4.4990   -5.1020    0.4000 ha        1 1HZ      0.156000
     40 H8          5.9500   -3.2850    0.2310 ho        1 1HZ      0.448000
     41 H9          4.5840   -0.8990   -1.3480 ho        1 1HZ      0.464000
     42 H10         2.8980    1.4450   -3.9740 hn        1 1HZ      0.503800
     43 H11         0.5020    1.6900   -2.2130 hx        1 1HZ      0.110700
     44 H12         1.1230    2.8030   -3.5320 hx        1 1HZ      0.110700
     45 H13         2.2540    2.2480   -0.6880 h1        1 1HZ      0.102700
     46 H14         4.9550    4.3660   -1.5360 h2        1 1HZ      0.122700
     47 H15         2.6070    5.8260   -2.7620 h1        1 1HZ      0.089700
     48 H16         2.7050    6.6110   -0.6240 ho        1 1HZ      0.440000
     49 H17         0.8170    4.4650   -2.0320 h1        1 1HZ      0.108700
     50 H18         2.2020    4.5110    0.4270 ho        1 1HZ      0.429000
     51 H19         5.9130    6.1190   -3.1270 h5        1 1HZ      0.092800
     52 H20         6.5250    5.2640   -7.8690 hn        1 1HZ      0.464800
     53 H21         5.9440    4.1500   -9.0360 hn        1 1HZ      0.464800
     54 H22         3.0580    1.3910   -6.7100 h5        1 1HZ      0.077100
     55 H5'2        2.6850    0.4710   -2.6300 hn        1 1HZ      0.503800
@<TRIPOS>BOND
     1    1    2 2   
     2    2    3 2   
     3    2    4 1   
     4    2   14 1   
     5    4    5 1   
     6    4   33 1   
     7    4   34 1   
     8    5    6 1   
     9    5   35 1   
    10    5   36 1   
    11    6    7 ar  
    12    6   12 ar  
    13    7    8 ar  
    14    7   37 1   
    15    8    9 ar  
    16    8   38 1   
    17    9   10 ar  
    18    9   39 1   
    19   10   11 1   
    20   10   12 ar  
    21   11   40 1   
    22   12   13 1   
    23   13   41 1   
    24   14   15 1   
    25   14   42 1   
    26   14   55 1   
    27   15   16 1   
    28   15   43 1   
    29   15   44 1   
    30   16   17 1   
    31   16   21 1   
    32   16   45 1   
    33   17   18 1   
    34   18   19 1   
    35   18   23 1   
    36   18   46 1   
    37   19   20 1   
    38   19   21 1   
    39   19   47 1   
    40   20   48 1   
    41   21   22 1   
    42   21   49 1   
    43   22   50 1   
    44   23   24 1   
    45   23   32 1   
    46   24   25 2   
    47   24   51 1   
    48   25   26 1   
    49   26   27 ar  
    50   26   32 ar  
    51   27   28 1   
    52   27   29 ar  
    53   28   52 1   
    54   28   53 1   
    55   29   30 ar  
    56   30   31 ar  
    57   30   54 1   
    58   31   32 ar  
@<TRIPOS>SUBSTRUCTURE
     1 1HZ         1 TEMP              0 ****  ****    0 ROOT
