@<TRIPOS>MOLECULE
1HZ
   56    59     1     0     0
SMALL
bcc


@<TRIPOS>ATOM
      1 O1P         2.8360   -1.1270   -5.4070 o         1 1HZ     -0.563300
      2 S           1.9120   -1.2100   -4.3840 s6        1 1HZ      1.396900
      3 O2P         0.6250   -0.7480   -4.5600 o         1 1HZ     -0.563300
      4 C22         2.0640   -2.5660   -3.4590 c3        1 1HZ     -0.415600
      5 C21         1.1340   -2.6450   -2.2510 c3        1 1HZ      0.025900
      6 C19         1.7500   -3.3660   -1.1080 ca        1 1HZ     -0.112300
      7 C18         1.1340   -4.5100   -0.5860 ca        1 1HZ     -0.108000
      8 C17         1.6760   -5.1780    0.5110 ca        1 1HZ     -0.093000
      9 C16         2.8470   -4.7220    1.1130 ca        1 1HZ     -0.144000
     10 C15         3.4770   -3.5830    0.6030 ca        1 1HZ      0.078100
     11 O15         4.6350   -3.0460    1.1190 oh        1 1HZ     -0.520100
     12 C14         2.9320   -2.9040   -0.5070 ca        1 1HZ      0.080100
     13 O14         3.5510   -1.7820   -1.0360 oh        1 1HZ     -0.590100
     14 N5'         2.6320    0.0650   -3.1770 n4        1 1HZ     -0.712900
     15 C5'         1.8020    1.2840   -3.0790 c3        1 1HZ      0.110800
     16 C4'         2.4940    2.4340   -2.3420 c3        1 1HZ      0.078100
     17 O4'         3.6130    2.8590   -3.1280 os        1 1HZ     -0.441600
     18 C1'         3.7260    4.3000   -3.1170 c3        1 1HZ      0.249800
     19 C2'         2.4020    4.8720   -2.5110 c3        1 1HZ      0.080100
     20 O2'         2.7930    5.5610   -1.3450 oh        1 1HZ     -0.580800
     21 C3'         1.5490    3.6370   -2.1390 c3        1 1HZ      0.101100
     22 O3'         1.0540    3.6910   -0.8300 oh        1 1HZ     -0.558800
     23 N9          4.0210    4.7720   -4.4490 na        1 1HZ     -0.271000
     24 C8          3.1600    4.8780   -5.5680 cc        1 1HZ      0.493700
     25 N7          3.7520    5.3570   -6.6750 nd        1 1HZ     -0.558100
     26 C5          5.0840    5.5800   -6.3050 ca        1 1HZ     -0.142200
     27 C6          6.2200    6.0820   -6.9700 ca        1 1HZ      0.540200
     28 N6          6.0920    6.5110   -8.3750 n4        1 1HZ     -0.819300
     29 N1          7.4200    6.1890   -6.3490 nb        1 1HZ     -0.666000
     30 C2          7.4790    5.7950   -5.0430 ca        1 1HZ      0.689900
     31 N3          6.4830    5.3040   -4.2610 nb        1 1HZ     -0.620000
     32 C4          5.2870    5.2000   -4.8910 ca        1 1HZ      0.470800
     33 H1          3.1230   -2.7440   -3.0870 h1        1 1HZ      0.188200
     34 H2          1.8780   -3.5040   -4.0740 h1        1 1HZ      0.188200
     35 H3          0.8590   -1.6060   -1.9150 hc        1 1HZ      0.066200
     36 H4          0.1770   -3.1530   -2.5540 hc        1 1HZ      0.066200
     37 H5          0.2050   -4.8850   -1.0440 ha        1 1HZ      0.154000
     38 H6          1.1730   -6.0760    0.9080 ha        1 1HZ      0.167000
     39 H7          3.2740   -5.2500    1.9810 ha        1 1HZ      0.165000
     40 H8          4.9150   -3.5900    1.8730 ho        1 1HZ      0.456000
     41 H9          4.3300   -1.5890   -0.4880 ho        1 1HZ      0.466000
     42 H10         2.7480   -0.3310   -2.2370 hn        1 1HZ      0.470800
     43 H11         0.8470    1.0300   -2.5290 hx        1 1HZ      0.117200
     44 H12         1.5380    1.6090   -4.1270 hx        1 1HZ      0.117200
     45 H13         2.8970    2.0890   -1.3470 h1        1 1HZ      0.095700
     46 H14         4.6080    4.5500   -2.4460 h2        1 1HZ      0.153700
     47 H15         1.8510    5.5450   -3.2180 h1        1 1HZ      0.083700
     48 H16         2.0750    6.1670   -1.1050 ho        1 1HZ      0.450000
     49 H17         0.6330    3.5610   -2.7890 h1        1 1HZ      0.108700
     50 H18         1.7750    3.9510   -0.2330 ho        1 1HZ      0.436000
     51 H19         2.0960    4.5990   -5.5060 h5        1 1HZ      0.099800
     52 H20         5.5230    7.3680   -8.4070 hn        1 1HZ      0.484467
     53 H21         5.6170    5.7690   -8.9060 hn        1 1HZ      0.484467
     54 H22         8.4820    5.8960   -4.5590 h5        1 1HZ      0.112100
     55 H5'2        3.5650    0.3400   -3.4980 hn        1 1HZ      0.470800
     56 H63         7.0160    6.7000   -8.7920 hn        1 1HZ      0.484467
@<TRIPOS>BOND
     1    1    2 2   
     2    2    3 2   
     3    2    4 1   
     4    2   14 1   
     5    4    5 1   
     6    4   33 1   
     7    4   34 1   
     8    5    6 1   
     9    5   35 1   
    10    5   36 1   
    11    6    7 ar  
    12    6   12 ar  
    13    7    8 ar  
    14    7   37 1   
    15    8    9 ar  
    16    8   38 1   
    17    9   10 ar  
    18    9   39 1   
    19   10   11 1   
    20   10   12 ar  
    21   11   40 1   
    22   12   13 1   
    23   13   41 1   
    24   14   15 1   
    25   14   42 1   
    26   14   55 1   
    27   15   16 1   
    28   15   43 1   
    29   15   44 1   
    30   16   17 1   
    31   16   21 1   
    32   16   45 1   
    33   17   18 1   
    34   18   19 1   
    35   18   23 1   
    36   18   46 1   
    37   19   20 1   
    38   19   21 1   
    39   19   47 1   
    40   20   48 1   
    41   21   22 1   
    42   21   49 1   
    43   22   50 1   
    44   23   24 1   
    45   23   32 1   
    46   24   25 2   
    47   24   51 1   
    48   25   26 1   
    49   26   27 ar  
    50   26   32 ar  
    51   27   28 1   
    52   27   29 ar  
    53   28   52 1   
    54   28   53 1   
    55   28   56 1   
    56   29   30 ar  
    57   30   31 ar  
    58   30   54 1   
    59   31   32 ar  
@<TRIPOS>SUBSTRUCTURE
     1 1HZ         1 TEMP              0 ****  ****    0 ROOT
