@<TRIPOS>MOLECULE
1HZ
   55    58     1     0     0
SMALL
bcc


@<TRIPOS>ATOM
      1 O1P         1.7100    0.1510   -5.7540 o         1 1HZ     -0.579800
      2 S           1.2200   -0.1370   -4.4870 s6        1 1HZ      1.390900
      3 O2P        -0.1040    0.1230   -4.1730 o         1 1HZ     -0.579800
      4 C22         1.7540   -1.6230   -3.9460 c3        1 1HZ     -0.388600
      5 C21         1.2220   -2.0390   -2.5810 c3        1 1HZ      0.020900
      6 C19         2.1800   -2.9040   -1.8450 ca        1 1HZ     -0.105300
      7 C18         1.8400   -4.2200   -1.5100 ca        1 1HZ     -0.112000
      8 C17         2.7210   -5.0260   -0.7920 ca        1 1HZ     -0.103000
      9 C16         3.9640   -4.5380   -0.3910 ca        1 1HZ     -0.152000
     10 C15         4.3210   -3.2270   -0.7190 ca        1 1HZ      0.070100
     11 O15         5.5210   -2.6470   -0.3740 oh        1 1HZ     -0.516100
     12 C14         3.4320   -2.4070   -1.4460 ca        1 1HZ      0.091100
     13 O14         3.7630   -1.1110   -1.7980 oh        1 1HZ     -0.569100
     14 N5'         2.1850    0.9520   -3.3990 n4        1 1HZ     -0.764900
     15 C5'         1.3870    2.0100   -2.7430 c3        1 1HZ      0.105800
     16 C4'         2.1510    2.7350   -1.6240 c3        1 1HZ      0.086100
     17 O4'         3.5370    2.8510   -1.9570 os        1 1HZ     -0.417600
     18 C1'         3.9430    4.2200   -2.1040 c3        1 1HZ      0.264800
     19 C2'         2.7110    5.1170   -1.7510 c3        1 1HZ      0.068100
     20 O2'         3.1080    5.8700   -0.6240 oh        1 1HZ     -0.589800
     21 C3'         1.5720    4.1430   -1.3780 c3        1 1HZ      0.097100
     22 O3'         1.1510    4.3030   -0.0480 oh        1 1HZ     -0.568800
     23 N9          4.5080    4.4770   -3.4020 na        1 1HZ     -0.306000
     24 C8          5.4150    5.5580   -3.6340 cc        1 1HZ      0.415700
     25 N7          5.8280    5.6420   -4.8990 nd        1 1HZ     -0.510100
     26 C5          5.1950    4.5820   -5.5670 ca        1 1HZ     -0.240200
     27 C6          5.2440    4.1520   -6.9360 ca        1 1HZ      0.788200
     28 N6          6.0050    4.8120   -7.8480 nh        1 1HZ     -0.925500
     29 N1          4.4930    3.0450   -7.3000 nb        1 1HZ     -0.775000
     30 C2          3.7700    2.4340   -6.3430 ca        1 1HZ      0.712900
     31 N3          3.6390    2.7320   -5.0190 nb        1 1HZ     -0.872000
     32 C4          4.3590    3.8280   -4.6380 ca        1 1HZ      0.498800
     33 H1          1.4690   -2.4360   -4.6810 h1        1 1HZ      0.170200
     34 H2          2.8840   -1.7060   -3.9170 h1        1 1HZ      0.170200
     35 H3          1.0180   -1.1230   -1.9590 hc        1 1HZ      0.065700
     36 H4          0.2410   -2.5730   -2.7120 hc        1 1HZ      0.065700
     37 H5          0.8600   -4.6220   -1.8150 ha        1 1HZ      0.150000
     38 H6          2.4340   -6.0580   -0.5360 ha        1 1HZ      0.158000
     39 H7          4.6590   -5.1740    0.1770 ha        1 1HZ      0.156000
     40 H8          6.0320   -3.2900    0.1400 ho        1 1HZ      0.448000
     41 H9          4.6160   -0.8970   -1.3840 ho        1 1HZ      0.464000
     42 H10         2.9230    1.4800   -3.9690 hn        1 1HZ      0.503800
     43 H11         0.4550    1.5540   -2.2950 hx        1 1HZ      0.110700
     44 H12         1.0770    2.7450   -3.5420 hx        1 1HZ      0.110700
     45 H13         2.1240    2.1180   -0.6810 h1        1 1HZ      0.102700
     46 H14         4.7650    4.3760   -1.3350 h2        1 1HZ      0.122700
     47 H15         2.4050    5.7910   -2.5930 h1        1 1HZ      0.089700
     48 H16         2.3910    6.4890   -0.4230 ho        1 1HZ      0.440000
     49 H17         0.6470    4.3300   -1.9900 h1        1 1HZ      0.108700
     50 H18         1.9370    4.3280    0.5220 ho        1 1HZ      0.429000
     51 H19         5.7110    6.2280   -2.8150 h5        1 1HZ      0.092800
     52 H20         6.0390    4.5170   -8.7950 hn        1 1HZ      0.464800
     53 H21         6.5320    5.6020   -7.5610 hn        1 1HZ      0.464800
     54 H22         3.1830    1.5520   -6.6980 h5        1 1HZ      0.077100
     55 H5'2        2.7020    0.4440   -2.6750 hn        1 1HZ      0.503800
@<TRIPOS>BOND
     1    1    2 2   
     2    2    3 2   
     3    2    4 1   
     4    2   14 1   
     5    4    5 1   
     6    4   33 1   
     7    4   34 1   
     8    5    6 1   
     9    5   35 1   
    10    5   36 1   
    11    6    7 ar  
    12    6   12 ar  
    13    7    8 ar  
    14    7   37 1   
    15    8    9 ar  
    16    8   38 1   
    17    9   10 ar  
    18    9   39 1   
    19   10   11 1   
    20   10   12 ar  
    21   11   40 1   
    22   12   13 1   
    23   13   41 1   
    24   14   15 1   
    25   14   42 1   
    26   14   55 1   
    27   15   16 1   
    28   15   43 1   
    29   15   44 1   
    30   16   17 1   
    31   16   21 1   
    32   16   45 1   
    33   17   18 1   
    34   18   19 1   
    35   18   23 1   
    36   18   46 1   
    37   19   20 1   
    38   19   21 1   
    39   19   47 1   
    40   20   48 1   
    41   21   22 1   
    42   21   49 1   
    43   22   50 1   
    44   23   24 1   
    45   23   32 1   
    46   24   25 2   
    47   24   51 1   
    48   25   26 1   
    49   26   27 ar  
    50   26   32 ar  
    51   27   28 1   
    52   27   29 ar  
    53   28   52 1   
    54   28   53 1   
    55   29   30 ar  
    56   30   31 ar  
    57   30   54 1   
    58   31   32 ar  
@<TRIPOS>SUBSTRUCTURE
     1 1HZ         1 TEMP              0 ****  ****    0 ROOT
