@<TRIPOS>MOLECULE
1HZ
   54    48     1     0     0
SMALL
bcc


@<TRIPOS>ATOM
      1 O1P        -1.0550   -3.8430    1.5040 o         1 1HZ     -0.933000
      2 S          -0.6890   -2.4640    1.5580 ss        1 1HZ      2.811000
      3 O2P        -1.9420   -1.8340    1.3040 o         1 1HZ     -0.933000
      4 C22        -0.0560   -2.0190    3.1820 c2        1 1HZ     -0.872000
      5 C21        -1.1400   -2.2730    4.2380 c3        1 1HZ     -0.083000
      6 C19        -0.6150   -1.8400    5.6370 c2        1 1HZ     -0.074000
      7 C18         0.3590   -2.5890    6.2700 c2        1 1HZ     -0.123000
      8 C17         0.9000   -2.1510    7.4800 c1        1 1HZ     -0.130000
      9 C16         0.4600   -0.9630    8.0480 c1        1 1HZ     -0.169000
     10 C15        -0.5150   -0.2120    7.4150 c1        1 1HZ     -0.005000
     11 O15        -0.8540    1.0680    7.9140 oh        1 1HZ     -0.271000
     12 C14        -1.0550   -0.6500    6.2060 c1        1 1HZ      0.073000
     13 O14        -2.0220    0.1080    5.5650 o         1 1HZ     -0.244000
     14 N5'         0.4260   -2.0900    0.3820 n2        1 1HZ     -0.886000
     15 C5'        -0.0220   -1.7390   -0.9590 c3        1 1HZ     -0.027000
     16 C4'         0.6070   -0.4080   -1.3750 c3        1 1HZ     -0.040000
     17 O4'         0.8020   -0.3840   -2.6600 os        1 1HZ     -0.265000
     18 C1'         0.5800    1.1220   -3.1140 c3        1 1HZ      0.139000
     19 C2'        -0.4290    1.5970   -2.3670 c3        1 1HZ     -0.026000
     20 O2'        -0.2150    3.0280   -2.0730 oh        1 1HZ     -0.325000
     21 C3'        -0.3840    0.7840   -1.0840 c3        1 1HZ      0.004000
     22 O3'         0.0740    1.5350   -0.0700 oh        1 1HZ     -0.308000
     23 N9          0.2350    1.1690   -4.4780 n3        1 1HZ     -0.210000
     24 C8         -0.4840    0.2580   -5.1700 c1        1 1HZ     -0.032000
     25 N7         -0.3650    0.5500   -6.5010 n2        1 1HZ     -0.117000
     26 C5          0.4310    1.6460   -6.6210 c1        1 1HZ     -0.236000
     27 C6          0.8960    2.3420   -7.7290 c1        1 1HZ      0.246000
     28 N6          0.7150    2.1070   -9.1420 n3        1 1HZ     -0.355000
     29 N1          1.7210    3.4040   -7.5650 n1        1 1HZ     -0.269000
     30 C2          2.0950    3.7900   -6.3110 c1        1 1HZ      0.029000
     31 N3          1.6360    3.1030   -5.2130 n1        1 1HZ     -0.234000
     32 C4          0.8030    2.0310   -5.3750 c1        1 1HZ      0.062000
     33 H1          0.1870   -1.0850    3.1870 ha        1 1HZ      0.167000
     34 H2          0.7280   -2.5590    3.3850 ha        1 1HZ      0.167000
     35 H3         -1.9360   -1.7580    4.0160 hc        1 1HZ      0.111500
     36 H4         -1.3620   -3.2230    4.2550 hc        1 1HZ      0.111500
     37 H5          0.6700   -3.4290    5.8700 ha        1 1HZ      0.140000
     38 H6          1.5760   -2.6720    7.9190 ha        1 1HZ      0.137000
     39 H7          0.8450   -0.6520    8.9110 ha        1 1HZ      0.135000
     40 H8         -1.1330    0.9940    8.7550 ho        1 1HZ      0.228000
     41 H9         -2.8030   -0.0270    5.9500 ho        1 1HZ      0.239000
     42 H10         1.3130   -2.1860    0.5530 hn        1 1HZ      0.242000
     43 H11         0.2550   -2.4440   -1.5930 h1        1 1HZ      0.110500
     44 H12        -0.9860   -1.6580   -0.9670 h1        1 1HZ      0.110500
     45 H13         1.4530   -0.2680   -0.9010 h1        1 1HZ      0.124000
     46 H14         1.3950    1.6450   -2.9540 h2        1 1HZ      0.144000
     47 H15        -1.2870    1.4660   -2.8260 h1        1 1HZ      0.133000
     48 H16        -1.0040    3.4250   -1.9410 ho        1 1HZ      0.233000
     49 H17        -1.2740    0.4380   -0.8730 h1        1 1HZ      0.155000
     50 H18        -0.5840    1.6640    0.5260 ho        1 1HZ      0.225000
     51 H19        -0.9520   -0.5220   -4.7880 DU        1 1HZ      0.211000
     52 H20         1.3930    2.3030   -9.7310 hn        1 1HZ      0.246000
     53 H21        -0.0880    1.8010   -9.4550 hn        1 1HZ      0.246000
     54 H22         2.6960    4.5640   -6.1930 ha        1 1HZ      0.188000
@<TRIPOS>BOND
     1    1    2 1   
     2    2    3 1   
     3    4    5 1   
     4    4   33 1   
     5    4   34 1   
     6    5    6 1   
     7    5   35 1   
     8    5   36 1   
     9    6    7 1   
    10    6   12 1   
    11    7    8 1   
    12    7   37 1   
    13    8   38 1   
    14    9   10 1   
    15    9   39 1   
    16   10   11 1   
    17   11   40 1   
    18   13   41 1   
    19   14   15 1   
    20   14   42 1   
    21   15   16 1   
    22   15   43 1   
    23   15   44 1   
    24   16   17 1   
    25   16   21 1   
    26   16   45 1   
    27   17   18 1   
    28   18   19 1   
    29   18   23 1   
    30   18   46 1   
    31   19   20 1   
    32   19   21 1   
    33   19   47 1   
    34   20   48 1   
    35   21   22 1   
    36   21   49 1   
    37   22   50 1   
    38   23   24 1   
    39   23   32 1   
    40   24   25 1   
    41   25   26 1   
    42   26   32 1   
    43   27   28 1   
    44   27   29 1   
    45   28   52 1   
    46   28   53 1   
    47   30   31 1   
    48   30   54 1   
@<TRIPOS>SUBSTRUCTURE
     1 1HZ         1 TEMP              0 ****  ****    0 ROOT
