@<TRIPOS>MOLECULE
1IG
   55    50     1     0     0
SMALL
bcc


@<TRIPOS>ATOM
      1 C1          3.1130   -1.1960    2.2620 c1        1 1IG      0.272800
      2 N1          4.4410   -1.3830    2.2870 n1        1 1IG     -0.631800
      3 C2          5.0840   -1.8620    1.1850 c1        1 1IG      0.573600
      4 N2          4.3780   -2.1510    0.0560 n1        1 1IG     -0.586800
      5 C3          3.0500   -1.9660    0.0290 c1        1 1IG      0.473700
      6 C4          2.4050   -1.4860    1.1320 c1        1 1IG     -0.286000
      7 N3          2.4370   -0.7510    3.4280 n3        1 1IG     -0.825400
      8 N4          6.4860   -2.0900    1.2240 n3        1 1IG     -0.794400
      9 C5          2.2630   -2.3190   -1.2130 c3        1 1IG     -0.085300
     10 C6          3.2190   -2.6810   -2.3300 c3        1 1IG     -0.079100
     11 C7          0.2440   -2.4990    1.6220 c1        1 1IG     -0.104500
     12 C8         -1.1570   -2.3910    1.7010 c1        1 1IG     -0.028500
     13 C9         -1.7810   -1.2240    1.3160 c1        1 1IG     -0.072900
     14 C10        -0.9870   -0.1000    0.8250 c1        1 1IG      0.091200
     15 C11         0.3870   -0.2090    0.7490 c1        1 1IG     -0.094500
     16 C12         1.0200   -1.4010    1.1430 c1        1 1IG      0.029000
     17 S1         -3.4350   -0.9680    1.5560 ss        1 1IG     -0.160200
     18 C14        -3.9640    0.4860    1.3620 c3        1 1IG     -0.053900
     19 C15        -3.2360    1.2080    0.3070 c         1 1IG      0.671100
     20 N5         -1.7720    1.2560    0.3820 n         1 1IG     -0.381600
     21 C16        -1.0620    2.3150   -0.2490 c3        1 1IG      0.052000
     22 C17        -1.7510    2.6820   -1.5470 c3        1 1IG      0.070000
     23 N6         -0.7720    2.9670   -2.5390 n         1 1IG     -0.565900
     24 C13        -1.1010    2.8460   -3.9140 c         1 1IG      0.651100
     25 C19        -0.0030    2.8210   -4.9550 c3        1 1IG     -0.174100
     26 C21        -5.4590    0.5070    1.1210 c3        1 1IG     -0.084100
     27 C20        -3.8780    1.2470    2.6650 c3        1 1IG     -0.084100
     28 O4         -3.8320    1.9670   -0.4300 o         1 1IG     -0.583100
     29 O1         -2.2650    2.7840   -4.2580 o         1 1IG     -0.613100
     30 HN31        2.8730   -0.7370    4.2310 hn        1 1IG      0.432800
     31 HN32        1.5620   -0.4940    3.3790 hn        1 1IG      0.432800
     32 HN41        6.9910   -1.7220    1.8920 hn        1 1IG      0.426800
     33 HN42        6.8830   -2.6050    0.5810 hn        1 1IG      0.426800
     34 H51         1.6790   -3.0810   -1.0230 hc        1 1IG      0.072700
     35 H52         1.7200   -1.5520   -1.4830 hc        1 1IG      0.072700
     36 H61         2.7480   -3.2160   -3.0020 hc        1 1IG      0.037033
     37 H62         3.5600   -1.8610   -2.7460 hc        1 1IG      0.037033
     38 H63         3.9670   -3.1980   -1.9650 hc        1 1IG      0.037033
     39 H7          0.6850   -3.3240    1.8990 ha        1 1IG      0.082500
     40 H8         -1.6870   -3.1430    2.0290 ha        1 1IG      0.086500
     41 H11         0.9180    0.5390    0.4160 ha        1 1IG      0.111500
     42 H161       -1.0450    3.0950    0.3440 h1        1 1IG      0.076700
     43 H162       -0.1450    2.0270   -0.4360 h1        1 1IG      0.076700
     44 H171       -2.3090    1.9330   -1.8440 h1        1 1IG      0.068700
     45 H172       -2.3130    3.4720   -1.4060 h1        1 1IG      0.068700
     46 HN6         0.0590    3.2460   -2.2920 hn        1 1IG      0.309500
     47 H191        0.0080    1.9460   -5.3970 hc        1 1IG      0.068033
     48 H192       -0.1670    3.5210   -5.6210 hc        1 1IG      0.068033
     49 H193        0.8620    2.9780   -4.5210 hc        1 1IG      0.068033
     50 H211       -5.9130    0.0280    1.8460 hc        1 1IG      0.057533
     51 H212       -5.7720    1.4350    1.0950 hc        1 1IG      0.057533
     52 H213       -5.6580    0.0700    0.2670 hc        1 1IG      0.057533
     53 H201       -4.4900    0.8480    3.3170 hc        1 1IG      0.057533
     54 H202       -2.9610    1.2030    3.0080 hc        1 1IG      0.057533
     55 H203       -4.1260    2.1810    2.5140 hc        1 1IG      0.057533
@<TRIPOS>BOND
     1    1    6 3   
     2    1    7 1   
     3    2    3 3   
     4    3    8 1   
     5    4    5 3   
     6    5    9 1   
     7    7   30 1   
     8    7   31 1   
     9    8   32 1   
    10    8   33 1   
    11    9   10 1   
    12    9   34 1   
    13    9   35 1   
    14   10   36 1   
    15   10   37 1   
    16   10   38 1   
    17   11   16 3   
    18   11   39 1   
    19   12   13 3   
    20   12   40 1   
    21   13   17 1   
    22   14   15 3   
    23   14   20 1   
    24   15   41 1   
    25   17   18 1   
    26   18   19 1   
    27   18   26 1   
    28   18   27 1   
    29   19   20 1   
    30   19   28 2   
    31   20   21 1   
    32   21   22 1   
    33   21   42 1   
    34   21   43 1   
    35   22   23 1   
    36   22   44 1   
    37   22   45 1   
    38   23   24 1   
    39   23   46 1   
    40   24   25 1   
    41   24   29 2   
    42   25   47 1   
    43   25   48 1   
    44   25   49 1   
    45   26   50 1   
    46   26   51 1   
    47   26   52 1   
    48   27   53 1   
    49   27   54 1   
    50   27   55 1   
@<TRIPOS>SUBSTRUCTURE
     1 1IG         1 TEMP              0 ****  ****    0 ROOT
