@<TRIPOS>MOLECULE
1IG
   56    58     1     0     0
SMALL
bcc


@<TRIPOS>ATOM
      1 C1          0.2110   -0.2140    0.2880 ca        1 1IG      0.706200
      2 N1          1.5710   -0.3130    0.3140 nb        1 1IG     -0.818000
      3 C2          2.1670   -0.3420    1.5660 ca        1 1IG      0.929900
      4 N2          1.4790   -0.3420    2.7790 nb        1 1IG     -0.774000
      5 C3          0.1400   -0.2590    2.7220 ca        1 1IG      0.538600
      6 C4         -0.5690   -0.1780    1.4930 cp        1 1IG     -0.432600
      7 N3         -0.4230   -0.0920   -0.9580 nv        1 1IG     -0.931500
      8 N4          3.5500   -0.3390    1.6150 nv        1 1IG     -0.936500
      9 C5         -0.6370   -0.2760    4.0130 c3        1 1IG     -0.138700
     10 C6          0.0880    0.3290    5.1870 c3        1 1IG     -0.086100
     11 C7         -2.8630   -1.0420    1.9450 ca        1 1IG     -0.117000
     12 C8         -4.2410   -0.8830    1.8900 ca        1 1IG     -0.078000
     13 C9         -4.8160    0.2500    1.3040 ca        1 1IG     -0.053100
     14 C10        -3.9750    1.2440    0.7570 ca        1 1IG      0.021600
     15 C11        -2.5780    1.0970    0.8520 ca        1 1IG     -0.148000
     16 C12        -2.0170   -0.0460    1.4340 cp        1 1IG      0.037000
     17 S1         -6.5000    0.3690    1.2530 ss        1 1IG     -0.107000
     18 C14        -6.7230    2.1370    1.3510 c3        1 1IG     -0.053900
     19 C15        -5.8170    2.8570    0.3680 c         1 1IG      0.723500
     20 N5         -4.5250    2.3880    0.1100 n         1 1IG     -0.387000
     21 C16        -3.8450    2.8750   -1.0680 c3        1 1IG      0.073000
     22 C17        -3.0220    4.1660   -0.8630 c3        1 1IG      0.088800
     23 N6         -3.8560    5.3160   -0.4120 ny        1 1IG     -0.680800
     24 C13        -3.1300    6.6350   -0.5600 c         1 1IG      0.550100
     25 C19        -3.2940    7.3260   -1.8690 c3        1 1IG     -0.186100
     26 C21        -8.1760    2.3580    0.9730 c3        1 1IG     -0.091100
     27 C20        -6.4500    2.6660    2.7460 c3        1 1IG     -0.091100
     28 O4         -6.1740    3.9120   -0.2050 o         1 1IG     -0.692500
     29 O1         -2.4990    7.0010    0.4180 o         1 1IG     -0.402100
     30 HN31        0.1390   -0.3250   -1.7500 hn        1 1IG      0.408300
     31 HN32       -1.3310   -0.5050   -0.9780 hn        1 1IG      0.408300
     32 HN41        4.0580   -0.5010    0.7790 hn        1 1IG      0.448300
     33 HN42        3.9940   -0.5270    2.4820 hn        1 1IG      0.448300
     34 H51        -0.8890   -1.3490    4.2370 hc        1 1IG      0.058200
     35 H52        -1.6050    0.2710    3.8530 hc        1 1IG      0.058200
     36 H61         0.4280    1.3670    4.9530 hc        1 1IG      0.046033
     37 H62         0.9840   -0.2780    5.4650 hc        1 1IG      0.046033
     38 H63        -0.5980    0.3700    6.0680 hc        1 1IG      0.046033
     39 H11        -1.8990    1.8740    0.4680 ha        1 1IG      0.138000
     40 H161       -4.6080    3.0610   -1.8820 h1        1 1IG      0.101700
     41 H162       -3.1150    2.0960   -1.4390 h1        1 1IG      0.101700
     42 H171       -2.2070    4.0060   -0.0990 hx        1 1IG      0.110200
     43 H172       -2.5510    4.4340   -1.8510 hx        1 1IG      0.110200
     44 HN6        -4.7390    5.3250   -0.9520 hn        1 1IG      0.475300
     45 H191       -3.0530    6.6460   -2.7250 hc        1 1IG      0.113367
     46 H192       -2.6000    8.2080   -1.8980 hc        1 1IG      0.113367
     47 H193       -4.3460    7.6960   -1.9800 hc        1 1IG      0.113367
     48 H211       -8.8400    1.8470    1.7130 hc        1 1IG      0.065867
     49 H212       -8.3840    1.9520   -0.0470 hc        1 1IG      0.065867
     50 H213       -8.4080    3.4510    0.9730 hc        1 1IG      0.065867
     51 H201       -7.1230    2.1560    3.4780 hc        1 1IG      0.065867
     52 H202       -6.6510    3.7650    2.7880 hc        1 1IG      0.065867
     53 H203       -5.3910    2.4760    3.0440 hc        1 1IG      0.065867
     54 H7         -2.4270   -1.9450    2.4030 ha        1 1IG      0.159000
     55 H621       -4.1130    5.1680    0.5740 hn        1 1IG      0.475300
     56 H8         -4.9020   -1.6580    2.3160 ha        1 1IG      0.162000
@<TRIPOS>BOND
     1    1    2 ar  
     2    1    6 ar  
     3    1    7 1   
     4    2    3 ar  
     5    3    4 ar  
     6    3    8 1   
     7    4    5 ar  
     8    5    6 ar  
     9    5    9 1   
    10    6   16 1   
    11    7   30 1   
    12    7   31 1   
    13    8   32 1   
    14    8   33 1   
    15    9   10 1   
    16    9   34 1   
    17    9   35 1   
    18   10   36 1   
    19   10   37 1   
    20   10   38 1   
    21   11   12 ar  
    22   11   16 ar  
    23   11   54 1   
    24   12   13 ar  
    25   12   56 1   
    26   13   14 ar  
    27   13   17 1   
    28   14   15 ar  
    29   14   20 1   
    30   15   16 ar  
    31   15   39 1   
    32   17   18 1   
    33   18   19 1   
    34   18   26 1   
    35   18   27 1   
    36   19   20 1   
    37   19   28 2   
    38   20   21 1   
    39   21   22 1   
    40   21   40 1   
    41   21   41 1   
    42   22   23 1   
    43   22   42 1   
    44   22   43 1   
    45   23   24 1   
    46   23   44 1   
    47   23   55 1   
    48   24   25 1   
    49   24   29 2   
    50   25   45 1   
    51   25   46 1   
    52   25   47 1   
    53   26   48 1   
    54   26   49 1   
    55   26   50 1   
    56   27   51 1   
    57   27   52 1   
    58   27   53 1   
@<TRIPOS>SUBSTRUCTURE
     1 1IG         1 TEMP              0 ****  ****    0 ROOT
