@<TRIPOS>MOLECULE
1IG
   56    58     1     0     0
SMALL
bcc


@<TRIPOS>ATOM
      1 C1          0.2140   -0.2070    0.2760 ca        1 1IG      0.706200
      2 N1          1.5730   -0.3090    0.3110 nb        1 1IG     -0.818000
      3 C2          2.1590   -0.3590    1.5670 ca        1 1IG      0.929900
      4 N2          1.4620   -0.3780    2.7750 nb        1 1IG     -0.774000
      5 C3          0.1230   -0.2920    2.7080 ca        1 1IG      0.538600
      6 C4         -0.5760   -0.1900    1.4750 cp        1 1IG     -0.432600
      7 N3         -0.4110   -0.0640   -0.9730 nh        1 1IG     -0.931500
      8 N4          3.5420   -0.3590    1.6260 nh        1 1IG     -0.936500
      9 C5         -0.6640   -0.3290    3.9920 c3        1 1IG     -0.138700
     10 C6          0.0530    0.2540    5.1820 c3        1 1IG     -0.086100
     11 C7         -2.8750   -1.0560    1.8950 ca        1 1IG     -0.117000
     12 C8         -4.2530   -0.8940    1.8320 ca        1 1IG     -0.078000
     13 C9         -4.8210    0.2500    1.2600 ca        1 1IG     -0.053100
     14 C10        -3.9740    1.2510    0.7360 ca        1 1IG      0.021600
     15 C11        -2.5780    1.0990    0.8390 ca        1 1IG     -0.148000
     16 C12        -2.0230   -0.0530    1.4070 cp        1 1IG      0.037000
     17 S1         -6.5040    0.3730    1.1980 ss        1 1IG     -0.107000
     18 C14        -6.7240    2.1400    1.3230 c3        1 1IG     -0.053900
     19 C15        -5.8090    2.8740    0.3590 c         1 1IG      0.723500
     20 N5         -4.5160    2.4070    0.1030 n         1 1IG     -0.387000
     21 C16        -3.8260    2.9120   -1.0610 c3        1 1IG      0.073000
     22 C17        -3.0030    4.1970   -0.8290 c3        1 1IG      0.088800
     23 N6         -3.8380    5.3420   -0.3670 n4        1 1IG     -0.680800
     24 C13        -3.1080    6.6610   -0.4870 c         1 1IG      0.550100
     25 C19        -3.2610    7.3730   -1.7860 c3        1 1IG     -0.186100
     26 C21        -8.1740    2.3700    0.9370 c3        1 1IG     -0.091100
     27 C20        -6.4620    2.6460    2.7280 c3        1 1IG     -0.091100
     28 O4         -6.1610    3.9390   -0.2000 o         1 1IG     -0.692500
     29 O1         -2.4860    7.0110    0.5020 o         1 1IG     -0.402100
     30 HN31       -1.3190   -0.4750   -1.0070 hn        1 1IG      0.408300
     31 HN32        0.1570   -0.2850   -1.7650 hn        1 1IG      0.408300
     32 HN41        4.0560   -0.5090    0.7920 hn        1 1IG      0.448300
     33 HN42        3.9780   -0.5630    2.4940 hn        1 1IG      0.448300
     34 H51        -0.9210   -1.4050    4.1960 hc        1 1IG      0.058200
     35 H52        -1.6300    0.2240    3.8340 hc        1 1IG      0.058200
     36 H61         0.3980    1.2940    4.9690 hc        1 1IG      0.046033
     37 H62         0.9450   -0.3610    5.4570 hc        1 1IG      0.046033
     38 H63        -0.6390    0.2810    6.0590 hc        1 1IG      0.046033
     39 H11        -1.8940    1.8810    0.4730 ha        1 1IG      0.138000
     40 H161       -3.0950    2.1370   -1.4390 h1        1 1IG      0.101700
     41 H162       -4.5820    3.1120   -1.8790 h1        1 1IG      0.101700
     42 H171       -2.1950    4.0240   -0.0610 hx        1 1IG      0.110200
     43 H172       -2.5230    4.4800   -1.8090 hx        1 1IG      0.110200
     44 HN6        -4.1040    5.1780    0.6150 hn        1 1IG      0.475300
     45 H191       -2.5660    8.2550   -1.7940 hc        1 1IG      0.113367
     46 H192       -4.3120    7.7460   -1.9000 hc        1 1IG      0.113367
     47 H193       -3.0120    6.7070   -2.6510 hc        1 1IG      0.113367
     48 H211       -8.8450    1.8480    1.6630 hc        1 1IG      0.065867
     49 H212       -8.3750    1.9810   -0.0910 hc        1 1IG      0.065867
     50 H213       -8.4050    3.4630    0.9530 hc        1 1IG      0.065867
     51 H201       -5.4050    2.4490    3.0310 hc        1 1IG      0.065867
     52 H202       -7.1420    2.1250    3.4470 hc        1 1IG      0.065867
     53 H203       -6.6600    3.7440    2.7870 hc        1 1IG      0.065867
     54 H7         -2.4450   -1.9670    2.3410 ha        1 1IG      0.159000
     55 H621       -4.7170    5.3610   -0.9130 hn        1 1IG      0.475300
     56 H8         -4.9180   -1.6740    2.2400 ha        1 1IG      0.162000
@<TRIPOS>BOND
     1    1    2 ar  
     2    1    6 ar  
     3    1    7 1   
     4    2    3 ar  
     5    3    4 ar  
     6    3    8 1   
     7    4    5 ar  
     8    5    6 ar  
     9    5    9 1   
    10    6   16 1   
    11    7   30 1   
    12    7   31 1   
    13    8   32 1   
    14    8   33 1   
    15    9   10 1   
    16    9   34 1   
    17    9   35 1   
    18   10   36 1   
    19   10   37 1   
    20   10   38 1   
    21   11   12 ar  
    22   11   16 ar  
    23   11   54 1   
    24   12   13 ar  
    25   12   56 1   
    26   13   14 ar  
    27   13   17 1   
    28   14   15 ar  
    29   14   20 1   
    30   15   16 ar  
    31   15   39 1   
    32   17   18 1   
    33   18   19 1   
    34   18   26 1   
    35   18   27 1   
    36   19   20 1   
    37   19   28 2   
    38   20   21 1   
    39   21   22 1   
    40   21   40 1   
    41   21   41 1   
    42   22   23 1   
    43   22   42 1   
    44   22   43 1   
    45   23   24 1   
    46   23   44 1   
    47   23   55 1   
    48   24   25 1   
    49   24   29 2   
    50   25   45 1   
    51   25   46 1   
    52   25   47 1   
    53   26   48 1   
    54   26   49 1   
    55   26   50 1   
    56   27   51 1   
    57   27   52 1   
    58   27   53 1   
@<TRIPOS>SUBSTRUCTURE
     1 1IG         1 TEMP              0 ****  ****    0 ROOT
