@<TRIPOS>MOLECULE
1IG
   55    57     1     0     0
SMALL
bcc


@<TRIPOS>ATOM
      1 C1          3.0700    0.3090   -0.8300 ca        1 1IG      0.724200
      2 N1          4.3780    0.6750   -0.6450 nb        1 1IG     -0.822000
      3 C2          5.0660    0.0340    0.3640 ca        1 1IG      0.902900
      4 N2          4.5180   -0.8770    1.2580 nb        1 1IG     -0.788000
      5 C3          3.2230   -1.2020    1.0730 ca        1 1IG      0.522600
      6 C4          2.4360   -0.6590    0.0270 cp        1 1IG     -0.401600
      7 N3          2.3930    0.8470   -1.9200 nh        1 1IG     -0.906500
      8 N4          6.4390    0.2910    0.4690 nh        1 1IG     -0.926500
      9 C5          2.5980   -2.1930    2.0210 c3        1 1IG     -0.137700
     10 C6          3.1600   -2.1580    3.4190 c3        1 1IG     -0.082100
     11 C7          0.7500   -2.4240   -0.4080 ca        1 1IG     -0.136000
     12 C8         -0.5710   -2.8320   -0.5290 ca        1 1IG     -0.086000
     13 C9         -1.6190   -1.9080   -0.4710 ca        1 1IG     -0.060100
     14 C10        -1.3260   -0.5320   -0.3230 ca        1 1IG      0.065600
     15 C11         0.0160   -0.1350   -0.1330 ca        1 1IG     -0.166000
     16 C12         1.0530   -1.0720   -0.1790 cp        1 1IG      0.033000
     17 S1         -3.2070   -2.4770   -0.5920 ss        1 1IG     -0.164000
     18 C14        -4.0870   -1.2460    0.3610 c3        1 1IG     -0.049900
     19 C15        -3.6880    0.1610   -0.0630 c         1 1IG      0.708500
     20 N5         -2.3570    0.4340   -0.3860 n         1 1IG     -0.374000
     21 C16        -2.0350    1.7400   -0.9230 c3        1 1IG      0.068000
     22 C17        -1.7340    2.8030    0.1650 c3        1 1IG      0.073000
     23 N6         -1.2240    4.0340   -0.3710 n         1 1IG     -0.567900
     24 C13         0.0040    4.1100   -0.9980 c         1 1IG      0.664100
     25 C19         0.4320    5.4530   -1.5350 c3        1 1IG     -0.176100
     26 C21        -5.5480   -1.4900    0.0390 c3        1 1IG     -0.085600
     27 C20        -3.8360   -1.4000    1.8470 c3        1 1IG     -0.085600
     28 O4         -4.5290    1.0790   -0.1180 o         1 1IG     -0.625500
     29 O1          0.7400    3.1040   -1.0950 o         1 1IG     -0.645100
     30 HN31        2.7910    1.6680   -2.3250 hn        1 1IG      0.419300
     31 HN32        1.4020    0.9020   -1.8130 hn        1 1IG      0.419300
     32 HN41        6.8660    0.0630    1.3360 hn        1 1IG      0.423300
     33 HN42        6.7720    1.1110    0.0180 hn        1 1IG      0.423300
     34 H51         2.7430   -3.2170    1.5810 hc        1 1IG      0.059200
     35 H52         1.4920   -1.9980    2.0640 hc        1 1IG      0.059200
     36 H61         3.1100   -1.1250    3.8410 hc        1 1IG      0.039033
     37 H62         2.5670   -2.8400    4.0770 hc        1 1IG      0.039033
     38 H63         4.2260   -2.4920    3.4350 hc        1 1IG      0.039033
     39 H8         -0.8070   -3.8990   -0.6690 ha        1 1IG      0.145000
     40 H11         0.2620    0.9260    0.0490 ha        1 1IG      0.161000
     41 H161       -1.1410    1.6400   -1.6040 h1        1 1IG      0.074200
     42 H162       -2.9140    2.0940   -1.5370 h1        1 1IG      0.074200
     43 H171       -2.6830    3.0230    0.7290 h1        1 1IG      0.066700
     44 H172       -0.9730    2.3930    0.8890 h1        1 1IG      0.066700
     45 HN6        -1.8470    4.8020   -0.4380 hn        1 1IG      0.315500
     46 H191        0.4790    6.2060   -0.7120 hc        1 1IG      0.069367
     47 H192        1.4470    5.3510   -1.9910 hc        1 1IG      0.069367
     48 H193       -0.2820    5.8090   -2.3160 hc        1 1IG      0.069367
     49 H211       -5.8490   -2.5110    0.3770 hc        1 1IG      0.057700
     50 H212       -6.1820   -0.7300    0.5610 hc        1 1IG      0.057700
     51 H213       -5.7270   -1.3980   -1.0600 hc        1 1IG      0.057700
     52 H201       -2.7510   -1.2690    2.0800 hc        1 1IG      0.057700
     53 H202       -4.4210   -0.6350    2.4150 hc        1 1IG      0.057700
     54 H203       -4.1550   -2.4160    2.1840 hc        1 1IG      0.057700
     55 H7          1.5640   -3.1600   -0.4760 ha        1 1IG      0.144000
@<TRIPOS>BOND
     1    1    2 ar  
     2    1    6 ar  
     3    1    7 1   
     4    2    3 ar  
     5    3    4 ar  
     6    3    8 1   
     7    4    5 ar  
     8    5    6 ar  
     9    5    9 1   
    10    6   16 1   
    11    7   30 1   
    12    7   31 1   
    13    8   32 1   
    14    8   33 1   
    15    9   10 1   
    16    9   34 1   
    17    9   35 1   
    18   10   36 1   
    19   10   37 1   
    20   10   38 1   
    21   11   12 ar  
    22   11   16 ar  
    23   11   55 1   
    24   12   13 ar  
    25   12   39 1   
    26   13   14 ar  
    27   13   17 1   
    28   14   15 ar  
    29   14   20 1   
    30   15   16 ar  
    31   15   40 1   
    32   17   18 1   
    33   18   19 1   
    34   18   26 1   
    35   18   27 1   
    36   19   20 1   
    37   19   28 2   
    38   20   21 1   
    39   21   22 1   
    40   21   41 1   
    41   21   42 1   
    42   22   23 1   
    43   22   43 1   
    44   22   44 1   
    45   23   24 1   
    46   23   45 1   
    47   24   25 1   
    48   24   29 2   
    49   25   46 1   
    50   25   47 1   
    51   25   48 1   
    52   26   49 1   
    53   26   50 1   
    54   26   51 1   
    55   27   52 1   
    56   27   53 1   
    57   27   54 1   
@<TRIPOS>SUBSTRUCTURE
     1 1IG         1 TEMP              0 ****  ****    0 ROOT
