@<TRIPOS>MOLECULE
1IG
   58    60     1     0     0
SMALL
bcc


@<TRIPOS>ATOM
      1 C1          0.1560   -1.5580    0.6550 ca        1 1IG      0.490200
      2 N1          1.4630   -1.8910    0.8970 nb        1 1IG     -0.663000
      3 C2          2.0500   -1.2150    1.9200 ca        1 1IG      0.746900
      4 N2          1.4670   -0.2450    2.7070 nb        1 1IG     -0.632000
      5 C3          0.1810    0.0660    2.4540 ca        1 1IG      0.533600
      6 C4         -0.5610   -0.5840    1.3960 cp        1 1IG     -0.117600
      7 N3         -0.4990   -2.2900   -0.4500 n4        1 1IG     -0.824300
      8 N4          3.4660   -1.5600    2.2420 n4        1 1IG     -0.815300
      9 C5         -0.4770    1.0900    3.3390 c3        1 1IG     -0.159700
     10 C6          0.0920    2.4710    3.1220 c3        1 1IG     -0.100100
     11 C7         -2.8800   -1.3920    1.2520 ca        1 1IG     -0.131000
     12 C8         -4.2340   -1.1620    1.1030 ca        1 1IG     -0.086000
     13 C9         -4.7330    0.1210    0.8050 ca        1 1IG     -0.022100
     14 C10        -3.8150    1.1920    0.6010 ca        1 1IG      0.038600
     15 C11        -2.4420    0.9580    0.8210 ca        1 1IG     -0.092000
     16 C12        -1.9680   -0.3240    1.1340 cp        1 1IG     -0.170000
     17 S1         -6.3840    0.2630    0.7200 ss        1 1IG      0.054000
     18 C14        -6.6460    1.9970    1.0210 c3        1 1IG     -0.078900
     19 C15        -5.6300    2.8630    0.3080 c         1 1IG      0.727500
     20 N5         -4.2830    2.4630    0.1780 n         1 1IG     -0.393000
     21 C16        -3.4650    3.2280   -0.7450 c3        1 1IG      0.073000
     22 C17        -2.8880    4.5510   -0.1970 c3        1 1IG      0.090800
     23 N6         -3.8230    5.7050   -0.2600 n4        1 1IG     -0.688800
     24 C13        -3.1750    7.0320    0.1390 c         1 1IG      0.566100
     25 C19        -3.9740    8.2430   -0.1880 c3        1 1IG     -0.193100
     26 C21        -8.0380    2.2540    0.4630 c3        1 1IG     -0.099100
     27 C20        -6.6110    2.3070    2.5060 c3        1 1IG     -0.099100
     28 O4         -5.9360    3.9790   -0.1540 o         1 1IG     -0.641500
     29 O1         -2.0830    6.9440    0.6710 o         1 1IG     -0.409100
     30 HN31       -1.4190   -1.8570   -0.6390 hn        1 1IG      0.493800
     31 HN32        0.0820   -2.2570   -1.3030 hn        1 1IG      0.493800
     32 HN41        3.5050   -1.9580    3.1960 hn        1 1IG      0.503133
     33 HN42        4.0410   -0.7030    2.2120 hn        1 1IG      0.503133
     34 H51        -0.3260    0.7910    4.4180 hc        1 1IG      0.106200
     35 H52        -1.5840    1.0860    3.1470 hc        1 1IG      0.106200
     36 H61         1.1820    2.5070    3.3660 hc        1 1IG      0.062033
     37 H62        -0.0510    2.8050    2.0670 hc        1 1IG      0.062033
     38 H63        -0.4330    3.1920    3.7990 hc        1 1IG      0.062033
     39 H11        -1.7180    1.7880    0.7490 ha        1 1IG      0.145000
     40 H161       -4.0790    3.4450   -1.6720 h1        1 1IG      0.092700
     41 H162       -2.5790    2.6090   -1.0670 h1        1 1IG      0.092700
     42 H171       -1.9850    4.8180   -0.8210 hx        1 1IG      0.113200
     43 H172       -2.5520    4.4390    0.8740 hx        1 1IG      0.113200
     44 HN6        -4.6260    5.5300    0.3670 hn        1 1IG      0.473800
     45 H191       -3.8480    8.5000   -1.2740 hc        1 1IG      0.128033
     46 H192       -5.0630    8.1140    0.0340 hc        1 1IG      0.128033
     47 H193       -3.5810    9.1030    0.4230 hc        1 1IG      0.128033
     48 H211       -8.7800    1.5920    0.9770 hc        1 1IG      0.079867
     49 H212       -8.3290    3.3200    0.6410 hc        1 1IG      0.079867
     50 H213       -8.0700    2.0600   -0.6370 hc        1 1IG      0.079867
     51 H201       -7.3590    1.6700    3.0430 hc        1 1IG      0.079867
     52 H202       -6.8800    3.3790    2.6810 hc        1 1IG      0.079867
     53 H203       -5.5990    2.1120    2.9340 hc        1 1IG      0.079867
     54 H7         -2.5350   -2.3950    1.5500 ha        1 1IG      0.145000
     55 H33        -0.6360   -3.2770   -0.1830 hn        1 1IG      0.493800
     56 H43         3.8400   -2.2480    1.5700 hn        1 1IG      0.503133
     57 H621       -4.2090    5.7880   -1.2090 hn        1 1IG      0.473800
     58 H8         -4.9540   -1.9910    1.2440 ha        1 1IG      0.194000
@<TRIPOS>BOND
     1    1    2 ar  
     2    1    6 ar  
     3    1    7 1   
     4    2    3 ar  
     5    3    4 ar  
     6    3    8 1   
     7    4    5 ar  
     8    5    6 ar  
     9    5    9 1   
    10    6   16 1   
    11    7   30 1   
    12    7   31 1   
    13    7   55 1   
    14    8   32 1   
    15    8   33 1   
    16    8   56 1   
    17    9   10 1   
    18    9   34 1   
    19    9   35 1   
    20   10   36 1   
    21   10   37 1   
    22   10   38 1   
    23   11   12 ar  
    24   11   16 ar  
    25   11   54 1   
    26   12   13 ar  
    27   12   58 1   
    28   13   14 ar  
    29   13   17 1   
    30   14   15 ar  
    31   14   20 1   
    32   15   16 ar  
    33   15   39 1   
    34   17   18 1   
    35   18   19 1   
    36   18   26 1   
    37   18   27 1   
    38   19   20 1   
    39   19   28 2   
    40   20   21 1   
    41   21   22 1   
    42   21   40 1   
    43   21   41 1   
    44   22   23 1   
    45   22   42 1   
    46   22   43 1   
    47   23   24 1   
    48   23   44 1   
    49   23   57 1   
    50   24   25 1   
    51   24   29 2   
    52   25   45 1   
    53   25   46 1   
    54   25   47 1   
    55   26   48 1   
    56   26   49 1   
    57   26   50 1   
    58   27   51 1   
    59   27   52 1   
    60   27   53 1   
@<TRIPOS>SUBSTRUCTURE
     1 1IG         1 TEMP              0 ****  ****    0 ROOT
