@<TRIPOS>MOLECULE
1IN
   96    93     1     0     0
SMALL
bcc


@<TRIPOS>ATOM
      1 C1         -3.3610    0.5300   -2.4810 c3        1 1IN     -0.037000
      2 C2         -1.8200    0.4690   -2.5740 c3        1 1IN     -0.057000
      3 C3         -1.2820    1.4970   -3.5780 c2        1 1IN      0.305000
      4 O4          5.9380    0.5490    4.2900 oh        1 1IN     -0.321000
      5 O5         -5.4140   -1.4050   -2.9350 o         1 1IN     -0.369000
      6 C7         -2.0170    2.0530   -7.3040 c3        1 1IN     -0.227000
      7 C8         -1.8290   -0.2610   -0.2560 c3        1 1IN     -0.099000
      8 C9         -3.3180   -0.2020   -0.2350 c3        1 1IN     -0.036000
      9 C10         0.2050    0.4400   -1.2600 c3        1 1IN     -0.108000
     10 C11         0.8210    0.8500    0.0960 c3        1 1IN      0.030000
     11 C12         2.1950    0.1540    0.2770 c3        1 1IN     -0.158000
     12 C13         2.5840    0.1640    1.7850 c3        1 1IN     -0.112000
     13 C14         1.6000   -0.6880    2.5720 c3        1 1IN     -0.120000
     14 C15         1.8650   -0.5090    4.1120 c2        1 1IN     -0.080000
     15 C16         2.3360   -1.5820    4.8680 c2        1 1IN     -0.125000
     16 C19         1.7360    0.8350    6.1100 c1        1 1IN     -0.127000
     17 C20         1.5650    0.6960    4.7310 c1        1 1IN     -0.129000
     18 C21         3.9760   -0.3930    1.9530 c2        1 1IN      0.306000
     19 C22         6.4820   -0.0260    2.1760 c3        1 1IN     -0.008000
     20 C24         7.8020    1.6930    3.0520 c3        1 1IN     -0.161000
     21 C27        -6.8200   -2.8510   -1.1720 c3        1 1IN     -0.114000
     22 C30         7.4780    0.6160    1.0230 c3        1 1IN     -0.118000
     23 C31        -4.9530   -1.3260   -1.8020 c1        1 1IN      0.295000
     24 C32        -8.4930   -2.9580    0.6870 c1        1 1IN     -0.089000
     25 C33        -9.1990   -3.6490    1.6360 c1        1 1IN     -0.127000
     26 C34        -8.8990   -4.9790    1.8910 c1        1 1IN     -0.127000
     27 C35        -7.2020   -4.9100    0.2560 c1        1 1IN     -0.072000
     28 N1         -3.8880   -0.3440   -1.5050 n2        1 1IN     -0.315000
     29 O1         -0.7320    2.4980   -3.1820 o         1 1IN     -0.357000
     30 N2         -1.5220    1.3110   -5.0200 n         1 1IN     -0.381000
     31 C4         -1.4510    2.4540   -5.9260 c3        1 1IN      0.088000
     32 C5         -2.2710    3.6110   -5.3550 c3        1 1IN     -0.227000
     33 C6         -0.0100    2.8870   -6.0800 c3        1 1IN     -0.227000
     34 N3         -1.2540    0.6360   -1.2160 n3        1 1IN     -0.241000
     35 O2         -0.0170    0.4730    1.1100 oh        1 1IN     -0.336000
     36 C17         2.5060   -1.4430    6.2450 c1        1 1IN     -0.133000
     37 C18         2.2060   -0.2370    6.8650 c1        1 1IN     -0.127000
     38 O3          4.1470   -1.5970    1.9980 o         1 1IN     -0.390000
     39 N4          5.1330    0.5190    2.0370 n         1 1IN     -0.364000
     40 C23         6.9910    0.3180    3.3350 c3        1 1IN      0.015000
     41 C25         7.8760    1.8230    1.4960 c3        1 1IN     -0.160000
     42 C29         6.7250    0.7850   -0.2790 c3        1 1IN     -0.203000
     43 C26        -5.5400   -2.1770   -0.6800 c3        1 1IN     -0.172000
     44 C28        -7.5010   -3.5750   -0.0020 c1        1 1IN     -0.127000
     45 N5         -7.9070   -5.5960    1.2020 n1        1 1IN     -0.135000
     46 H11A       -3.7370    0.2930   -3.3510 h1        1 1IN      0.121500
     47 H12        -3.6300    1.4520   -2.2600 h1        1 1IN      0.121500
     48 H2         -1.5140   -0.3740   -2.9800 h1        1 1IN      0.080000
     49 HO4         6.2030    0.2850    5.0950 ho        1 1IN      0.207000
     50 H71        -2.0690    2.8480   -7.8810 hc        1 1IN      0.085667
     51 H72        -2.9240    1.6670   -7.1900 hc        1 1IN      0.085667
     52 H73        -1.4310    1.3900   -7.7150 hc        1 1IN      0.085667
     53 H81        -1.4900   -0.0320    0.6340 h1        1 1IN      0.090500
     54 H82        -1.5510   -1.1790   -0.4730 h1        1 1IN      0.090500
     55 H91        -3.6560   -0.9200    0.3450 h1        1 1IN      0.102500
     56 H92        -3.5930    0.6590    0.1370 h1        1 1IN      0.102500
     57 H101        0.3990   -0.4910   -1.4340 h1        1 1IN      0.090500
     58 H102        0.5860    0.9900   -1.9710 h1        1 1IN      0.090500
     59 H11         0.9400    1.8100    0.1190 h1        1 1IN      0.087000
     60 H121        2.8860    0.6420   -0.2480 hc        1 1IN      0.100500
     61 H122        2.1370   -0.7840   -0.0460 hc        1 1IN      0.100500
     62 H13         2.5590    1.0680    2.1150 hc        1 1IN      0.123000
     63 H141        1.7170   -1.6430    2.3250 hc        1 1IN      0.102500
     64 H142        0.6920   -0.4100    2.3650 hc        1 1IN      0.102500
     65 H16         2.5470   -2.4360    4.4300 ha        1 1IN      0.139000
     66 H19         1.5210    1.6980    6.5530 ha        1 1IN      0.142000
     67 H20         1.2350    1.4470    4.2020 ha        1 1IN      0.133000
     68 H22         6.4610   -0.9940    2.0960 h1        1 1IN      0.123000
     69 H241        7.3160    2.4610    3.4360 hc        1 1IN      0.096500
     70 H242        8.7050    1.6370    3.4310 hc        1 1IN      0.096500
     71 H271       -7.4290   -2.1720   -1.5360 hc        1 1IN      0.109500
     72 H272       -6.5980   -3.4970   -1.8710 hc        1 1IN      0.109500
     73 H30         8.2530    0.0370    0.8880 hc        1 1IN      0.092000
     74 H32        -8.7050   -2.0140    0.5040 ha        1 1IN      0.140000
     75 H33        -9.9150   -3.2040    2.1340 ha        1 1IN      0.142000
     76 H34        -9.4070   -5.4760    2.5750 ha        1 1IN      0.142000
     77 H35        -6.4790   -5.3610   -0.2450 ha        1 1IN      0.157000
     78 HN2        -1.6940    0.4660   -5.3540 hn        1 1IN      0.226000
     79 H51        -3.1350    3.2770   -5.0450 hc        1 1IN      0.085667
     80 H52        -2.4140    4.3010   -6.0660 hc        1 1IN      0.085667
     81 H53        -1.7930    4.0080   -4.6120 hc        1 1IN      0.085667
     82 H61         0.5630    2.0970   -6.1390 hc        1 1IN      0.085667
     83 H62         0.2540    3.4250   -5.3040 hc        1 1IN      0.085667
     84 H63         0.0860    3.4240   -6.8990 hc        1 1IN      0.085667
     85 HO2        -0.2360    1.1910    1.5980 ho        1 1IN      0.225000
     86 H17         2.8370   -2.1980    6.7770 ha        1 1IN      0.132000
     87 H18         2.3260   -0.1390    7.8350 ha        1 1IN      0.142000
     88 HN4         5.0040    1.4240    2.0200 hn        1 1IN      0.238000
     89 H23         7.6000   -0.3760    3.6600 h1        1 1IN      0.079000
     90 H251        7.2680    2.5310    1.1830 hc        1 1IN      0.086000
     91 H252        8.7960    2.0140    1.2140 hc        1 1IN      0.086000
     92 H291        6.3350   -0.0670   -0.5410 hc        1 1IN      0.078667
     93 H292        7.3380    1.0870   -0.9720 hc        1 1IN      0.078667
     94 H293        6.0090    1.4510   -0.1600 hc        1 1IN      0.078667
     95 H261       -4.8960   -2.8550   -0.4170 hc        1 1IN      0.109000
     96 H262       -5.7440   -1.6140    0.0800 hc        1 1IN      0.109000
@<TRIPOS>BOND
     1    1    2 1   
     2    1   28 1   
     3    1   46 1   
     4    1   47 1   
     5    2    3 1   
     6    2   34 1   
     7    2   48 1   
     8    3   29 1   
     9    3   30 1   
    10    4   40 1   
    11    4   49 1   
    12    5   23 1   
    13    6   31 1   
    14    6   50 1   
    15    6   51 1   
    16    6   52 1   
    17    7    8 1   
    18    7   34 1   
    19    7   53 1   
    20    7   54 1   
    21    8   28 1   
    22    8   55 1   
    23    8   56 1   
    24    9   10 1   
    25    9   34 1   
    26    9   57 1   
    27    9   58 1   
    28   10   11 1   
    29   10   35 1   
    30   10   59 1   
    31   11   12 1   
    32   11   60 1   
    33   11   61 1   
    34   12   13 1   
    35   12   18 1   
    36   12   62 1   
    37   13   14 1   
    38   13   63 1   
    39   13   64 1   
    40   14   15 1   
    41   14   17 1   
    42   15   36 1   
    43   15   65 1   
    44   16   37 1   
    45   16   66 1   
    46   17   67 1   
    47   18   38 1   
    48   18   39 1   
    49   19   22 1   
    50   19   39 1   
    51   19   40 1   
    52   19   68 1   
    53   20   40 1   
    54   20   41 1   
    55   20   69 1   
    56   20   70 1   
    57   21   43 1   
    58   21   44 1   
    59   21   71 1   
    60   21   72 1   
    61   22   41 1   
    62   22   42 1   
    63   22   73 1   
    64   23   43 1   
    65   24   44 1   
    66   24   74 1   
    67   25   26 1   
    68   25   75 1   
    69   26   76 1   
    70   27   45 1   
    71   27   77 1   
    72   30   31 1   
    73   30   78 1   
    74   31   32 1   
    75   31   33 1   
    76   32   79 1   
    77   32   80 1   
    78   32   81 1   
    79   33   82 1   
    80   33   83 1   
    81   33   84 1   
    82   35   85 1   
    83   36   86 1   
    84   37   87 1   
    85   39   88 1   
    86   40   89 1   
    87   41   90 1   
    88   41   91 1   
    89   42   92 1   
    90   42   93 1   
    91   42   94 1   
    92   43   95 1   
    93   43   96 1   
@<TRIPOS>SUBSTRUCTURE
     1 1IN         1 TEMP              0 ****  ****    0 ROOT
