@<TRIPOS>MOLECULE
1IN
   98    96     1     0     0
SMALL
bcc


@<TRIPOS>ATOM
      1 C1         -0.9670    0.1240   -0.1690 c2        1 1IN      0.119000
      2 C2         -1.6480    1.0780   -0.8740 c2        1 1IN     -0.407000
      3 C3         -1.0440    2.0090   -1.7930 c2        1 1IN      0.332000
      4 O4         10.2960    2.6440    8.1970 oh        1 1IN     -0.344000
      5 O5          0.4980   -1.6620    1.2660 o         1 1IN     -0.393000
      6 C7          1.0990    0.6150   -4.6750 c3        1 1IN     -0.244000
      7 C8          2.9730   -2.6280   -0.7350 c1        1 1IN     -0.233000
      8 C9          3.7300   -2.8260   -1.6410 c1        1 1IN     -0.233000
      9 C11         4.0740    0.2070    1.1610 c3        1 1IN     -0.062000
     10 C12         9.9470    0.2230    3.7380 c2        1 1IN     -0.095000
     11 C13         8.7070    0.4980    4.1570 c2        1 1IN     -0.196000
     12 C14         7.8330   -0.4720    4.8810 c3        1 1IN     -0.127000
     13 C15         7.4710   -0.0200    6.2860 c3        1 1IN     -0.082000
     14 C16         6.2230   -0.7680    6.7720 c2        1 1IN     -0.220000
     15 C19         7.9650   -1.1700    8.2990 cu        1 1IN     -0.167000
     16 C20         8.6270   -0.3080    7.3280 c3        1 1IN     -0.070000
     17 C21         8.0860    1.8170    3.8960 c2        1 1IN      0.352000
     18 C22         9.4930    4.0850    6.4410 cx        1 1IN     -0.156000
     19 C24        10.2860    5.0560    8.5990 c3        1 1IN     -0.249000
     20 C27        -2.6050   -4.8080    1.2820 c1        1 1IN     -0.114000
     21 C30        10.6220    3.7730    5.4830 cx        1 1IN     -0.129000
     22 C32        -4.6580   -4.2630    2.4920 c2        1 1IN     -0.135000
     23 C33        -5.9670   -4.0660    2.3400 c2        1 1IN     -0.192000
     24 C34        -6.3620   -7.6630    2.4520 c1        1 1IN      0.300000
     25 C35        -4.2540   -6.5480    1.5560 c2        1 1IN      0.214000
     26 N1         -1.5190   -0.7230    0.7400 n         1 1IN     -0.312000
     27 O1         -1.4130    3.1510   -2.0470 o         1 1IN     -0.216000
     28 N2          0.1880    1.5400   -2.5540 n4        1 1IN     -0.114000
     29 C4         -0.0170    1.4720   -4.0670 c3        1 1IN      0.001000
     30 C5         -1.3690    0.8350   -4.3930 c3        1 1IN     -0.244000
     31 C6          0.0480    2.8770   -4.6720 c3        1 1IN     -0.244000
     32 N3          2.7670    0.7020   -0.9590 n3        1 1IN     -0.384000
     33 O2          5.2030    1.0510    1.0040 oh        1 1IN     -0.375000
     34 C17         6.5380   -1.3920    7.9010 cu        1 1IN     -0.137000
     35 C18         7.1840   -1.9260    9.0660 cu        1 1IN      0.030000
     36 O3          8.4450    2.9510    4.5300 os        1 1IN     -0.156000
     37 N4          7.1040    1.9950    3.0200 n3        1 1IN     -0.256000
     38 C23         9.6230    3.8680    7.9320 c3        1 1IN      0.048000
     39 C25         9.4270    2.8520    5.5720 cx        1 1IN     -0.076000
     40 C28        -3.8570   -5.2340    1.7520 c2        1 1IN     -0.201000
     41 N5         -5.3750   -7.1340    2.0280 n2        1 1IN     -0.369000
     42 H11A       -2.7280    1.2590   -0.7260 ha        1 1IN      0.197000
     43 H12         0.1370   -0.0020   -0.2710 h4        1 1IN      0.163000
     44 H2          3.5120    1.2360   -1.3650 hn        1 1IN      0.151500
     45 H71         2.1060    1.0440   -4.4540 hc        1 1IN      0.113667
     46 H72         1.0540   -0.4370   -4.3030 hc        1 1IN      0.113667
     47 H73         0.9640    0.5980   -5.7850 hc        1 1IN      0.113667
     48 H81         2.2920   -2.4810    0.0730 ha        1 1IN      0.235000
     49 H82         2.8630   -0.2540   -1.2600 hn        1 1IN      0.151500
     50 H91        -2.5020   -0.7030    0.9090 hn        1 1IN      0.257000
     51 H92         4.4010   -3.0250   -2.4400 ha        1 1IN      0.235000
     52 H11         4.3030   -0.8250    0.7780 h1        1 1IN      0.107500
     53 H121       10.4080   -0.7620    3.9210 ha        1 1IN      0.156000
     54 H122       10.5780    0.9430    3.1950 ha        1 1IN      0.156000
     55 H13         3.9090    0.1660    2.2710 h1        1 1IN      0.107500
     56 H141        6.8880   -0.6220    4.2890 hc        1 1IN      0.114000
     57 H142        8.3480   -1.4700    4.9310 hc        1 1IN      0.114000
     58 H16         7.2580    1.0820    6.2870 hc        1 1IN      0.077000
     59 H19         8.9850    0.6450    7.7990 hc        1 1IN      0.123500
     60 H20         9.4950   -0.8170    6.8400 hc        1 1IN      0.123500
     61 H22         8.8440    4.9500    6.1950 hc        1 1IN      0.154000
     62 H241        9.6690    5.9740    8.4490 hc        1 1IN      0.100667
     63 H242       10.3860    4.8650    9.6950 hc        1 1IN      0.100667
     64 H271       -0.7130   -2.9330    3.1840 hc        1 1IN      0.167333
     65 H272       -2.0120   -5.4840    0.6500 ha        1 1IN      0.072000
     66 H30        11.5660    3.3670    5.9090 hc        1 1IN      0.145000
     67 H33        -6.5080   -3.3100    2.9260 ha        1 1IN      0.125500
     68 H34        -6.5900   -4.6270    1.6310 ha        1 1IN      0.125500
     69 H35        -3.5920   -7.2390    0.9810 h4        1 1IN      0.159000
     70 HN2         0.9600    2.1890   -2.3700 hn        1 1IN      0.246000
     71 H51        -2.2110    1.4600   -4.0060 hc        1 1IN      0.113667
     72 H52        -1.4460   -0.1950   -3.9700 hc        1 1IN      0.113667
     73 H53        -1.4690    0.7670   -5.5050 hc        1 1IN      0.113667
     74 H61         1.0470    3.3440   -4.5000 hc        1 1IN      0.113667
     75 H62        -0.7460    3.5390   -4.2450 hc        1 1IN      0.113667
     76 H63        -0.1180    2.7940   -5.7740 hc        1 1IN      0.113667
     77 HO2         5.4280    1.0700    0.0660 ho        1 1IN      0.211000
     78 H17         5.2860   -0.7210    6.2270 ha        1 1IN      0.153000
     79 H18         7.0410   -2.5340    9.9400 ha        1 1IN      0.222000
     80 HN4         6.6870    2.8940    2.8810 hn        1 1IN      0.289500
     81 H23         8.5870    3.7080    8.3560 h1        1 1IN      0.125000
     82 H251        9.5000    1.8400    6.0190 h1        1 1IN      0.179000
     83 H252       11.3020    5.2330    8.1730 hc        1 1IN      0.100667
     84 C10         2.8210    0.7750    0.4820 c3        1 1IN     -0.140000
     85 C31        -0.7270   -1.6430    1.4940 c2        1 1IN      0.355000
     86 C29        10.8430    4.6550    4.3060 c3        1 1IN     -0.202000
     87 C26        -1.4390   -2.5150    2.4490 c3        1 1IN     -0.390000
     88 H32        -4.0690   -3.6500    3.1990 ha        1 1IN      0.137000
     89 H291       11.4320    5.5550    4.6140 hc        1 1IN      0.095333
     90 H292        9.8750    5.0010    3.8680 hc        1 1IN      0.095333
     91 H293       11.4190    4.1130    3.5160 hc        1 1IN      0.095333
     92 H261       -1.9310   -3.4460    1.8620 hc        1 1IN      0.167333
     93 H262       -2.2660   -1.9960    2.9840 hc        1 1IN      0.167333
     94 H221        0.4620    0.6090   -2.2310 hn        1 1IN      0.246000
     95 H42         6.7360    1.2240    2.4910 hn        1 1IN      0.289500
     96 HO4        11.2300    2.8380    8.3460 ho        1 1IN      0.217000
     97 H101        2.7100    1.8550    0.7840 h1        1 1IN      0.118000
     98 H102        1.9400    0.1940    0.8920 h1        1 1IN      0.118000
@<TRIPOS>BOND
     1    1    2 1   
     2    1   26 1   
     3    1   43 1   
     4    2    3 1   
     5    2   42 1   
     6    3   27 1   
     7    3   28 1   
     8    4   38 1   
     9    4   96 1   
    10    5   85 1   
    11    6   29 1   
    12    6   45 1   
    13    6   46 1   
    14    6   47 1   
    15    7    8 1   
    16    7   48 1   
    17    8   51 1   
    18    9   33 1   
    19    9   52 1   
    20    9   55 1   
    21    9   84 1   
    22   10   11 1   
    23   10   53 1   
    24   10   54 1   
    25   11   12 1   
    26   11   17 1   
    27   12   13 1   
    28   12   56 1   
    29   12   57 1   
    30   13   14 1   
    31   13   16 1   
    32   13   58 1   
    33   14   34 1   
    34   14   78 1   
    35   15   16 1   
    36   15   34 1   
    37   15   35 1   
    38   16   59 1   
    39   16   60 1   
    40   17   36 1   
    41   17   37 1   
    42   18   21 1   
    43   18   38 1   
    44   18   39 1   
    45   18   61 1   
    46   19   38 1   
    47   19   62 1   
    48   19   63 1   
    49   19   83 1   
    50   20   40 1   
    51   20   65 1   
    52   21   39 1   
    53   21   66 1   
    54   21   86 1   
    55   22   23 1   
    56   22   40 1   
    57   22   88 1   
    58   23   67 1   
    59   23   68 1   
    60   24   41 1   
    61   25   40 1   
    62   25   41 1   
    63   25   69 1   
    64   26   50 1   
    65   26   85 1   
    66   28   29 1   
    67   28   70 1   
    68   28   94 1   
    69   29   30 1   
    70   29   31 1   
    71   30   71 1   
    72   30   72 1   
    73   30   73 1   
    74   31   74 1   
    75   31   75 1   
    76   31   76 1   
    77   32   44 1   
    78   32   49 1   
    79   32   84 1   
    80   33   77 1   
    81   34   35 1   
    82   35   79 1   
    83   36   39 1   
    84   37   80 1   
    85   37   95 1   
    86   38   81 1   
    87   39   82 1   
    88   64   87 1   
    89   84   97 1   
    90   84   98 1   
    91   85   87 1   
    92   86   89 1   
    93   86   90 1   
    94   86   91 1   
    95   87   92 1   
    96   87   93 1   
@<TRIPOS>SUBSTRUCTURE
     1 1IN         1 TEMP              0 ****  ****    0 ROOT
