@<TRIPOS>MOLECULE
1IN
   96    99     1     0     0
SMALL
bcc


@<TRIPOS>ATOM
      1 C1          1.6980   -1.1980    3.0170 c3        1 1IN      0.079000
      2 C2          1.6420   -0.1440    1.8700 c3        1 1IN      0.089500
      3 C3          2.8450   -0.4700    0.9500 c         1 1IN      0.661100
      4 O4         -0.1320   -2.0170   -6.8510 oh        1 1IN     -0.596800
      5 O5          1.9190   -0.2910    5.5950 o         1 1IN     -0.609100
      6 C7          6.4810    0.3990    1.5260 c3        1 1IN     -0.109100
      7 C8         -0.7640   -0.0680    2.0990 c3        1 1IN      0.136800
      8 C9         -0.6990   -1.0930    3.2520 c3        1 1IN      0.079000
      9 C11        -0.9330    0.5620   -0.8500 c3        1 1IN      0.137100
     10 C12        -0.6550    1.2130   -2.2040 c3        1 1IN     -0.109400
     11 C13        -1.5330    0.6560   -3.3180 c3        1 1IN     -0.116700
     12 C14        -2.9420    1.2360   -3.2640 c3        1 1IN     -0.041100
     13 C15        -3.9130    0.4510   -4.0750 ca        1 1IN     -0.086300
     14 C16        -4.6560   -0.5800   -3.4880 ca        1 1IN     -0.123500
     15 C19        -5.0350    0.0340   -6.1810 ca        1 1IN     -0.132000
     16 C20        -4.1090    0.7530   -5.4280 ca        1 1IN     -0.123500
     17 C21        -0.8690    1.0090   -4.6530 c         1 1IN      0.659100
     18 C22         0.6470    0.2710   -6.4520 c3        1 1IN      0.109700
     19 C24         2.2690   -1.5390   -6.9460 c3        1 1IN     -0.120400
     20 C27         0.0040   -0.0290    7.5140 c3        1 1IN     -0.027100
     21 C30         2.0900    0.8530   -6.4310 c3        1 1IN     -0.075700
     22 C32        -1.8420   -0.9820    8.9320 ca        1 1IN     -0.093000
     23 C33        -2.9260   -0.7800    9.7860 ca        1 1IN     -0.243300
     24 C34        -3.2990    0.5400   10.0990 ca        1 1IN      0.392200
     25 C35        -1.6140    1.4120    8.7970 ca        1 1IN      0.397200
     26 N1          0.5780   -1.1090    3.9280 n         1 1IN     -0.456800
     27 O1          2.7310   -1.1160   -0.1070 o         1 1IN     -0.594100
     28 N2          4.0590    0.0160    1.3910 n         1 1IN     -0.571900
     29 C4          5.3370   -0.2680    0.7400 c3        1 1IN      0.125400
     30 C5          5.6290   -1.7770    0.6780 c3        1 1IN     -0.109100
     31 C6          5.3730    0.2810   -0.6960 c3        1 1IN     -0.109100
     32 N3          0.3540   -0.1780    1.1720 n3        1 1IN     -0.708600
     33 O2         -2.1140    1.0730   -0.2520 oh        1 1IN     -0.604800
     34 C17        -5.5810   -1.2980   -4.2440 ca        1 1IN     -0.132000
     35 C18        -5.7730   -0.9920   -5.5910 ca        1 1IN     -0.131000
     36 O3         -1.0950    2.0930   -5.2320 o         1 1IN     -0.623100
     37 N4          0.0520    0.1090   -5.1500 n         1 1IN     -0.540900
     38 C23         0.8420   -1.0640   -7.2370 c3        1 1IN      0.120100
     39 C25         3.0320   -0.3470   -6.3860 c3        1 1IN     -0.076400
     40 C28        -1.1620    0.1300    8.4170 ca        1 1IN     -0.199600
     41 N5         -2.6590    1.6230    9.6180 nb        1 1IN     -0.662000
     42 H11A        2.6600   -1.0580    3.5830 h1        1 1IN      0.081200
     43 H12         1.6860   -2.2280    2.5590 h1        1 1IN      0.081200
     44 H2          1.8040    0.8840    2.3220 h1        1 1IN      0.038700
     45 HO4         0.0820   -2.8320   -7.3220 ho        1 1IN      0.407000
     46 H71         7.4460    0.1780    1.0110 hc        1 1IN      0.046144
     47 H72         6.3450    1.5060    1.5670 hc        1 1IN      0.046144
     48 H73         6.5360    0.0010    2.5670 hc        1 1IN      0.046144
     49 H81        -0.8410    0.9710    2.5370 h1        1 1IN      0.053700
     50 H82        -1.7070   -0.2650    1.5140 h1        1 1IN      0.053700
     51 H91        -1.5350   -0.8630    3.9670 h1        1 1IN      0.062700
     52 H92        -0.8710   -2.1260    2.8320 h1        1 1IN      0.062700
     53 H101        1.2180    0.6530   -0.5360 h1        1 1IN      0.046200
     54 H102        0.2470    1.8450    0.4560 h1        1 1IN      0.046200
     55 H11        -1.1460   -0.5380   -0.9750 h1        1 1IN      0.098700
     56 H121        0.4210    1.0380   -2.4740 hc        1 1IN      0.061200
     57 H122       -0.8100    2.3210   -2.1290 hc        1 1IN      0.061200
     58 H13        -1.6060   -0.4630   -3.2080 hc        1 1IN      0.071700
     59 H141       -3.2760    1.2500   -2.1900 hc        1 1IN      0.071700
     60 H142       -2.9140    2.2980   -3.6310 hc        1 1IN      0.071700
     61 H16        -4.5100   -0.8200   -2.4240 ha        1 1IN      0.141500
     62 H19        -5.1820    0.2770   -7.2440 ha        1 1IN      0.129000
     63 H20        -3.5160    1.5600   -5.8910 ha        1 1IN      0.141500
     64 H22        -0.0130    0.9640   -7.0530 h1        1 1IN      0.082700
     65 H241        2.7490   -1.9220   -7.8800 hc        1 1IN      0.049200
     66 H242        2.2480   -2.3780   -6.2050 hc        1 1IN      0.049200
     67 H271        0.6820   -0.8370    7.9020 hc        1 1IN      0.069700
     68 H272        0.6120    0.9150    7.4850 hc        1 1IN      0.069700
     69 H30         2.2250    1.3790   -7.4180 hc        1 1IN      0.050700
     70 H33        -3.4790   -1.6290   10.2080 ha        1 1IN      0.144000
     71 H34        -4.1510    0.7440   10.7710 h4        1 1IN      0.023100
     72 H35        -1.1050    2.3200    8.4240 h4        1 1IN      0.023100
     73 HN2         4.1090    0.4310    2.2910 hn        1 1IN      0.312500
     74 H51         5.6780   -2.2140    1.7030 hc        1 1IN      0.046144
     75 H52         4.8340   -2.3010    0.0950 hc        1 1IN      0.046144
     76 H53         6.6110   -1.9380    0.1730 hc        1 1IN      0.046144
     77 H61         5.2210    1.3860   -0.7020 hc        1 1IN      0.046144
     78 H62         6.3680    0.0540   -1.1470 hc        1 1IN      0.046144
     79 H63         4.5770   -0.2000   -1.3150 hc        1 1IN      0.046144
     80 HO2        -2.0160    2.0300   -0.1780 ho        1 1IN      0.399000
     81 H17        -6.1610   -2.1060   -3.7760 ha        1 1IN      0.129000
     82 H18        -6.5030   -1.5580   -6.1860 ha        1 1IN      0.128000
     83 HN4         0.0900   -0.8050   -4.7600 hn        1 1IN      0.320500
     84 H23         0.7210   -0.8380   -8.3340 h1        1 1IN      0.042700
     85 H251        3.9550   -0.1440   -6.9830 hc        1 1IN      0.047700
     86 H252        3.3520   -0.5520   -5.3330 hc        1 1IN      0.047700
     87 C10         0.2810    0.7800    0.0800 c3        1 1IN      0.137800
     88 C31         0.7660   -0.5610    5.1980 c         1 1IN      0.650100
     89 C29         2.3470    1.8440   -5.3280 c3        1 1IN     -0.084100
     90 C26        -0.4360   -0.3830    6.1040 c3        1 1IN     -0.142400
     91 H32        -1.5180   -1.9990    8.6680 ha        1 1IN      0.139000
     92 H291        3.3260    2.3550   -5.4950 hc        1 1IN      0.040367
     93 H292        1.5350    2.6130   -5.3080 hc        1 1IN      0.040367
     94 H293        2.3820    1.3430   -4.3300 hc        1 1IN      0.040367
     95 H261       -1.0820    0.4380    5.6930 hc        1 1IN      0.069700
     96 H262       -1.0420   -1.3270    6.1270 hc        1 1IN      0.069700
@<TRIPOS>BOND
     1    1    2 1   
     2    1   26 1   
     3    1   42 1   
     4    1   43 1   
     5    2    3 1   
     6    2   32 1   
     7    2   44 1   
     8    3   27 2   
     9    3   28 1   
    10    4   38 1   
    11    4   45 1   
    12    5   88 2   
    13    6   29 1   
    14    6   46 1   
    15    6   47 1   
    16    6   48 1   
    17    7    8 1   
    18    7   32 1   
    19    7   49 1   
    20    7   50 1   
    21    8   26 1   
    22    8   51 1   
    23    8   52 1   
    24    9   10 1   
    25    9   33 1   
    26    9   55 1   
    27    9   87 1   
    28   10   11 1   
    29   10   56 1   
    30   10   57 1   
    31   11   12 1   
    32   11   17 1   
    33   11   58 1   
    34   12   13 1   
    35   12   59 1   
    36   12   60 1   
    37   13   14 ar  
    38   13   16 ar  
    39   14   34 ar  
    40   14   61 1   
    41   15   16 ar  
    42   15   35 ar  
    43   15   62 1   
    44   16   63 1   
    45   17   36 2   
    46   17   37 1   
    47   18   21 1   
    48   18   37 1   
    49   18   38 1   
    50   18   64 1   
    51   19   38 1   
    52   19   39 1   
    53   19   65 1   
    54   19   66 1   
    55   20   40 1   
    56   20   67 1   
    57   20   68 1   
    58   20   90 1   
    59   21   39 1   
    60   21   69 1   
    61   21   89 1   
    62   22   23 ar  
    63   22   40 ar  
    64   22   91 1   
    65   23   24 ar  
    66   23   70 1   
    67   24   41 ar  
    68   24   71 1   
    69   25   40 ar  
    70   25   41 ar  
    71   25   72 1   
    72   26   88 1   
    73   28   29 1   
    74   28   73 1   
    75   29   30 1   
    76   29   31 1   
    77   30   74 1   
    78   30   75 1   
    79   30   76 1   
    80   31   77 1   
    81   31   78 1   
    82   31   79 1   
    83   32   87 1   
    84   33   80 1   
    85   34   35 ar  
    86   34   81 1   
    87   35   82 1   
    88   37   83 1   
    89   38   84 1   
    90   39   85 1   
    91   39   86 1   
    92   53   87 1   
    93   54   87 1   
    94   88   90 1   
    95   89   92 1   
    96   89   93 1   
    97   89   94 1   
    98   90   95 1   
    99   90   96 1   
@<TRIPOS>SUBSTRUCTURE
     1 1IN         1 TEMP              0 ****  ****    0 ROOT
