@<TRIPOS>MOLECULE
1IP
   24    22     1     0     0
SMALL
bcc


@<TRIPOS>ATOM
      1 OAG        -0.8660    2.9750    3.5000 o         1 1IP     -0.893000
      2 PAP         0.6050    2.6610    3.3720 p4        1 1IP      1.544000
      3 OAH         1.2520    2.7160    4.7360 os        1 1IP     -1.218000
      4 OAE         1.2590    3.6740    2.4630 o         1 1IP     -0.941800
      5 CAJ         0.8100    0.9980    2.6720 c3        1 1IP     -0.367600
      6 CAM         0.2560    0.9720    1.2650 c         1 1IP      0.716100
      7 OAC        -0.0420    2.0100    0.7100 o         1 1IP     -0.776100
      8 N           0.1000   -0.2650    0.5870 n         1 1IP     -0.548900
      9 CA         -0.3730   -0.2860   -0.7510 c3        1 1IP      0.019700
     10 C          -1.8840   -0.2090   -0.7530 c         1 1IP      0.892600
     11 O1         -2.4670    0.6840   -1.4210 o         1 1IP     -0.874800
     12 O          -2.5570   -1.0400   -0.0900 o         1 1IP     -0.874800
     13 CB          0.0670   -1.5690   -1.4210 c3        1 1IP     -0.185400
     14 CG         -0.0970   -1.4370   -2.9200 c         1 1IP      0.664100
     15 OD1        -0.6840   -0.4810   -3.3850 o         1 1IP     -0.697100
     16 ND2         0.4480   -2.4230   -3.7820 n         1 1IP     -0.651000
     17 HAJ1        1.7600    0.7680    2.6530 hc        1 1IP      0.063200
     18 HAJ2        0.3290    0.3500    3.2250 hc        1 1IP      0.063200
     19 HN          0.3170   -1.0450    1.0070 hn        1 1IP      0.276500
     20 HA         -0.0070    0.4780   -1.2380 h1        1 1IP      0.060700
     21 HB1        -0.4820   -2.3110   -1.0970 hc        1 1IP      0.072200
     22 HB2         1.0060   -1.7410   -1.2100 hc        1 1IP      0.072200
     23 HD21        0.3640   -2.3340   -4.6880 hn        1 1IP      0.291500
     24 HD22        0.8880   -3.1440   -3.4320 hn        1 1IP      0.291500
@<TRIPOS>BOND
     1    1    2 1   
     2    2    4 2   
     3    2    5 1   
     4    5    6 1   
     5    5   17 1   
     6    5   18 1   
     7    6    7 2   
     8    6    8 1   
     9    8    9 1   
    10    8   19 1   
    11    9   10 1   
    12    9   13 1   
    13    9   20 1   
    14   10   11 1   
    15   10   12 1   
    16   13   14 1   
    17   13   21 1   
    18   13   22 1   
    19   14   15 2   
    20   14   16 1   
    21   16   23 1   
    22   16   24 1   
@<TRIPOS>SUBSTRUCTURE
     1 1IP         1 TEMP              0 ****  ****    0 ROOT
