@<TRIPOS>MOLECULE
1IP
   24    22     1     0     0
SMALL
bcc


@<TRIPOS>ATOM
      1 OAG         6.0570    4.1020   -2.9490 o         1 1IP     -1.203333
      2 PAP         6.5920    3.6120   -1.6530 p3        1 1IP      2.531000
      3 OAH         7.7530    2.6770   -1.7110 o         1 1IP     -1.203333
      4 OAE         6.5820    4.5590   -0.5020 o         1 1IP     -1.203333
      5 CAJ         5.0890    2.1060   -0.7420 c2        1 1IP     -0.785000
      6 CAM         3.8610    1.4940   -1.1220 c2        1 1IP      0.362000
      7 OAC         3.7860    0.5030   -1.9270 o         1 1IP     -0.583000
      8 N           2.6560    1.9190   -0.4920 n         1 1IP     -0.381000
      9 CA          1.3710    1.3800   -0.8550 c3        1 1IP     -0.045000
     10 C           0.2380    2.4330   -1.1080 c2        1 1IP      0.321000
     11 O1          0.2730    3.5610   -0.5420 o         1 1IP     -0.602500
     12 O          -0.7300    2.0630   -1.8430 o         1 1IP     -0.602500
     13 CB          0.7640    0.4810    0.2480 c3        1 1IP     -0.169000
     14 CG          1.5080   -0.7710    0.6420 c2        1 1IP      0.303000
     15 OD1         1.2790   -1.3340    1.7500 o         1 1IP     -0.504000
     16 ND2         2.3610   -1.3790   -0.2470 n         1 1IP     -0.405000
     17 HAJ1        5.0910    2.7870    0.1160 ha        1 1IP      0.108500
     18 HAJ2        5.9600    1.4440   -0.8500 ha        1 1IP      0.108500
     19 HN          2.6230    2.8840   -0.2450 hn        1 1IP      0.210000
     20 HA          1.4670    0.7720   -1.8020 h1        1 1IP      0.100000
     21 HB1        -0.2520    0.1610   -0.1120 hc        1 1IP      0.098500
     22 HB2         0.6280    1.0890    1.1810 hc        1 1IP      0.098500
     23 HD21        2.9900   -2.0470    0.1270 hn        1 1IP      0.224000
     24 HD22        2.7160   -0.8270   -1.0110 hn        1 1IP      0.224000
@<TRIPOS>BOND
     1    1    2 1   
     2    2    3 1   
     3    2    4 1   
     4    5    6 1   
     5    5   17 1   
     6    5   18 1   
     7    6    7 1   
     8    6    8 1   
     9    8    9 1   
    10    8   19 1   
    11    9   10 1   
    12    9   13 1   
    13    9   20 1   
    14   10   11 1   
    15   10   12 1   
    16   13   14 1   
    17   13   21 1   
    18   13   22 1   
    19   14   15 1   
    20   14   16 1   
    21   16   23 1   
    22   16   24 1   
@<TRIPOS>SUBSTRUCTURE
     1 1IP         1 TEMP              0 ****  ****    0 ROOT
