@<TRIPOS>MOLECULE
1IQ
   39    41     1     0     0
SMALL
bcc


@<TRIPOS>ATOM
      1 C5'         0.0030    0.1250   -0.0010 ca        1 1IQ     -0.135300
      2 C6'         1.3740   -0.2750   -0.0560 ca        1 1IQ      0.378600
      3 C7'         2.0260   -0.6390    1.1680 ca        1 1IQ     -0.158300
      4 C8'         1.3420   -0.6050    2.3550 ca        1 1IQ     -0.150000
      5 C9'        -0.0180   -0.2110    2.4000 ca        1 1IQ     -0.145000
      6 CA'        -0.6720    0.1450    1.2480 ca        1 1IQ     -0.110000
      7 N1'         2.0720   -0.3230   -1.2420 nb        1 1IQ     -0.650000
      8 C4'        -0.6330    0.4920   -1.2160 ca        1 1IQ     -0.093000
      9 C3'         0.0650    0.4640   -2.4040 ca        1 1IQ     -0.196900
     10 C2'         1.4330    0.0290   -2.3580 ca        1 1IQ      0.417000
     11 CB'        -0.6420    0.8980   -3.6830 c         1 1IQ      0.912200
     12 OC'        -1.5540    0.1580   -4.1270 o         1 1IQ     -0.808300
     13 OD'        -0.2910    2.0020   -4.1950 o         1 1IQ     -0.808300
     14 N3          2.8140   -1.1470   -4.0670 n2        1 1IQ     -0.602900
     15 C2          2.2120   -0.0580   -3.6290 ce        1 1IQ      0.396900
     16 N1          2.3810    1.1100   -4.4330 n         1 1IQ     -0.490400
     17 C5          3.0920    0.7120   -5.5820 c         1 1IQ      0.661500
     18 C4          3.4660   -0.8060   -5.3640 c3        1 1IQ      0.042200
     19 O6          3.3930    1.4350   -6.5380 o         1 1IQ     -0.615500
     20 C8          5.0030   -0.9340   -5.2840 c3        1 1IQ     -0.036700
     21 C7          2.8840   -1.6050   -6.5240 c3        1 1IQ     -0.076100
     22 C10         5.4320   -2.2710   -4.7130 c3        1 1IQ     -0.091600
     23 C9          5.6490   -0.7190   -6.6370 c3        1 1IQ     -0.091600
     24 H7'         3.0830   -0.9480    1.1350 ha        1 1IQ      0.139000
     25 H8'         1.8430   -0.8850    3.2930 ha        1 1IQ      0.118000
     26 H9'        -0.5370   -0.1960    3.3690 ha        1 1IQ      0.117000
     27 H10'       -1.7280    0.4530    1.2670 ha        1 1IQ      0.128000
     28 H4'        -1.6910    0.7970   -1.2080 ha        1 1IQ      0.148000
     29 HN1         1.6920    1.8430   -4.4280 hn        1 1IQ      0.390500
     30 H8          5.3690   -0.1230   -4.5900 hc        1 1IQ      0.052700
     31 H71         3.2280   -2.6660   -6.4740 hc        1 1IQ      0.047367
     32 H72         1.7670   -1.5910   -6.4970 hc        1 1IQ      0.047367
     33 H73         3.2210   -1.1510   -7.4870 hc        1 1IQ      0.047367
     34 H101        5.1380   -2.3600   -3.6390 hc        1 1IQ      0.035867
     35 H102        6.5420   -2.3720   -4.7850 hc        1 1IQ      0.035867
     36 H103        4.9630   -3.1120   -5.2770 hc        1 1IQ      0.035867
     37 H91         5.2500    0.2060   -7.1220 hc        1 1IQ      0.035867
     38 H92         5.4560   -1.5890   -7.3110 hc        1 1IQ      0.035867
     39 H93         6.7540   -0.6110   -6.5130 hc        1 1IQ      0.035867
@<TRIPOS>BOND
     1    1    2 ar  
     2    1    6 ar  
     3    1    8 ar  
     4    2    3 ar  
     5    2    7 ar  
     6    3    4 ar  
     7    3   24 1   
     8    4    5 ar  
     9    4   25 1   
    10    5    6 ar  
    11    5   26 1   
    12    6   27 1   
    13    7   10 ar  
    14    8    9 ar  
    15    8   28 1   
    16    9   10 ar  
    17    9   11 1   
    18   10   15 1   
    19   11   12 1   
    20   11   13 1   
    21   14   15 2   
    22   14   18 1   
    23   15   16 1   
    24   16   17 1   
    25   16   29 1   
    26   17   18 1   
    27   17   19 2   
    28   18   20 1   
    29   18   21 1   
    30   20   22 1   
    31   20   23 1   
    32   20   30 1   
    33   21   31 1   
    34   21   32 1   
    35   21   33 1   
    36   22   34 1   
    37   22   35 1   
    38   22   36 1   
    39   23   37 1   
    40   23   38 1   
    41   23   39 1   
@<TRIPOS>SUBSTRUCTURE
     1 1IQ         1 TEMP              0 ****  ****    0 ROOT
