@<TRIPOS>MOLECULE
1IQ
   39    41     1     0     0
SMALL
bcc


@<TRIPOS>ATOM
      1 C5'         0.0250    0.1580    0.0100 ca        1 1IQ     -0.135300
      2 C6'         1.3820   -0.2870   -0.0530 ca        1 1IQ      0.378600
      3 C7'         2.0230   -0.6920    1.1650 ca        1 1IQ     -0.158300
      4 C8'         1.3410   -0.6520    2.3530 ca        1 1IQ     -0.150000
      5 C9'        -0.0050   -0.2120    2.4050 ca        1 1IQ     -0.145000
      6 CA'        -0.6470    0.1830    1.2600 ca        1 1IQ     -0.110000
      7 N1'         2.0770   -0.3410   -1.2400 nb        1 1IQ     -0.650000
      8 C4'        -0.5990    0.5650   -1.1990 ca        1 1IQ     -0.093000
      9 C3'         0.0980    0.5300   -2.3880 ca        1 1IQ     -0.196900
     10 C2'         1.4500    0.0490   -2.3500 ca        1 1IQ      0.417000
     11 CB'        -0.5950    1.0080   -3.6600 c         1 1IQ      0.912200
     12 OC'        -1.5330    0.3060   -4.1140 o         1 1IQ     -0.808300
     13 OD'        -0.2080    2.1070   -4.1560 o         1 1IQ     -0.808300
     14 N3          2.7880   -1.1480   -4.0790 n2        1 1IQ     -0.602900
     15 C2          2.2240   -0.0450   -3.6230 ce        1 1IQ      0.396900
     16 N1          2.4330    1.1270   -4.4100 n         1 1IQ     -0.490400
     17 C5          3.1290    0.7230   -5.5660 c         1 1IQ      0.661500
     18 C4          3.4510   -0.8100   -5.3710 c3        1 1IQ      0.042200
     19 O6          3.4530    1.4490   -6.5120 o         1 1IQ     -0.615500
     20 C8          4.9820   -0.9930   -5.2950 c3        1 1IQ     -0.036700
     21 C7          2.8400   -1.5720   -6.5420 c3        1 1IQ     -0.076100
     22 C10         5.3650   -2.3520   -4.7440 c3        1 1IQ     -0.091600
     23 C9          5.6340   -0.7800   -6.6460 c3        1 1IQ     -0.091600
     24 H7'         3.0680   -1.0350    1.1260 ha        1 1IQ      0.139000
     25 H8'         1.8330   -0.9630    3.2860 ha        1 1IQ      0.118000
     26 H9'        -0.5220   -0.1950    3.3750 ha        1 1IQ      0.117000
     27 H10'       -1.6920    0.5260    1.2840 ha        1 1IQ      0.128000
     28 H4'        -1.6450    0.9050   -1.1840 ha        1 1IQ      0.148000
     29 HN1         1.7700    1.8830   -4.3930 hn        1 1IQ      0.390500
     30 H8          5.3760   -0.2050   -4.5890 hc        1 1IQ      0.052700
     31 H71         3.1480   -2.6440   -6.5090 hc        1 1IQ      0.047367
     32 H72         1.7240   -1.5200   -6.5130 hc        1 1IQ      0.047367
     33 H73         3.1920   -1.1150   -7.4980 hc        1 1IQ      0.047367
     34 H101        6.4710   -2.4900   -4.8190 hc        1 1IQ      0.035867
     35 H102        5.0700   -2.4460   -3.6720 hc        1 1IQ      0.035867
     36 H103        4.8670   -3.1680   -5.3200 hc        1 1IQ      0.035867
     37 H91         6.7420   -0.7120   -6.5220 hc        1 1IQ      0.035867
     38 H92         5.4110   -1.6320   -7.3320 hc        1 1IQ      0.035867
     39 H93         5.2670    0.1650   -7.1160 hc        1 1IQ      0.035867
@<TRIPOS>BOND
     1    1    2 ar  
     2    1    6 ar  
     3    1    8 ar  
     4    2    3 ar  
     5    2    7 ar  
     6    3    4 ar  
     7    3   24 1   
     8    4    5 ar  
     9    4   25 1   
    10    5    6 ar  
    11    5   26 1   
    12    6   27 1   
    13    7   10 ar  
    14    8    9 ar  
    15    8   28 1   
    16    9   10 ar  
    17    9   11 1   
    18   10   15 1   
    19   11   12 1   
    20   11   13 1   
    21   14   15 2   
    22   14   18 1   
    23   15   16 1   
    24   16   17 1   
    25   16   29 1   
    26   17   18 1   
    27   17   19 2   
    28   18   20 1   
    29   18   21 1   
    30   20   22 1   
    31   20   23 1   
    32   20   30 1   
    33   21   31 1   
    34   21   32 1   
    35   21   33 1   
    36   22   34 1   
    37   22   35 1   
    38   22   36 1   
    39   23   37 1   
    40   23   38 1   
    41   23   39 1   
@<TRIPOS>SUBSTRUCTURE
     1 1IQ         1 TEMP              0 ****  ****    0 ROOT
