@<TRIPOS>MOLECULE
1IQ
   39    41     1     0     0
SMALL
bcc


@<TRIPOS>ATOM
      1 C5'         0.0130    0.1350    0.0060 ca        1 1IQ     -0.135300
      2 C6'         1.3840   -0.2650   -0.0530 ca        1 1IQ      0.378600
      3 C7'         2.0410   -0.6280    1.1700 ca        1 1IQ     -0.158300
      4 C8'         1.3610   -0.5910    2.3590 ca        1 1IQ     -0.150000
      5 C9'         0.0010   -0.1970    2.4080 ca        1 1IQ     -0.145000
      6 CA'        -0.6570    0.1570    1.2580 ca        1 1IQ     -0.110000
      7 N1'         2.0790   -0.3150   -1.2410 nb        1 1IQ     -0.650000
      8 C4'        -0.6260    0.5000   -1.2070 ca        1 1IQ     -0.093000
      9 C3'         0.0680    0.4690   -2.3980 ca        1 1IQ     -0.196900
     10 C2'         1.4360    0.0350   -2.3560 ca        1 1IQ      0.417000
     11 CB'        -0.6440    0.9020   -3.6750 c         1 1IQ      0.912200
     12 OC'        -1.5580    0.1610   -4.1150 o         1 1IQ     -0.808300
     13 OD'        -0.2950    2.0040   -4.1900 o         1 1IQ     -0.808300
     14 N3          2.8110   -1.1440   -4.0680 n2        1 1IQ     -0.602900
     15 C2          2.2100   -0.0540   -3.6290 ce        1 1IQ      0.396900
     16 N1          2.3770    1.1110   -4.4360 ns        1 1IQ     -0.490400
     17 C5          3.0840    0.7120   -5.5870 c         1 1IQ      0.661500
     18 C4          3.4590   -0.8050   -5.3670 c3        1 1IQ      0.042200
     19 O6          3.3810    1.4330   -6.5450 o         1 1IQ     -0.615500
     20 C8          4.9950   -0.9340   -5.2920 c3        1 1IQ     -0.036700
     21 C7          2.8720   -1.6070   -6.5230 c3        1 1IQ     -0.076100
     22 C10         5.4260   -2.2690   -4.7200 c3        1 1IQ     -0.091600
     23 C9          5.6370   -0.7220   -6.6480 c3        1 1IQ     -0.091600
     24 H7'         3.0970   -0.9360    1.1330 ha        1 1IQ      0.139000
     25 H8'         1.8650   -0.8700    3.2950 ha        1 1IQ      0.118000
     26 H9'        -0.5150   -0.1810    3.3780 ha        1 1IQ      0.117000
     27 H10'       -1.7130    0.4650    1.2790 ha        1 1IQ      0.128000
     28 H4'        -1.6840    0.8040   -1.1960 ha        1 1IQ      0.148000
     29 HN1         1.6880    1.8450   -4.4300 hn        1 1IQ      0.390500
     30 H8          5.3640   -0.1220   -4.6010 hc        1 1IQ      0.052700
     31 H71         3.2170   -2.6670   -6.4730 hc        1 1IQ      0.047367
     32 H72         3.2070   -1.1540   -7.4880 hc        1 1IQ      0.047367
     33 H73         1.7550   -1.5930   -6.4930 hc        1 1IQ      0.047367
     34 H101        5.1370   -2.3560   -3.6450 hc        1 1IQ      0.035867
     35 H102        6.5370   -2.3710   -4.7960 hc        1 1IQ      0.035867
     36 H103        4.9550   -3.1120   -5.2800 hc        1 1IQ      0.035867
     37 H91         5.4420   -1.5920   -7.3190 hc        1 1IQ      0.035867
     38 H92         5.2360    0.2030   -7.1330 hc        1 1IQ      0.035867
     39 H93         6.7420   -0.6130   -6.5280 hc        1 1IQ      0.035867
@<TRIPOS>BOND
     1    1    2 ar  
     2    1    6 ar  
     3    1    8 ar  
     4    2    3 ar  
     5    2    7 ar  
     6    3    4 ar  
     7    3   24 1   
     8    4    5 ar  
     9    4   25 1   
    10    5    6 ar  
    11    5   26 1   
    12    6   27 1   
    13    7   10 ar  
    14    8    9 ar  
    15    8   28 1   
    16    9   10 ar  
    17    9   11 1   
    18   10   15 1   
    19   11   12 1   
    20   11   13 1   
    21   14   15 2   
    22   14   18 1   
    23   15   16 1   
    24   16   17 1   
    25   16   29 1   
    26   17   18 1   
    27   17   19 2   
    28   18   20 1   
    29   18   21 1   
    30   20   22 1   
    31   20   23 1   
    32   20   30 1   
    33   21   31 1   
    34   21   32 1   
    35   21   33 1   
    36   22   34 1   
    37   22   35 1   
    38   22   36 1   
    39   23   37 1   
    40   23   38 1   
    41   23   39 1   
@<TRIPOS>SUBSTRUCTURE
     1 1IQ         1 TEMP              0 ****  ****    0 ROOT
