@<TRIPOS>MOLECULE
1IR
   42    46     1     0     0
SMALL
bcc


@<TRIPOS>ATOM
      1 C01         0.6820   -0.5610   -0.8670 c3        1 1IR      0.125700
      2 O02         2.0610   -0.4600   -0.4800 os        1 1IR     -0.410400
      3 C03         2.2740   -0.2330    0.8610 cc        1 1IR      0.620100
      4 N04         1.3450   -0.1480    1.8470 nd        1 1IR     -0.611100
      5 C05         2.0970    0.0870    3.0120 ca        1 1IR     -0.009900
      6 C06         1.7230    0.2650    4.3490 ca        1 1IR     -0.048000
      7 C07         2.7380    0.4810    5.2740 ca        1 1IR     -0.259300
      8 C08         4.0900    0.5140    4.8570 ca        1 1IR      0.400200
      9 N09         4.5170    0.3510    3.5950 nb        1 1IR     -0.656000
     10 C10         3.5260    0.1410    2.6880 ca        1 1IR      0.401800
     11 N11         3.6170   -0.0610    1.2900 na        1 1IR     -0.257000
     12 C12         4.8130   -0.1230    0.5160 cy        1 1IR      0.048000
     13 C13         5.0580   -1.4200   -0.3200 cy        1 1IR     -0.116900
     14 C14         5.1620   -0.5680   -1.6230 cy        1 1IR      0.181500
     15 C15         4.8570    0.7220   -0.7950 cy        1 1IR     -0.116900
     16 N16         4.2350   -0.9500   -2.6570 nh        1 1IR     -0.755200
     17 C17         4.3980   -0.3680   -3.9140 cc        1 1IR      0.575100
     18 N18         3.4060   -0.0120   -4.7390 nd        1 1IR     -0.598100
     19 C19         3.9400    0.3930   -5.9680 ca        1 1IR      0.116400
     20 C20         3.1900    0.8240   -7.0810 ca        1 1IR     -0.090000
     21 C21         3.8580    1.2130   -8.2310 ca        1 1IR     -0.123000
     22 C22         5.2600    1.1830   -8.3040 ca        1 1IR     -0.133000
     23 C23         6.0170    0.7600   -7.2210 ca        1 1IR     -0.083000
     24 C24         5.3720    0.3610   -6.0510 ca        1 1IR     -0.098100
     25 S25         6.0240   -0.1980   -4.5950 ss        1 1IR     -0.073100
     26 H01         0.1410    0.3850   -0.6280 h1        1 1IR      0.062700
     27 H01A        0.2020   -1.4320   -0.3600 h1        1 1IR      0.062700
     28 H01B        0.7530   -0.7210   -1.9730 h1        1 1IR      0.062700
     29 H06         0.6650    0.2350    4.6470 ha        1 1IR      0.153000
     30 H07         2.5010    0.6270    6.3360 ha        1 1IR      0.145000
     31 H08         4.8930    0.6850    5.5970 h4        1 1IR      0.024100
     32 H12         5.6790    0.1080    1.1940 h1        1 1IR      0.103700
     33 H13         4.2170   -2.1470   -0.3050 hc        1 1IR      0.074950
     34 H13A        6.0060   -1.9340   -0.0580 hc        1 1IR      0.074950
     35 H14         6.2020   -0.5620   -2.0450 h1        1 1IR      0.076700
     36 H15         5.6830    1.4630   -0.8050 hc        1 1IR      0.074950
     37 H15A        3.8980    1.2190   -1.0570 hc        1 1IR      0.074950
     38 HN16        3.2820   -0.9870   -2.3350 hn        1 1IR      0.425800
     39 H20         2.0920    0.8480   -7.0270 ha        1 1IR      0.149000
     40 H21         3.2820    1.5510   -9.1060 ha        1 1IR      0.135000
     41 H22         5.7600    1.4980   -9.2310 ha        1 1IR      0.135000
     42 H23         7.1150    0.7370   -7.2820 ha        1 1IR      0.138000
@<TRIPOS>BOND
     1    1    2 1   
     2    1   26 1   
     3    1   27 1   
     4    1   28 1   
     5    2    3 1   
     6    3    4 2   
     7    3   11 1   
     8    4    5 1   
     9    5    6 ar  
    10    5   10 ar  
    11    6    7 ar  
    12    6   29 1   
    13    7    8 ar  
    14    7   30 1   
    15    8    9 ar  
    16    8   31 1   
    17    9   10 ar  
    18   10   11 1   
    19   11   12 1   
    20   12   13 1   
    21   12   15 1   
    22   12   32 1   
    23   13   14 1   
    24   13   33 1   
    25   13   34 1   
    26   14   15 1   
    27   14   16 1   
    28   14   35 1   
    29   15   36 1   
    30   15   37 1   
    31   16   17 1   
    32   16   38 1   
    33   17   18 2   
    34   17   25 1   
    35   18   19 1   
    36   19   20 ar  
    37   19   24 ar  
    38   20   21 ar  
    39   20   39 1   
    40   21   22 ar  
    41   21   40 1   
    42   22   23 ar  
    43   22   41 1   
    44   23   24 ar  
    45   23   42 1   
    46   24   25 1   
@<TRIPOS>SUBSTRUCTURE
     1 1IR         1 TEMP              0 ****  ****    0 ROOT
