@<TRIPOS>MOLECULE
1IR
   42    46     1     0     0
SMALL
bcc


@<TRIPOS>ATOM
      1 C01         0.6800   -0.5500   -0.8660 c3        1 1IR      0.125700
      2 O02         2.0590   -0.4520   -0.4790 os        1 1IR     -0.410400
      3 C03         2.2730   -0.2250    0.8610 cc        1 1IR      0.620100
      4 N04         1.3450   -0.1360    1.8480 nd        1 1IR     -0.611100
      5 C05         2.0980    0.0970    3.0120 ca        1 1IR     -0.009900
      6 C06         1.7240    0.2780    4.3490 ca        1 1IR     -0.048000
      7 C07         2.7400    0.4910    5.2730 ca        1 1IR     -0.259300
      8 C08         4.0920    0.5200    4.8560 ca        1 1IR      0.400200
      9 N09         4.5180    0.3540    3.5940 nb        1 1IR     -0.656000
     10 C10         3.5270    0.1470    2.6880 ca        1 1IR      0.401800
     11 N11         3.6170   -0.0570    1.2900 na        1 1IR     -0.257000
     12 C12         4.8130   -0.1240    0.5160 cy        1 1IR      0.048000
     13 C13         5.0530   -1.4230   -0.3180 cy        1 1IR     -0.116900
     14 C14         5.1590   -0.5720   -1.6220 cy        1 1IR      0.181500
     15 C15         4.8600    0.7200   -0.7960 cy        1 1IR     -0.116900
     16 N16         4.2310   -0.9530   -2.6550 nu        1 1IR     -0.755200
     17 C17         4.3960   -0.3730   -3.9130 cc        1 1IR      0.575100
     18 N18         3.4060   -0.0150   -4.7390 nd        1 1IR     -0.598100
     19 C19         3.9410    0.3870   -5.9690 ca        1 1IR      0.116400
     20 C20         3.1920    0.8190   -7.0820 ca        1 1IR     -0.090000
     21 C21         3.8620    1.2040   -8.2330 ca        1 1IR     -0.123000
     22 C22         5.2630    1.1690   -8.3060 ca        1 1IR     -0.133000
     23 C23         6.0190    0.7450   -7.2220 ca        1 1IR     -0.083000
     24 C24         5.3720    0.3500   -6.0520 ca        1 1IR     -0.098100
     25 S25         6.0230   -0.2100   -4.5950 ss        1 1IR     -0.073100
     26 H01         0.1420    0.3990   -0.6280 h1        1 1IR      0.062700
     27 H01A        0.1970   -1.4180   -0.3580 h1        1 1IR      0.062700
     28 H01B        0.7500   -0.7110   -1.9720 h1        1 1IR      0.062700
     29 H06         0.6660    0.2510    4.6480 ha        1 1IR      0.153000
     30 H07         2.5030    0.6390    6.3360 ha        1 1IR      0.145000
     31 H08         4.8960    0.6890    5.5960 h4        1 1IR      0.024100
     32 H12         5.6790    0.1050    1.1940 h1        1 1IR      0.103700
     33 H13         4.2100   -2.1460   -0.3020 hc        1 1IR      0.074950
     34 H13A        6.0000   -1.9390   -0.0560 hc        1 1IR      0.074950
     35 H14         6.1990   -0.5700   -2.0440 h1        1 1IR      0.076700
     36 H15         5.6880    1.4580   -0.8070 hc        1 1IR      0.074950
     37 H15A        3.9020    1.2190   -1.0580 hc        1 1IR      0.074950
     38 HN16        3.2790   -0.9860   -2.3340 hn        1 1IR      0.425800
     39 H20         2.0940    0.8470   -7.0280 ha        1 1IR      0.149000
     40 H21         3.2870    1.5430   -9.1080 ha        1 1IR      0.135000
     41 H22         5.7640    1.4810   -9.2340 ha        1 1IR      0.135000
     42 H23         7.1170    0.7180   -7.2840 ha        1 1IR      0.138000
@<TRIPOS>BOND
     1    1    2 1   
     2    1   26 1   
     3    1   27 1   
     4    1   28 1   
     5    2    3 1   
     6    3    4 2   
     7    3   11 1   
     8    4    5 1   
     9    5    6 ar  
    10    5   10 ar  
    11    6    7 ar  
    12    6   29 1   
    13    7    8 ar  
    14    7   30 1   
    15    8    9 ar  
    16    8   31 1   
    17    9   10 ar  
    18   10   11 1   
    19   11   12 1   
    20   12   13 1   
    21   12   15 1   
    22   12   32 1   
    23   13   14 1   
    24   13   33 1   
    25   13   34 1   
    26   14   15 1   
    27   14   16 1   
    28   14   35 1   
    29   15   36 1   
    30   15   37 1   
    31   16   17 1   
    32   16   38 1   
    33   17   18 2   
    34   17   25 1   
    35   18   19 1   
    36   19   20 ar  
    37   19   24 ar  
    38   20   21 ar  
    39   20   39 1   
    40   21   22 ar  
    41   21   40 1   
    42   22   23 ar  
    43   22   41 1   
    44   23   24 ar  
    45   23   42 1   
    46   24   25 1   
@<TRIPOS>SUBSTRUCTURE
     1 1IR         1 TEMP              0 ****  ****    0 ROOT
