@<TRIPOS>MOLECULE
1IR
   42    46     1     0     0
SMALL
bcc


@<TRIPOS>ATOM
      1 C01         0.6770   -0.5410   -0.8790 c3        1 1IR      0.125700
      2 O02         2.0540   -0.4460   -0.4870 os        1 1IR     -0.410400
      3 C03         2.2630   -0.2210    0.8550 cc        1 1IR      0.620100
      4 N04         1.3300   -0.1350    1.8380 nd        1 1IR     -0.611100
      5 C05         2.0780    0.0960    3.0060 ca        1 1IR     -0.009900
      6 C06         1.6990    0.2740    4.3420 ca        1 1IR     -0.048000
      7 C07         2.7110    0.4850    5.2710 ca        1 1IR     -0.259300
      8 C08         4.0650    0.5140    4.8590 ca        1 1IR      0.400200
      9 N09         4.4960    0.3520    3.5990 nb        1 1IR     -0.656000
     10 C10         3.5090    0.1460    2.6880 ca        1 1IR      0.401800
     11 N11         3.6050   -0.0540    1.2900 na        1 1IR     -0.257000
     12 C12         4.8040   -0.1210    0.5210 cy        1 1IR      0.048000
     13 C13         5.0480   -1.4210   -0.3120 cy        1 1IR     -0.116900
     14 C14         5.1600   -0.5710   -1.6150 cy        1 1IR      0.181500
     15 C15         4.8570    0.7220   -0.7910 cy        1 1IR     -0.116900
     16 N16         4.2360   -0.9510   -2.6530 nh        1 1IR     -0.755200
     17 C17         4.4070   -0.3730   -3.9110 cc        1 1IR      0.575100
     18 N18         3.4200   -0.0140   -4.7410 nd        1 1IR     -0.598100
     19 C19         3.9610    0.3850   -5.9690 ca        1 1IR      0.116400
     20 C20         3.2180    0.8170   -7.0850 ca        1 1IR     -0.090000
     21 C21         3.8930    1.2000   -8.2340 ca        1 1IR     -0.123000
     22 C22         5.2950    1.1650   -8.3000 ca        1 1IR     -0.133000
     23 C23         6.0460    0.7410   -7.2130 ca        1 1IR     -0.083000
     24 C24         5.3930    0.3470   -6.0450 ca        1 1IR     -0.099100
     25 S25         6.0370   -0.2110   -4.5850 ss        1 1IR     -0.073100
     26 H01         0.1900   -1.4100   -0.3760 h1        1 1IR      0.062700
     27 H01A        0.1390    0.4070   -0.6420 h1        1 1IR      0.062700
     28 H01B        0.7520   -0.7000   -1.9860 h1        1 1IR      0.062700
     29 H06         0.6400    0.2470    4.6360 ha        1 1IR      0.153000
     30 H07         2.4700    0.6300    6.3320 ha        1 1IR      0.145000
     31 H08         4.8650    0.6820    5.6030 h4        1 1IR      0.024100
     32 H12         5.6670    0.1070    1.2020 h1        1 1IR      0.103700
     33 H13         4.2040   -2.1440   -0.2990 hc        1 1IR      0.074950
     34 H13A        5.9930   -1.9370   -0.0460 hc        1 1IR      0.074950
     35 H14         6.2020   -0.5690   -2.0330 h1        1 1IR      0.076700
     36 H15         5.6850    1.4600   -0.7980 hc        1 1IR      0.074950
     37 H15A        3.9000    1.2210   -1.0580 hc        1 1IR      0.074950
     38 HN16        3.2820   -0.9830   -2.3350 hn        1 1IR      0.425800
     39 H20         2.1200    0.8460   -7.0370 ha        1 1IR      0.149000
     40 H21         3.3220    1.5390   -9.1120 ha        1 1IR      0.135000
     41 H22         5.8010    1.4750   -9.2260 ha        1 1IR      0.135000
     42 H23         7.1440    0.7120   -7.2700 ha        1 1IR      0.138000
@<TRIPOS>BOND
     1    1    2 1   
     2    1   26 1   
     3    1   27 1   
     4    1   28 1   
     5    2    3 1   
     6    3    4 2   
     7    3   11 1   
     8    4    5 1   
     9    5    6 ar  
    10    5   10 ar  
    11    6    7 ar  
    12    6   29 1   
    13    7    8 ar  
    14    7   30 1   
    15    8    9 ar  
    16    8   31 1   
    17    9   10 ar  
    18   10   11 1   
    19   11   12 1   
    20   12   13 1   
    21   12   15 1   
    22   12   32 1   
    23   13   14 1   
    24   13   33 1   
    25   13   34 1   
    26   14   15 1   
    27   14   16 1   
    28   14   35 1   
    29   15   36 1   
    30   15   37 1   
    31   16   17 1   
    32   16   38 1   
    33   17   18 2   
    34   17   25 1   
    35   18   19 1   
    36   19   20 ar  
    37   19   24 ar  
    38   20   21 ar  
    39   20   39 1   
    40   21   22 ar  
    41   21   40 1   
    42   22   23 ar  
    43   22   41 1   
    44   23   24 ar  
    45   23   42 1   
    46   24   25 1   
@<TRIPOS>SUBSTRUCTURE
     1 1IR         1 TEMP              0 ****  ****    0 ROOT
