@<TRIPOS>MOLECULE
1IS
   42    46     1     0     0
SMALL
bcc


@<TRIPOS>ATOM
      1 C01         0.9900    0.6610   -0.9570 c3        1 1IS      0.129700
      2 O02         2.1730    0.2160   -0.2790 os        1 1IS     -0.400400
      3 C03         2.0970    0.2480    1.0950 cc        1 1IS      0.621100
      4 N04         1.0570    0.6460    1.8710 nd        1 1IS     -0.612100
      5 C05         1.5210    0.4730    3.1870 ca        1 1IS     -0.010900
      6 C06         0.9200    0.7050    4.4300 ca        1 1IS     -0.048000
      7 C07         1.6710    0.4220    5.5650 ca        1 1IS     -0.259300
      8 C08         2.9870   -0.0810    5.4450 ca        1 1IS      0.398200
      9 N09         3.6220   -0.3260    4.2870 nb        1 1IS     -0.658000
     10 C10         2.8920   -0.0510    3.1750 ca        1 1IS      0.398800
     11 N11         3.2420   -0.1900    1.8110 na        1 1IS     -0.257000
     12 C12         4.4700   -0.6470    1.2490 cy        1 1IS      0.048000
     13 C13         5.0180   -2.0250    1.7380 cy        1 1IS     -0.112400
     14 C14         6.3350   -1.3370    2.2140 cy        1 1IS      0.180500
     15 C15         5.7840    0.0430    1.7300 cy        1 1IS     -0.112400
     16 N16         7.5370   -1.8500    1.6120 nh        1 1IS     -0.760200
     17 C17         8.7540   -1.4860    2.1900 cc        1 1IS      0.570100
     18 N18         9.8800   -1.2100    1.5200 nd        1 1IS     -0.595100
     19 C19        10.9330   -1.0330    2.4250 ca        1 1IS      0.115400
     20 C20        12.2670   -0.7420    2.0770 ca        1 1IS     -0.089000
     21 C21        13.2030   -0.5750    3.0860 ca        1 1IS     -0.124000
     22 C22        12.8440   -0.6910    4.4380 ca        1 1IS     -0.133000
     23 C23        11.5360   -0.9790    4.8020 ca        1 1IS     -0.083000
     24 C24        10.5730   -1.1550    3.8080 ca        1 1IS     -0.102100
     25 S25         8.9280   -1.5130    3.9510 ss        1 1IS     -0.057100
     26 H01         1.2720    0.5510   -2.0340 h1        1 1IS      0.059700
     27 H01A        0.7740    1.7260   -0.7010 h1        1 1IS      0.059700
     28 H01B        0.1240    0.0070   -0.6960 h1        1 1IS      0.059700
     29 H06        -0.1040    1.0960    4.4960 ha        1 1IS      0.153000
     30 H07         1.2480    0.5860    6.5660 ha        1 1IS      0.145000
     31 H08         3.5790   -0.3040    6.3520 h4        1 1IS      0.024100
     32 H12         4.3620   -0.6110    0.1310 h1        1 1IS      0.089700
     33 H13         5.1320   -2.7570    0.9120 hc        1 1IS      0.074950
     34 H13A        4.4560   -2.4870    2.5770 hc        1 1IS      0.074950
     35 H14         6.4350   -1.3690    3.3330 h1        1 1IS      0.093700
     36 H15         6.3490    0.5120    0.8970 hc        1 1IS      0.074950
     37 H15A        5.6590    0.7710    2.5580 hc        1 1IS      0.074950
     38 HN16        7.5300   -1.8120    0.6100 hn        1 1IS      0.414800
     39 H20        12.5510   -0.6510    1.0180 ha        1 1IS      0.150000
     40 H21        14.2470   -0.3470    2.8250 ha        1 1IS      0.134000
     41 H22        13.6100   -0.5530    5.2140 ha        1 1IS      0.134000
     42 H23        11.2590   -1.0710    5.8630 ha        1 1IS      0.137000
@<TRIPOS>BOND
     1    1    2 1   
     2    1   26 1   
     3    1   27 1   
     4    1   28 1   
     5    2    3 1   
     6    3    4 2   
     7    3   11 1   
     8    4    5 1   
     9    5    6 ar  
    10    5   10 ar  
    11    6    7 ar  
    12    6   29 1   
    13    7    8 ar  
    14    7   30 1   
    15    8    9 ar  
    16    8   31 1   
    17    9   10 ar  
    18   10   11 1   
    19   11   12 1   
    20   12   13 1   
    21   12   15 1   
    22   12   32 1   
    23   13   14 1   
    24   13   33 1   
    25   13   34 1   
    26   14   15 1   
    27   14   16 1   
    28   14   35 1   
    29   15   36 1   
    30   15   37 1   
    31   16   17 1   
    32   16   38 1   
    33   17   18 2   
    34   17   25 1   
    35   18   19 1   
    36   19   20 ar  
    37   19   24 ar  
    38   20   21 ar  
    39   20   39 1   
    40   21   22 ar  
    41   21   40 1   
    42   22   23 ar  
    43   22   41 1   
    44   23   24 ar  
    45   23   42 1   
    46   24   25 1   
@<TRIPOS>SUBSTRUCTURE
     1 1IS         1 TEMP              0 ****  ****    0 ROOT
