@<TRIPOS>MOLECULE
1IS
   42    46     1     0     0
SMALL
bcc


@<TRIPOS>ATOM
      1 C01         0.9960    0.6460   -0.9710 c3        1 1IS      0.129700
      2 O02         2.1780    0.2030   -0.2880 os        1 1IS     -0.400400
      3 C03         2.1000    0.2450    1.0850 cc        1 1IS      0.621100
      4 N04         1.0600    0.6520    1.8570 nd        1 1IS     -0.612100
      5 C05         1.5220    0.4870    3.1750 ca        1 1IS     -0.010900
      6 C06         0.9200    0.7300    4.4150 ca        1 1IS     -0.048000
      7 C07         1.6680    0.4540    5.5530 ca        1 1IS     -0.259300
      8 C08         2.9840   -0.0520    5.4380 ca        1 1IS      0.398200
      9 N09         3.6200   -0.3080    4.2840 nb        1 1IS     -0.658000
     10 C10         2.8920   -0.0390    3.1680 ca        1 1IS      0.398800
     11 N11         3.2430   -0.1900    1.8060 na        1 1IS     -0.257000
     12 C12         4.4710   -0.6530    1.2490 cy        1 1IS      0.048000
     13 C13         5.0160   -2.0270    1.7490 cy        1 1IS     -0.112400
     14 C14         6.3330   -1.3380    2.2210 cy        1 1IS      0.180500
     15 C15         5.7860    0.0380    1.7260 cy        1 1IS     -0.112400
     16 N16         7.5360   -1.8590    1.6250 nu        1 1IS     -0.760200
     17 C17         8.7530   -1.4900    2.2020 cc        1 1IS      0.570100
     18 N18         9.8790   -1.2220    1.5300 nd        1 1IS     -0.595100
     19 C19        10.9310   -1.0380    2.4340 ca        1 1IS      0.115400
     20 C20        12.2670   -0.7510    2.0850 ca        1 1IS     -0.089000
     21 C21        13.2010   -0.5760    3.0930 ca        1 1IS     -0.124000
     22 C22        12.8410   -0.6800    4.4460 ca        1 1IS     -0.133000
     23 C23        11.5330   -0.9640    4.8110 ca        1 1IS     -0.083000
     24 C24        10.5710   -1.1470    3.8180 ca        1 1IS     -0.102100
     25 S25         8.9250   -1.5020    3.9620 ss        1 1IS     -0.057100
     26 H01         0.1290   -0.0040   -0.7060 h1        1 1IS      0.059700
     27 H01A        1.2800    0.5270   -2.0470 h1        1 1IS      0.059700
     28 H01B        0.7820    1.7130   -0.7240 h1        1 1IS      0.059700
     29 H06        -0.1040    1.1240    4.4770 ha        1 1IS      0.153000
     30 H07         1.2450    0.6260    6.5520 ha        1 1IS      0.145000
     31 H08         3.5740   -0.2700    6.3480 h4        1 1IS      0.024100
     32 H12         4.3640   -0.6250    0.1300 h1        1 1IS      0.089700
     33 H13         4.4520   -2.4830    2.5910 hc        1 1IS      0.074950
     34 H13A        5.1300   -2.7670    0.9290 hc        1 1IS      0.074950
     35 H14         6.4330   -1.3620    3.3410 h1        1 1IS      0.093700
     36 H15         6.3520    0.5010    0.8900 hc        1 1IS      0.074950
     37 H15A        5.6610    0.7730    2.5490 hc        1 1IS      0.074950
     38 HN16        7.5290   -1.8290    0.6230 hn        1 1IS      0.414800
     39 H20        12.5520   -0.6700    1.0260 ha        1 1IS      0.150000
     40 H21        14.2460   -0.3520    2.8320 ha        1 1IS      0.134000
     41 H22        13.6070   -0.5350    5.2220 ha        1 1IS      0.134000
     42 H23        11.2550   -1.0460    5.8720 ha        1 1IS      0.137000
@<TRIPOS>BOND
     1    1    2 1   
     2    1   26 1   
     3    1   27 1   
     4    1   28 1   
     5    2    3 1   
     6    3    4 2   
     7    3   11 1   
     8    4    5 1   
     9    5    6 ar  
    10    5   10 ar  
    11    6    7 ar  
    12    6   29 1   
    13    7    8 ar  
    14    7   30 1   
    15    8    9 ar  
    16    8   31 1   
    17    9   10 ar  
    18   10   11 1   
    19   11   12 1   
    20   12   13 1   
    21   12   15 1   
    22   12   32 1   
    23   13   14 1   
    24   13   33 1   
    25   13   34 1   
    26   14   15 1   
    27   14   16 1   
    28   14   35 1   
    29   15   36 1   
    30   15   37 1   
    31   16   17 1   
    32   16   38 1   
    33   17   18 2   
    34   17   25 1   
    35   18   19 1   
    36   19   20 ar  
    37   19   24 ar  
    38   20   21 ar  
    39   20   39 1   
    40   21   22 ar  
    41   21   40 1   
    42   22   23 ar  
    43   22   41 1   
    44   23   24 ar  
    45   23   42 1   
    46   24   25 1   
@<TRIPOS>SUBSTRUCTURE
     1 1IS         1 TEMP              0 ****  ****    0 ROOT
