@<TRIPOS>MOLECULE
1IS
   42    46     1     0     0
SMALL
bcc


@<TRIPOS>ATOM
      1 C01         0.9640    0.6800   -0.9160 c3        1 1IS      0.129700
      2 O02         2.1530    0.2330   -0.2500 os        1 1IS     -0.400400
      3 C03         2.0860    0.2530    1.1240 cc        1 1IS      0.621100
      4 N04         1.0500    0.6420    1.9100 nd        1 1IS     -0.612100
      5 C05         1.5230    0.4590    3.2210 ca        1 1IS     -0.010900
      6 C06         0.9300    0.6800    4.4700 ca        1 1IS     -0.048000
      7 C07         1.6880    0.3900    5.5980 ca        1 1IS     -0.259300
      8 C08         3.0060   -0.1080    5.4650 ca        1 1IS      0.398200
      9 N09         3.6340   -0.3420    4.3020 nb        1 1IS     -0.658000
     10 C10         2.8950   -0.0600    3.1960 ca        1 1IS      0.398800
     11 N11         3.2360   -0.1870    1.8290 na        1 1IS     -0.257000
     12 C12         4.4620   -0.6350    1.2560 cy        1 1IS      0.048000
     13 C13         5.0170   -2.0160    1.7290 cy        1 1IS     -0.112400
     14 C14         6.3350   -1.3280    2.2020 cy        1 1IS      0.180500
     15 C15         5.7780    0.0540    1.7340 cy        1 1IS     -0.112400
     16 N16         7.5350   -1.8330    1.5890 nh        1 1IS     -0.760200
     17 C17         8.7550   -1.4720    2.1630 cc        1 1IS      0.570100
     18 N18         9.8760   -1.1860    1.4900 nd        1 1IS     -0.595100
     19 C19        10.9340   -1.0160    2.3900 ca        1 1IS      0.115400
     20 C20        12.2650   -0.7180    2.0380 ca        1 1IS     -0.089000
     21 C21        13.2060   -0.5600    3.0420 ca        1 1IS     -0.124000
     22 C22        12.8550   -0.6910    4.3950 ca        1 1IS     -0.133000
     23 C23        11.5510   -0.9860    4.7640 ca        1 1IS     -0.083000
     24 C24        10.5830   -1.1540    3.7740 ca        1 1IS     -0.102100
     25 S25         8.9390   -1.5180    3.9230 ss        1 1IS     -0.057100
     26 H01         0.1020    0.0220   -0.6560 h1        1 1IS      0.059700
     27 H01A        1.2390    0.5800   -1.9970 h1        1 1IS      0.059700
     28 H01B        0.7460    1.7420   -0.6510 h1        1 1IS      0.059700
     29 H06        -0.0960    1.0670    4.5460 ha        1 1IS      0.153000
     30 H07         1.2720    0.5450    6.6030 ha        1 1IS      0.145000
     31 H08         3.6040   -0.3370    6.3670 h4        1 1IS      0.024100
     32 H12         4.3460   -0.5910    0.1380 h1        1 1IS      0.089700
     33 H13         5.1280   -2.7410    0.8960 hc        1 1IS      0.074950
     34 H13A        4.4620   -2.4870    2.5680 hc        1 1IS      0.074950
     35 H14         6.4430   -1.3690    3.3210 h1        1 1IS      0.093700
     36 H15         5.6550    0.7750    2.5690 hc        1 1IS      0.074950
     37 H15A        6.3350    0.5320    0.9010 hc        1 1IS      0.074950
     38 HN16        7.5220   -1.7850    0.5870 hn        1 1IS      0.414800
     39 H20        12.5430   -0.6150    0.9780 ha        1 1IS      0.150000
     40 H21        14.2490   -0.3270    2.7780 ha        1 1IS      0.134000
     41 H22        13.6260   -0.5590    5.1690 ha        1 1IS      0.134000
     42 H23        11.2800   -1.0900    5.8250 ha        1 1IS      0.137000
@<TRIPOS>BOND
     1    1    2 1   
     2    1   26 1   
     3    1   27 1   
     4    1   28 1   
     5    2    3 1   
     6    3    4 2   
     7    3   11 1   
     8    4    5 1   
     9    5    6 ar  
    10    5   10 ar  
    11    6    7 ar  
    12    6   29 1   
    13    7    8 ar  
    14    7   30 1   
    15    8    9 ar  
    16    8   31 1   
    17    9   10 ar  
    18   10   11 1   
    19   11   12 1   
    20   12   13 1   
    21   12   15 1   
    22   12   32 1   
    23   13   14 1   
    24   13   33 1   
    25   13   34 1   
    26   14   15 1   
    27   14   16 1   
    28   14   35 1   
    29   15   36 1   
    30   15   37 1   
    31   16   17 1   
    32   16   38 1   
    33   17   18 2   
    34   17   25 1   
    35   18   19 1   
    36   19   20 ar  
    37   19   24 ar  
    38   20   21 ar  
    39   20   39 1   
    40   21   22 ar  
    41   21   40 1   
    42   22   23 ar  
    43   22   41 1   
    44   23   24 ar  
    45   23   42 1   
    46   24   25 1   
@<TRIPOS>SUBSTRUCTURE
     1 1IS         1 TEMP              0 ****  ****    0 ROOT
