@<TRIPOS>MOLECULE
1IT
   21    23     1     0     0
SMALL
bcc


@<TRIPOS>ATOM
      1 C13         1.7100    1.5450   -0.0010 ca        1 1IT     -0.077000
      2 C1          0.7260    0.5670   -0.0000 cp        1 1IT     -0.081000
      3 C12         3.0490    1.1420   -0.0010 ca        1 1IT     -0.152000
      4 C11         3.4060   -0.2090   -0.0000 ca        1 1IT     -0.105000
      5 C10         2.4390   -1.2210    0.0000 ca        1 1IT     -0.130000
      6 C9          1.1150   -0.8120   -0.0000 ca        1 1IT      0.084100
      7 O8          0.0000   -1.6660    0.0000 os        1 1IT     -0.202200
      8 C7         -1.1150   -0.8120    0.0000 ca        1 1IT      0.084100
      9 C2         -0.7270    0.5670   -0.0000 cp        1 1IT     -0.081000
     10 C6         -2.4390   -1.2210    0.0000 ca        1 1IT     -0.130000
     11 C5         -3.4060   -0.2100    0.0000 ca        1 1IT     -0.105000
     12 C4         -3.0500    1.1410   -0.0000 ca        1 1IT     -0.152000
     13 C3         -1.7110    1.5450   -0.0000 ca        1 1IT     -0.077000
     14 H13         1.4450    2.6110   -0.0010 ha        1 1IT      0.140000
     15 H12         3.8400    1.9070   -0.0010 ha        1 1IT      0.135000
     16 H11         4.4700   -0.4890   -0.0000 ha        1 1IT      0.136000
     17 H10         2.7130   -2.2840    0.0000 ha        1 1IT      0.153000
     18 H6         -2.7120   -2.2840    0.0000 ha        1 1IT      0.153000
     19 H3         -1.4450    2.6110   -0.0010 ha        1 1IT      0.140000
     20 H5         -4.4700   -0.4890    0.0000 ha        1 1IT      0.136000
     21 H4         -3.8400    1.9070   -0.0000 ha        1 1IT      0.135000
@<TRIPOS>BOND
     1    1    2 ar  
     2    1    3 ar  
     3    1   14 1   
     4    2    6 ar  
     5    2    9 1   
     6    3    4 ar  
     7    3   15 1   
     8    4    5 ar  
     9    4   16 1   
    10    5    6 ar  
    11    5   17 1   
    12    6    7 1   
    13    7    8 1   
    14    8    9 ar  
    15    8   10 ar  
    16    9   13 ar  
    17   10   11 ar  
    18   10   18 1   
    19   11   12 ar  
    20   11   20 1   
    21   12   13 ar  
    22   12   21 1   
    23   13   19 1   
@<TRIPOS>SUBSTRUCTURE
     1 1IT         1 TEMP              0 ****  ****    0 ROOT
