@<TRIPOS>MOLECULE
1IT
   21    15     1     0     0
SMALL
bcc


@<TRIPOS>ATOM
      1 C13        -2.0580    0.0000    0.3550 c1        1 1IT     -0.120167
      2 C1         -0.6540    0.0000    0.3550 c1        1 1IT     -0.021000
      3 C12        -2.7530    0.0000    1.5580 c1        1 1IT     -0.120167
      4 C11        -2.0580    0.0000    2.7620 c1        1 1IT     -0.120167
      5 C10        -0.6700    0.0000    2.7630 c1        1 1IT     -0.120167
      6 C9          0.0330    0.0000    1.5470 c1        1 1IT     -0.021000
      7 O8          1.3950    0.0000    1.2580 o         1 1IT     -0.112000
      8 C7          1.5420    0.0000   -0.1260 c1        1 1IT      0.039000
      9 C2          0.2870   -0.0000   -0.6870 c1        1 1IT     -0.081000
     10 C6          2.6790    0.0000   -0.9500 c1        1 1IT     -0.130000
     11 C5          2.5360   -0.0000   -2.3300 c1        1 1IT     -0.120167
     12 C4          1.2670   -0.0000   -2.8980 c1        1 1IT     -0.120167
     13 C3          0.1430   -0.0000   -2.0840 c1        1 1IT     -0.077000
     14 H13        -2.5460    0.0000   -0.4900 ha        1 1IT      0.139167
     15 H12        -3.7290    0.0000    1.5570 ha        1 1IT      0.139167
     16 H11        -2.5470    0.0000    3.6070 ha        1 1IT      0.139167
     17 H10        -0.1830    0.0000    3.6080 ha        1 1IT      0.139167
     18 H6          3.5710    0.0000   -0.5510 ha        1 1IT      0.153000
     19 H3         -0.7480   -0.0000   -2.4830 ha        1 1IT      0.140000
     20 H5          3.3270   -0.0000   -2.9030 ha        1 1IT      0.139167
     21 H4          1.1670   -0.0000   -3.8690 ha        1 1IT      0.139167
@<TRIPOS>BOND
     1    1    3 1   
     2    1   14 1   
     3    2    6 1   
     4    3   15 1   
     5    4    5 1   
     6    4   16 1   
     7    5   17 1   
     8    7    8 1   
     9    8   10 1   
    10    9   13 1   
    11   10   18 1   
    12   11   12 1   
    13   11   20 1   
    14   12   21 1   
    15   13   19 1   
@<TRIPOS>SUBSTRUCTURE
     1 1IT         1 TEMP              0 ****  ****    0 ROOT
