@<TRIPOS>MOLECULE
1IU
   62    59     1     0     0
SMALL
bcc


@<TRIPOS>ATOM
      1 NAS        -1.2160    3.8550    4.4820 n2        1 1IU     -0.171000
      2 NAR        -1.0160    4.1340    5.7870 n2        1 1IU     -0.028500
      3 NAW         0.0890    3.4840    6.1870 n2        1 1IU     -0.028500
      4 NAT         0.5760    2.8010    5.1300 n2        1 1IU     -0.171000
      5 CBB        -0.2310    3.0310    4.0770 c1        1 1IU     -0.058000
      6 CAP        -0.1010    2.3900    2.6770 c2        1 1IU     -0.132000
      7 CBE         0.6130    3.3500    1.7430 c3        1 1IU     -0.022000
      8 NAD         1.9960    3.3200    2.0040 n3        1 1IU     -0.357000
      9 CAZ         0.3620    2.9330    0.2910 c2        1 1IU      0.275000
     10 OAG        -0.7520    3.0170   -0.1800 o         1 1IU     -0.372000
     11 NAV         1.4550    2.4530   -0.5210 n         1 1IU     -0.314000
     12 CBF         1.2120    1.4990   -1.5490 c3        1 1IU     -0.697000
     13 CAO         2.0160    1.8640   -2.7740 c3        1 1IU     -0.117000
     14 CBA         1.0670    2.1020   -3.9590 c2        1 1IU     -0.088000
     15 CAM         1.2330    3.2240   -4.7630 c2        1 1IU     -0.121000
     16 CAK         0.5010    3.3540   -5.9360 c1        1 1IU     -0.130000
     17 CAJ        -0.3980    2.3630   -6.3060 c1        1 1IU     -0.126000
     18 CAL        -0.5650    1.2430   -5.5050 c1        1 1IU     -0.126000
     19 CAN         0.1670    1.1120   -4.3320 c1        1 1IU     -0.124000
     20 PBG         1.7040   -0.1590   -0.9690 p5        1 1IU      2.814000
     21 OAI         2.3730   -0.0440    0.3450 o         1 1IU     -1.143000
     22 OAH         2.7050   -0.8120   -2.0190 oh        1 1IU     -0.838000
     23 CAQ         0.2150   -1.2170   -0.8080 c3        1 1IU     -0.929000
     24 CBC         0.5470   -2.4340    0.0190 c3        1 1IU     -0.102000
     25 CAA         0.8510   -2.0160    1.4260 c3        1 1IU     -0.211000
     26 CAY        -0.6580   -3.4010    0.0180 c2        1 1IU      0.305000
     27 OAF        -1.3450   -3.5110   -0.9740 o         1 1IU     -0.374000
     28 N          -0.9500   -4.2050    1.1990 n         1 1IU     -0.352000
     29 CA         -2.2430   -4.8500    1.3350 c3        1 1IU      0.008000
     30 CB         -2.0510   -6.2760    1.8210 c3        1 1IU     -0.221000
     31 C          -3.0730   -4.0990    2.3160 c2        1 1IU      0.275000
     32 O          -2.6590   -3.9100    3.4380 o         1 1IU     -0.384000
     33 NAC        -4.3820   -3.7060    1.9750 n         1 1IU     -0.427000
     34 HAT         1.3210    2.2750    5.1280 DU        1 1IU      0.289000
     35 HAP1       -0.9930    2.1940    2.3230 ha        1 1IU      0.128500
     36 HAP2        0.4110    1.5630    2.7460 ha        1 1IU      0.128500
     37 HBE         0.2750    4.2540    1.8850 h1        1 1IU      0.134000
     38 HAD1        2.1350    3.2430    2.9090 hn        1 1IU      0.176000
     39 HAD2        2.3820    4.0960    1.6990 hn        1 1IU      0.176000
     40 HAV         2.3090    2.7220   -0.3410 hn        1 1IU      0.239000
     41 HBF         0.2620    1.4970   -1.7720 h1        1 1IU      0.172000
     42 HAO1        2.6290    1.1340   -2.9900 hc        1 1IU      0.106500
     43 HAO2        2.5270    2.6760   -2.5990 hc        1 1IU      0.106500
     44 HAM         1.8670    3.9220   -4.5020 ha        1 1IU      0.131000
     45 HAN         0.0490    0.3240   -3.7680 ha        1 1IU      0.150000
     46 HAK         0.6170    4.1400   -6.4980 ha        1 1IU      0.132000
     47 HAJ        -0.9160    2.4550   -7.1360 ha        1 1IU      0.133000
     48 HAL        -1.1970    0.5460   -5.7660 ha        1 1IU      0.133000
     49 HAQ1       -0.0820   -1.4980   -1.6950 hc        1 1IU      0.182000
     50 HAQ2       -0.5000   -0.7100   -0.3700 hc        1 1IU      0.182000
     51 HBC         1.3300   -2.8860   -0.3640 hc        1 1IU      0.147000
     52 HAA1        1.1570   -1.0800    1.4310 hc        1 1IU      0.085000
     53 HAA2        1.5520   -2.5900    1.7930 hc        1 1IU      0.085000
     54 HAA3        0.0460   -2.0980    1.9710 hc        1 1IU      0.085000
     55 H          -0.3430   -4.2560    1.8770 hn        1 1IU      0.238000
     56 HA         -2.6940   -4.8590    0.4700 h1        1 1IU      0.138000
     57 HB1C       -1.2510   -6.6510    1.4150 hc        1 1IU      0.092000
     58 HB2C       -1.9550   -6.2790    2.7930 hc        1 1IU      0.092000
     59 HB3C       -2.8380   -6.8210    1.5650 hc        1 1IU      0.092000
     60 HAC1       -4.6860   -3.8240    1.1220 hn        1 1IU      0.227500
     61 HAC2       -4.9300   -3.3550    2.6080 hn        1 1IU      0.227500
     62 HOAH        3.4720   -1.0210   -1.6090 ho        1 1IU      0.276000
@<TRIPOS>BOND
     1    1    2 1   
     2    1    5 1   
     3    2    3 1   
     4    3    4 1   
     5    4    5 1   
     6    6    7 1   
     7    6   35 1   
     8    6   36 1   
     9    7    8 1   
    10    7    9 1   
    11    7   37 1   
    12    8   38 1   
    13    8   39 1   
    14    9   10 1   
    15    9   11 1   
    16   11   12 1   
    17   11   40 1   
    18   12   13 1   
    19   12   20 1   
    20   12   41 1   
    21   13   14 1   
    22   13   42 1   
    23   13   43 1   
    24   14   15 1   
    25   14   19 1   
    26   15   16 1   
    27   15   44 1   
    28   16   46 1   
    29   17   18 1   
    30   17   47 1   
    31   18   48 1   
    32   19   45 1   
    33   20   21 1   
    34   20   22 1   
    35   20   23 1   
    36   22   62 1   
    37   23   24 1   
    38   23   49 1   
    39   23   50 1   
    40   24   25 1   
    41   24   26 1   
    42   24   51 1   
    43   25   52 1   
    44   25   53 1   
    45   25   54 1   
    46   26   27 1   
    47   26   28 1   
    48   28   29 1   
    49   28   55 1   
    50   29   30 1   
    51   29   31 1   
    52   29   56 1   
    53   30   57 1   
    54   30   58 1   
    55   30   59 1   
    56   31   32 1   
    57   31   33 1   
    58   33   60 1   
    59   33   61 1   
@<TRIPOS>SUBSTRUCTURE
     1 1IU         1 TEMP              0 ****  ****    0 ROOT
