@<TRIPOS>MOLECULE
1IU
   62    63     1     0     0
SMALL
bcc


@<TRIPOS>ATOM
      1 NAS        -6.6910    0.2790    1.2760 nc        1 1IU     -0.385000
      2 NAR        -7.7500   -0.3700    1.7470 nc        1 1IU     -0.053000
      3 NAW        -7.7480   -1.6150    1.4270 nd        1 1IU     -0.198800
      4 NAT        -6.6490   -1.8470    0.6990 na        1 1IU     -0.159400
      5 CBB        -5.9380   -0.6380    0.5860 cd        1 1IU      0.384800
      6 CAP        -4.6740   -0.4270   -0.1550 c3        1 1IU     -0.110700
      7 CBE        -3.6280   -1.5060    0.1820 c3        1 1IU      0.103500
      8 NAD        -3.9940   -2.8060   -0.3340 n3        1 1IU     -0.911800
      9 CAZ        -2.2730   -0.9870   -0.3610 c         1 1IU      0.603100
     10 OAG        -1.8400   -1.3650   -1.4650 o         1 1IU     -0.586100
     11 NAV        -1.5340   -0.1550    0.4840 n         1 1IU     -0.497900
     12 CBF        -0.3870    0.5520   -0.0420 c3        1 1IU     -0.206500
     13 CAO        -0.4510    2.0700    0.1480 c3        1 1IU     -0.060100
     14 CBA        -1.6870    2.6710   -0.4150 ca        1 1IU     -0.089300
     15 CAM        -2.8200    2.8390    0.3910 ca        1 1IU     -0.132000
     16 CAK        -3.9860    3.3890   -0.1390 ca        1 1IU     -0.123500
     17 CAJ        -4.0270    3.7840   -1.4770 ca        1 1IU     -0.125000
     18 CAL        -2.8990    3.6270   -2.2820 ca        1 1IU     -0.123500
     19 CAN        -1.7340    3.0720   -1.7560 ca        1 1IU     -0.132000
     20 PBG         1.0120   -0.0020    0.7210 p5        1 1IU      1.485100
     21 OAI         1.1210   -1.4170    1.0650 o         1 1IU     -0.860300
     22 OAH         1.0310    0.7620    2.1410 oh        1 1IU     -0.802400
     23 CAQ         2.2330    0.6540   -0.1690 c3        1 1IU     -0.434600
     24 CBC         3.3850   -0.3200   -0.3340 c3        1 1IU     -0.118700
     25 CAA         3.6750   -0.5980   -1.7980 c3        1 1IU     -0.096100
     26 CAY         4.6640    0.2200    0.3160 c         1 1IU      0.659100
     27 OAF         4.8010    1.4210    0.6230 o         1 1IU     -0.615100
     28 N           5.6530   -0.7080    0.5920 n         1 1IU     -0.541900
     29 CA          6.9700   -0.3070    1.0200 c3        1 1IU      0.033700
     30 CB          7.4840   -1.1340    2.2000 c3        1 1IU     -0.103100
     31 C           8.0060   -0.4630   -0.1220 c         1 1IU      0.631100
     32 O           7.9000   -1.3570   -0.9850 o         1 1IU     -0.620100
     33 NAC         9.0730    0.3950   -0.1350 n         1 1IU     -0.667000
     34 HAT        -6.4030   -2.7500    0.3570 hn        1 1IU      0.352700
     35 HAP1       -4.8920   -0.4230   -1.2590 hc        1 1IU      0.089700
     36 HAP2       -4.2620    0.5880    0.1110 hc        1 1IU      0.089700
     37 HBE        -3.5580   -1.6010    1.3080 h1        1 1IU      0.092700
     38 HAD1       -3.9530   -2.8120   -1.3370 hn        1 1IU      0.373800
     39 HAD2       -3.3680   -3.5060    0.0190 hn        1 1IU      0.373800
     40 HAV        -2.0930    0.3830    1.1200 hn        1 1IU      0.303500
     41 HBF        -0.3420    0.3570   -1.1610 h1        1 1IU      0.122700
     42 HAO1       -0.3740    2.3000    1.2470 hc        1 1IU      0.076200
     43 HAO2        0.4550    2.5100   -0.3490 hc        1 1IU      0.076200
     44 HAM        -2.7870    2.5560    1.4540 ha        1 1IU      0.132000
     45 HAN        -0.8470    2.9490   -2.3950 ha        1 1IU      0.132000
     46 HAK        -4.8740    3.5140    0.5000 ha        1 1IU      0.142500
     47 HAJ        -4.9460    4.2210   -1.8940 ha        1 1IU      0.139000
     48 HAL        -2.9270    3.9430   -3.3360 ha        1 1IU      0.142500
     49 HAQ1        1.9100    0.9960   -1.1880 hc        1 1IU      0.128700
     50 HAQ2        2.6230    1.5980    0.3170 hc        1 1IU      0.128700
     51 HBC         3.1110   -1.3000    0.1680 hc        1 1IU      0.115700
     52 HAA1        2.7630   -1.0040   -2.2990 hc        1 1IU      0.050033
     53 HAA2        3.9850    0.3370   -2.3230 hc        1 1IU      0.050033
     54 HAA3        4.4920   -1.3530   -1.9010 hc        1 1IU      0.050033
     55 H           5.5900   -1.6120    0.1780 hn        1 1IU      0.326500
     56 HA          6.9110    0.7800    1.3360 h1        1 1IU      0.097700
     57 HB1C        7.5820   -2.2110    1.9220 hc        1 1IU      0.052700
     58 HB2C        8.4860   -0.7480    2.5060 hc        1 1IU      0.052700
     59 HB3C        6.7860   -1.0500    3.0670 hc        1 1IU      0.052700
     60 HAC1        9.1350    1.1430    0.5060 hn        1 1IU      0.314500
     61 HAC2        9.7480    0.3260   -0.8550 hn        1 1IU      0.314500
     62 HOAH        1.1280    0.1980    2.9060 ho        1 1IU      0.480000
@<TRIPOS>BOND
     1    1    2 1   
     2    1    5 2   
     3    2    3 2   
     4    3    4 1   
     5    4    5 1   
     6    4   34 1   
     7    5    6 1   
     8    6    7 1   
     9    6   35 1   
    10    6   36 1   
    11    7    8 1   
    12    7    9 1   
    13    7   37 1   
    14    8   38 1   
    15    8   39 1   
    16    9   10 2   
    17    9   11 1   
    18   11   12 1   
    19   11   40 1   
    20   12   13 1   
    21   12   20 1   
    22   12   41 1   
    23   13   14 1   
    24   13   42 1   
    25   13   43 1   
    26   14   15 ar  
    27   14   19 ar  
    28   15   16 ar  
    29   15   44 1   
    30   16   17 ar  
    31   16   46 1   
    32   17   18 ar  
    33   17   47 1   
    34   18   19 ar  
    35   18   48 1   
    36   19   45 1   
    37   20   21 2   
    38   20   22 1   
    39   20   23 1   
    40   22   62 1   
    41   23   24 1   
    42   23   49 1   
    43   23   50 1   
    44   24   25 1   
    45   24   26 1   
    46   24   51 1   
    47   25   52 1   
    48   25   53 1   
    49   25   54 1   
    50   26   27 2   
    51   26   28 1   
    52   28   29 1   
    53   28   55 1   
    54   29   30 1   
    55   29   31 1   
    56   29   56 1   
    57   30   57 1   
    58   30   58 1   
    59   30   59 1   
    60   31   32 2   
    61   31   33 1   
    62   33   60 1   
    63   33   61 1   
@<TRIPOS>SUBSTRUCTURE
     1 1IU         1 TEMP              0 ****  ****    0 ROOT
