@<TRIPOS>MOLECULE
1IU
   65    66     1     0     0
SMALL
bcc


@<TRIPOS>ATOM
      1 NAS        -0.3790    1.5870   -0.2220 nc        1 1IU     -0.454000
      2 NAR         0.8840    1.5680   -0.6180 nc        1 1IU      0.024000
      3 NAW         1.4810    0.4870   -0.2540 nd        1 1IU     -0.103800
      4 NAT         0.6080   -0.2710    0.4200 na        1 1IU     -0.118400
      5 CBB        -0.6140    0.4160    0.4590 cd        1 1IU      0.307800
      6 CAP        -1.8900   -0.0110    1.0760 c3        1 1IU     -0.119700
      7 CBE        -2.8380    1.1970    1.2520 c3        1 1IU      0.103500
      8 NAD        -3.2200    1.8420   -0.0420 n4        1 1IU     -0.852600
      9 CAZ        -4.1010    0.6840    1.9680 c         1 1IU      0.527100
     10 OAG        -4.8770   -0.1300    1.4980 o         1 1IU     -0.361100
     11 NAV        -4.3940    1.2420    3.3370 n4        1 1IU     -0.620800
     12 CBF        -5.7510    1.8500    3.4730 c3        1 1IU     -0.169700
     13 CAO        -6.1800    1.9290    4.9450 c3        1 1IU     -0.060100
     14 CBA        -6.0120    0.6340    5.6500 ca        1 1IU     -0.178300
     15 CAM        -4.8670    0.4040    6.4280 ca        1 1IU     -0.135000
     16 CAK        -4.7260   -0.7930    7.1270 ca        1 1IU     -0.108000
     17 CAJ        -5.7230   -1.7690    7.0550 ca        1 1IU     -0.080000
     18 CAL        -6.8640   -1.5440    6.2830 ca        1 1IU     -0.108000
     19 CAN        -7.0100   -0.3460    5.5830 ca        1 1IU     -0.135000
     20 PBG        -5.7960    3.4360    2.8400 p5        1 1IU      1.570100
     21 OAI        -4.9300    3.3350    1.6490 o         1 1IU     -0.951300
     22 OAH        -4.9350    4.2630    3.8920 oh        1 1IU     -0.820400
     23 CAQ        -7.3260    3.9270    2.7020 c3        1 1IU     -0.501600
     24 CBC        -7.6400    5.2450    3.4010 c3        1 1IU     -0.094700
     25 CAA        -8.0410    6.3150    2.4020 c3        1 1IU     -0.121100
     26 CAY        -8.7160    5.0320    4.4760 c         1 1IU      0.677100
     27 OAF        -8.9410    3.8970    4.9410 o         1 1IU     -0.614100
     28 N          -9.3930    6.1370    4.9620 n         1 1IU     -0.551900
     29 CA        -10.3720    6.0430    6.0060 c3        1 1IU      0.075700
     30 CB        -10.3220    7.2190    6.9830 c3        1 1IU     -0.144100
     31 C         -11.8000    5.9500    5.4110 c         1 1IU      0.499100
     32 O         -12.1330    5.8780    4.2430 o         1 1IU     -0.380100
     33 NAC       -12.9390    5.9330    6.4050 n4        1 1IU     -0.759400
     34 HAT         0.8510   -1.1730    0.7820 hn        1 1IU      0.371700
     35 HAP1       -2.3760   -0.8060    0.4410 hc        1 1IU      0.117200
     36 HAP2       -1.6950   -0.4560    2.0920 hc        1 1IU      0.117200
     37 HBE        -2.3120    1.9990    1.8590 hx        1 1IU      0.149700
     38 HAD1       -3.6680    1.1650   -0.6670 hn        1 1IU      0.504467
     39 HAD2       -2.3570    2.2070   -0.5020 hn        1 1IU      0.504467
     40 HAV        -3.7040    1.9640    3.5810 hn        1 1IU      0.483300
     41 HBF        -6.4740    1.1470    2.9560 hx        1 1IU      0.162700
     42 HAO1       -5.5830    2.7350    5.4570 hc        1 1IU      0.108200
     43 HAO2       -7.2640    2.2430    4.9560 hc        1 1IU      0.108200
     44 HAM        -4.1060    1.1910    6.5410 ha        1 1IU      0.135000
     45 HAN        -7.9240   -0.1660    4.9970 ha        1 1IU      0.135000
     46 HAK        -3.8360   -0.9620    7.7570 ha        1 1IU      0.169500
     47 HAJ        -5.6150   -2.7110    7.6210 ha        1 1IU      0.177000
     48 HAL        -7.6580   -2.3080    6.2370 ha        1 1IU      0.169500
     49 HAQ1       -8.0810    3.1590    3.0570 hc        1 1IU      0.170200
     50 HAQ2       -7.6130    4.0480    1.6110 hc        1 1IU      0.170200
     51 HBC        -6.7230    5.5980    3.9640 hc        1 1IU      0.094700
     52 HAA1       -8.0000    7.3320    2.8660 hc        1 1IU      0.073033
     53 HAA2       -7.3420    6.3270    1.5290 hc        1 1IU      0.073033
     54 HAA3       -9.0730    6.1330    2.0140 hc        1 1IU      0.073033
     55 H          -9.2360    7.0350    4.5600 hn        1 1IU      0.350500
     56 HA        -10.2040    5.0660    6.5660 h1        1 1IU      0.133700
     57 HB1C      -10.7260    8.1550    6.5280 hc        1 1IU      0.085700
     58 HB2C       -9.2630    7.4170    7.2940 hc        1 1IU      0.085700
     59 HB3C      -10.8920    6.9730    7.9110 hc        1 1IU      0.085700
     60 HAC1      -12.9530    6.8130    6.9360 hn        1 1IU      0.478800
     61 HAC2      -13.8390    5.8300    5.9110 hn        1 1IU      0.478800
     62 HAD3       -3.8630    2.6410    0.1290 hn        1 1IU      0.504467
     63 HAV2       -4.3300    0.4670    4.0380 hn        1 1IU      0.483300
     64 H2         -4.2970    4.9120    3.5910 ho        1 1IU      0.524000
     65 HAC3      -12.8290    5.1530    7.0610 hn        1 1IU      0.478800
@<TRIPOS>BOND
     1    1    2 1   
     2    1    5 2   
     3    2    3 2   
     4    3    4 1   
     5    4    5 1   
     6    4   34 1   
     7    5    6 1   
     8    6    7 1   
     9    6   35 1   
    10    6   36 1   
    11    7    8 1   
    12    7    9 1   
    13    7   37 1   
    14    8   38 1   
    15    8   39 1   
    16    8   62 1   
    17    9   10 2   
    18    9   11 1   
    19   11   12 1   
    20   11   40 1   
    21   11   63 1   
    22   12   13 1   
    23   12   20 1   
    24   12   41 1   
    25   13   14 1   
    26   13   42 1   
    27   13   43 1   
    28   14   15 ar  
    29   14   19 ar  
    30   15   16 ar  
    31   15   44 1   
    32   16   17 ar  
    33   16   46 1   
    34   17   18 ar  
    35   17   47 1   
    36   18   19 ar  
    37   18   48 1   
    38   19   45 1   
    39   20   21 2   
    40   20   22 1   
    41   20   23 1   
    42   22   64 1   
    43   23   24 1   
    44   23   49 1   
    45   23   50 1   
    46   24   25 1   
    47   24   26 1   
    48   24   51 1   
    49   25   52 1   
    50   25   53 1   
    51   25   54 1   
    52   26   27 2   
    53   26   28 1   
    54   28   29 1   
    55   28   55 1   
    56   29   30 1   
    57   29   31 1   
    58   29   56 1   
    59   30   57 1   
    60   30   58 1   
    61   30   59 1   
    62   31   32 2   
    63   31   33 1   
    64   33   60 1   
    65   33   61 1   
    66   33   65 1   
@<TRIPOS>SUBSTRUCTURE
     1 1IU         1 TEMP              0 ****  ****    0 ROOT
