@<TRIPOS>MOLECULE
1IU
   66    67     1     0     0
SMALL
bcc


@<TRIPOS>ATOM
      1 NAS        -0.1730    0.4330   -0.0930 nc        1 1IU     -0.461000
      2 NAR         1.0500   -0.0270   -0.2900 nc        1 1IU      0.045000
      3 NAW         1.3040   -1.0350    0.4720 nd        1 1IU     -0.086800
      4 NAT         0.2230   -1.2830    1.2230 na        1 1IU     -0.109400
      5 CBB        -0.7590   -0.3440    0.8790 cd        1 1IU      0.291800
      6 CAP        -2.1370   -0.1990    1.4060 c3        1 1IU     -0.109700
      7 CBE        -2.6990    1.2010    1.0520 c3        1 1IU      0.078500
      8 NAD        -2.7600    1.4380   -0.4250 n4        1 1IU     -0.852600
      9 CAZ        -4.1030    1.3350    1.6750 c         1 1IU      0.518100
     10 OAG        -5.1420    1.0660    1.0940 o         1 1IU     -0.379100
     11 NAV        -4.1510    1.8460    3.0840 n4        1 1IU     -0.624800
     12 CBF        -5.5150    2.0450    3.6560 c3        1 1IU     -0.183700
     13 CAO        -5.6140    1.5130    5.0960 c3        1 1IU     -0.042100
     14 CBA        -5.0270    0.1620    5.2640 ca        1 1IU     -0.196300
     15 CAM        -3.7490    0.0230    5.8280 ca        1 1IU     -0.136000
     16 CAK        -3.2340   -1.2460    6.0900 ca        1 1IU     -0.107500
     17 CAJ        -3.9880   -2.3840    5.7900 ca        1 1IU     -0.074000
     18 CAL        -5.2560   -2.2500    5.2200 ca        1 1IU     -0.107500
     19 CAN        -5.7750   -0.9820    4.9580 ca        1 1IU     -0.136000
     20 PBG        -5.9590    3.6950    3.6930 p5        1 1IU      1.481100
     21 OAI        -5.0460    4.3490    2.7580 o         1 1IU     -0.857300
     22 OAH        -5.7030    4.3030    5.1400 oh        1 1IU     -0.810400
     23 CAQ        -7.5950    3.7970    3.5120 c3        1 1IU     -0.425600
     24 CBC        -8.1140    5.2160    3.7100 c3        1 1IU     -0.065700
     25 CAA        -8.4540    5.8960    2.3930 c3        1 1IU     -0.149100
     26 CAY        -9.3390    5.2080    4.6210 c         1 1IU      0.554100
     27 OAF        -9.8170    4.2800    5.2450 o         1 1IU     -0.380100
     28 N         -10.0610    6.5590    4.7610 n4        1 1IU     -0.695800
     29 CA        -11.1330    6.6190    5.8250 c3        1 1IU      0.071500
     30 CB        -10.6290    7.2870    7.0990 c3        1 1IU     -0.164100
     31 C         -12.3790    7.3460    5.2880 c         1 1IU      0.508100
     32 O         -12.5250    7.7100    4.1310 o         1 1IU     -0.357100
     33 NAC       -13.4970    7.6100    6.2360 n4        1 1IU     -0.735400
     34 HAT         0.1900   -2.0460    1.8710 hn        1 1IU      0.374700
     35 HAP1       -2.7930   -1.0100    0.9780 hc        1 1IU      0.113700
     36 HAP2       -2.1340   -0.3070    2.5250 hc        1 1IU      0.113700
     37 HBE        -1.9980    1.9940    1.4720 hx        1 1IU      0.164700
     38 HAD1       -3.3380    0.7250   -0.8900 hn        1 1IU      0.503800
     39 HAD2       -3.1370    2.3690   -0.6350 hn        1 1IU      0.503800
     40 HAV        -3.6650    2.7690    3.0860 hn        1 1IU      0.497300
     41 HBF        -6.2340    1.4170    3.0410 hx        1 1IU      0.166700
     42 HAO1       -6.7090    1.4930    5.3530 hc        1 1IU      0.096700
     43 HAO2       -5.1130    2.2400    5.7950 hc        1 1IU      0.096700
     44 HAM        -3.1780    0.9110    6.1420 ha        1 1IU      0.137500
     45 HAN        -6.7910   -0.8860    4.5440 ha        1 1IU      0.137500
     46 HAK        -2.2460   -1.3520    6.5710 ha        1 1IU      0.178000
     47 HAJ        -3.5930   -3.3880    6.0290 ha        1 1IU      0.186000
     48 HAL        -5.8600   -3.1480    5.0030 ha        1 1IU      0.178000
     49 HAQ1       -8.1260    3.0950    4.2210 hc        1 1IU      0.154200
     50 HAQ2       -7.9300    3.4440    2.4930 hc        1 1IU      0.154200
     51 HBC        -7.3220    5.8190    4.2550 hc        1 1IU      0.118700
     52 HAA1       -7.6120    5.7850    1.6590 hc        1 1IU      0.092367
     53 HAA2       -9.3640    5.4460    1.9250 hc        1 1IU      0.092367
     54 HAA3       -8.6000    6.9970    2.5260 hc        1 1IU      0.092367
     55 H         -10.4690    6.7760    3.8330 hn        1 1IU      0.487300
     56 HA        -11.4430    5.5440    6.0570 hx        1 1IU      0.176700
     57 HB1C       -9.6510    6.8460    7.4280 hc        1 1IU      0.113700
     58 HB2C      -10.4920    8.3900    6.9730 hc        1 1IU      0.113700
     59 HB3C      -11.3480    7.0960    7.9390 hc        1 1IU      0.113700
     60 HAC1      -14.2660    8.1060    5.7370 hn        1 1IU      0.508800
     61 HAC2      -13.1810    8.2060    7.0180 hn        1 1IU      0.508800
     62 HOAH       -4.9360    4.8610    5.2980 ho        1 1IU      0.529000
     63 HAD3       -1.7780    1.3750   -0.8120 hn        1 1IU      0.503800
     64 HAV2       -3.6370    1.1670    3.6920 hn        1 1IU      0.497300
     65 H2         -9.3520    7.2790    4.9660 hn        1 1IU      0.487300
     66 HAC3      -13.8760    6.7300    6.6190 hn        1 1IU      0.508800
@<TRIPOS>BOND
     1    1    2 1   
     2    1    5 2   
     3    2    3 2   
     4    3    4 1   
     5    4    5 1   
     6    4   34 1   
     7    5    6 1   
     8    6    7 1   
     9    6   35 1   
    10    6   36 1   
    11    7    8 1   
    12    7    9 1   
    13    7   37 1   
    14    8   38 1   
    15    8   39 1   
    16    8   63 1   
    17    9   10 2   
    18    9   11 1   
    19   11   12 1   
    20   11   40 1   
    21   11   64 1   
    22   12   13 1   
    23   12   20 1   
    24   12   41 1   
    25   13   14 1   
    26   13   42 1   
    27   13   43 1   
    28   14   15 ar  
    29   14   19 ar  
    30   15   16 ar  
    31   15   44 1   
    32   16   17 ar  
    33   16   46 1   
    34   17   18 ar  
    35   17   47 1   
    36   18   19 ar  
    37   18   48 1   
    38   19   45 1   
    39   20   21 2   
    40   20   22 1   
    41   20   23 1   
    42   22   62 1   
    43   23   24 1   
    44   23   49 1   
    45   23   50 1   
    46   24   25 1   
    47   24   26 1   
    48   24   51 1   
    49   25   52 1   
    50   25   53 1   
    51   25   54 1   
    52   26   27 2   
    53   26   28 1   
    54   28   29 1   
    55   28   55 1   
    56   28   65 1   
    57   29   30 1   
    58   29   31 1   
    59   29   56 1   
    60   30   57 1   
    61   30   58 1   
    62   30   59 1   
    63   31   32 2   
    64   31   33 1   
    65   33   60 1   
    66   33   61 1   
    67   33   66 1   
@<TRIPOS>SUBSTRUCTURE
     1 1IU         1 TEMP              0 ****  ****    0 ROOT
