@<TRIPOS>MOLECULE
1IU
   65    66     1     0     0
SMALL
bcc


@<TRIPOS>ATOM
      1 NAS        -0.3950    1.6950   -0.2720 nc        1 1IU     -0.454000
      2 NAR         0.8660    1.6960   -0.6760 nc        1 1IU      0.024000
      3 NAW         1.4790    0.6190   -0.3270 nd        1 1IU     -0.103800
      4 NAT         0.6190   -0.1570    0.3460 na        1 1IU     -0.118400
      5 CBB        -0.6110    0.5150    0.3990 cd        1 1IU      0.307800
      6 CAP        -1.8780    0.0650    1.0200 c3        1 1IU     -0.119700
      7 CBE        -2.8400    1.2600    1.2140 c3        1 1IU      0.103500
      8 NAD        -3.2370    1.9130   -0.0710 nz        1 1IU     -0.852600
      9 CAZ        -4.0910    0.7240    1.9330 c         1 1IU      0.527100
     10 OAG        -4.8610   -0.0940    1.4600 o         1 1IU     -0.361100
     11 NAV        -4.3820    1.2650    3.3100 ny        1 1IU     -0.620800
     12 CBF        -5.7440    1.8560    3.4610 c3        1 1IU     -0.170700
     13 CAO        -6.1650    1.9150    4.9360 c3        1 1IU     -0.060100
     14 CBA        -5.9780    0.6140    5.6270 ca        1 1IU     -0.178300
     15 CAM        -4.8250    0.3890    6.3940 ca        1 1IU     -0.135000
     16 CAK        -4.6660   -0.8140    7.0800 ca        1 1IU     -0.107500
     17 CAJ        -5.6530   -1.8000    7.0040 ca        1 1IU     -0.080000
     18 CAL        -6.8020   -1.5790    6.2420 ca        1 1IU     -0.107500
     19 CAN        -6.9660   -0.3750    5.5560 ca        1 1IU     -0.135000
     20 PBG        -5.8120    3.4480    2.8440 p5        1 1IU      1.570100
     21 OAI        -4.9530    3.3680    1.6470 o         1 1IU     -0.951300
     22 OAH        -4.9520    4.2730    3.8990 oh        1 1IU     -0.820400
     23 CAQ        -7.3470    3.9230    2.7220 c3        1 1IU     -0.501600
     24 CBC        -7.6700    5.2320    3.4340 c3        1 1IU     -0.094700
     25 CAA        -8.0930    6.3040    2.4480 c3        1 1IU     -0.121100
     26 CAY        -8.7350    4.9970    4.5170 c         1 1IU      0.677100
     27 OAF        -8.9440    3.8560    4.9730 o         1 1IU     -0.614100
     28 N          -9.4190    6.0910    5.0180 ns        1 1IU     -0.551900
     29 CA        -10.3880    5.9770    6.0700 c3        1 1IU      0.075700
     30 CB        -10.3410    7.1450    7.0570 c3        1 1IU     -0.144100
     31 C         -11.8190    5.8740    5.4880 c         1 1IU      0.499100
     32 O         -12.1630    5.8090    4.3220 o         1 1IU     -0.380100
     33 NAC       -12.9500    5.8370    6.4910 nz        1 1IU     -0.759400
     34 HAT         0.8750   -1.0590    0.6960 hn        1 1IU      0.371700
     35 HAP1       -2.3580   -0.7300    0.3800 hc        1 1IU      0.117200
     36 HAP2       -1.6710   -0.3870    2.0300 hc        1 1IU      0.117200
     37 HBE        -2.3190    2.0630    1.8250 hx        1 1IU      0.149700
     38 HAD1       -3.6810    1.2360   -0.7000 hn        1 1IU      0.504467
     39 HAD2       -2.3830    2.2920   -0.5340 hn        1 1IU      0.504467
     40 HAV        -3.6990    1.9920    3.5570 hn        1 1IU      0.483300
     41 HBF        -6.4630    1.1500    2.9410 hx        1 1IU      0.162700
     42 HAO1       -5.5730    2.7220    5.4530 hc        1 1IU      0.108200
     43 HAO2       -7.2510    2.2170    4.9570 hc        1 1IU      0.108200
     44 HAM        -4.0720    1.1830    6.5100 ha        1 1IU      0.135000
     45 HAN        -7.8860   -0.1990    4.9780 ha        1 1IU      0.135000
     46 HAK        -3.7700   -0.9800    7.7020 ha        1 1IU      0.169500
     47 HAJ        -5.5320   -2.7460    7.5590 ha        1 1IU      0.177000
     48 HAL        -7.5880   -2.3510    6.1940 ha        1 1IU      0.169500
     49 HAQ1       -8.0920    3.1430    3.0760 hc        1 1IU      0.170200
     50 HAQ2       -7.6440    4.0500    1.6340 hc        1 1IU      0.170200
     51 HBC        -6.7540    5.5910    3.9920 hc        1 1IU      0.094700
     52 HAA1       -8.0600    7.3180    2.9190 hc        1 1IU      0.073033
     53 HAA2       -7.4020    6.3320    1.5690 hc        1 1IU      0.073033
     54 HAA3       -9.1260    6.1130    2.0670 hc        1 1IU      0.073033
     55 H          -9.2750    6.9940    4.6230 hn        1 1IU      0.350500
     56 HA        -10.2040    4.9970    6.6200 h1        1 1IU      0.133700
     57 HB1C      -10.7590    8.0810    6.6140 hc        1 1IU      0.085700
     58 HB2C       -9.2810    7.3520    7.3600 hc        1 1IU      0.085700
     59 HB3C      -10.9010    6.8850    7.9880 hc        1 1IU      0.085700
     60 HAC1      -12.9680    6.7120    7.0290 hn        1 1IU      0.478800
     61 HAC2      -13.8530    5.7280    6.0050 hn        1 1IU      0.478800
     62 HAD3       -3.8900    2.7020    0.1110 hn        1 1IU      0.504467
     63 HAV2       -4.3050    0.4830    4.0020 hn        1 1IU      0.483300
     64 H2         -4.3230    4.9320    3.6000 ho        1 1IU      0.524000
     65 HAC3      -12.8260    5.0530    7.1400 hn        1 1IU      0.478800
@<TRIPOS>BOND
     1    1    2 1   
     2    1    5 2   
     3    2    3 2   
     4    3    4 1   
     5    4    5 1   
     6    4   34 1   
     7    5    6 1   
     8    6    7 1   
     9    6   35 1   
    10    6   36 1   
    11    7    8 1   
    12    7    9 1   
    13    7   37 1   
    14    8   38 1   
    15    8   39 1   
    16    8   62 1   
    17    9   10 2   
    18    9   11 1   
    19   11   12 1   
    20   11   40 1   
    21   11   63 1   
    22   12   13 1   
    23   12   20 1   
    24   12   41 1   
    25   13   14 1   
    26   13   42 1   
    27   13   43 1   
    28   14   15 ar  
    29   14   19 ar  
    30   15   16 ar  
    31   15   44 1   
    32   16   17 ar  
    33   16   46 1   
    34   17   18 ar  
    35   17   47 1   
    36   18   19 ar  
    37   18   48 1   
    38   19   45 1   
    39   20   21 2   
    40   20   22 1   
    41   20   23 1   
    42   22   64 1   
    43   23   24 1   
    44   23   49 1   
    45   23   50 1   
    46   24   25 1   
    47   24   26 1   
    48   24   51 1   
    49   25   52 1   
    50   25   53 1   
    51   25   54 1   
    52   26   27 2   
    53   26   28 1   
    54   28   29 1   
    55   28   55 1   
    56   29   30 1   
    57   29   31 1   
    58   29   56 1   
    59   30   57 1   
    60   30   58 1   
    61   30   59 1   
    62   31   32 2   
    63   31   33 1   
    64   33   60 1   
    65   33   61 1   
    66   33   65 1   
@<TRIPOS>SUBSTRUCTURE
     1 1IU         1 TEMP              0 ****  ****    0 ROOT
