@<TRIPOS>MOLECULE
1J1
   37    34     1     0     0
SMALL
bcc


@<TRIPOS>ATOM
      1 C4         -1.0980    2.0800    2.0220 c3        1 1J1     -0.083400
      2 C5         -0.9220    0.9230    2.9820 c3        1 1J1     -0.087400
      3 C6         -0.2420   -0.2680    2.3340 c3        1 1J1     -0.010300
      4 C10         4.5270    0.7720    2.1740 c2        1 1J1      0.549300
      5 C13         6.1000   -0.8900   -1.2190 c2        1 1J1     -0.247500
      6 C1          1.4870   -1.0960   -1.4430 c         1 1J1      0.894600
      7 O9          0.6420   -0.9900   -0.5250 o         1 1J1     -0.756800
      8 C2          0.9720   -1.7080   -2.7920 c2        1 1J1      0.140000
      9 N18        -0.2570   -2.0910   -2.9550 nh        1 1J1     -0.648600
     10 C3         -1.7730    3.2480    2.6940 c3        1 1J1     -0.097100
     11 N7          5.8860    0.9390    1.4930 n4        1 1J1     -0.755400
     12 O16         4.5580    1.0100    3.3870 o         1 1J1     -0.578300
     13 C11         3.5080    0.3830    1.2900 ce        1 1J1      0.117700
     14 C12         6.8190   -1.6440   -0.3950 c2        1 1J1     -0.247500
     15 C14         1.1380   -0.0090    2.0020 c1        1 1J1      0.471700
     16 N17         2.2480    0.1870    1.7170 n1        1 1J1     -0.717500
     17 H1         -1.1670    3.6130    3.5580 hc        1 1J1      0.044033
     18 H2         -1.7070    1.7480    1.1410 hc        1 1J1      0.041700
     19 H3         -0.0950    2.3980    1.6300 hc        1 1J1      0.041700
     20 H4         -1.9290    0.5840    3.3470 hc        1 1J1      0.067200
     21 H5         -0.3400    1.2580    3.8800 hc        1 1J1      0.067200
     22 H6         -0.2800   -1.1590    3.0240 hc        1 1J1      0.113200
     23 H7          6.3670   -2.4050    0.2580 ha        1 1J1      0.128500
     24 H8          6.5590   -0.1650   -1.9060 ha        1 1J1      0.128500
     25 H10        -1.8960    4.0900    1.9700 hc        1 1J1      0.044033
     26 H11         1.7140   -1.8010   -3.6150 h4        1 1J1      0.187000
     27 H12        -0.6100   -2.4840   -3.8060 hn        1 1J1      0.473800
     28 H14        -0.9110   -1.9950   -2.1920 hn        1 1J1      0.473800
     29 H15        -2.7830    2.9580    3.0720 hc        1 1J1      0.044033
     30 H16         5.8800    1.7880    0.9280 hn        1 1J1      0.453133
     31 H17         6.0820    0.1330    0.8830 hn        1 1J1      0.453133
     32 H18         3.6510    0.1810    0.2100 h4        1 1J1      0.228000
     33 H19         7.9160   -1.5940   -0.3460 ha        1 1J1      0.128500
     34 H20         5.0030   -0.9730   -1.3050 ha        1 1J1      0.128500
     35 H183       -0.7550   -0.5470    1.3650 hc        1 1J1      0.113200
     36 H72         6.6080    1.0180    2.2140 hn        1 1J1      0.453133
     37 O8          2.6950   -0.7870   -1.4530 o         1 1J1     -0.756800
@<TRIPOS>BOND
     1    1    2 1   
     2    1   10 1   
     3    1   18 1   
     4    1   19 1   
     5    2    3 1   
     6    2   20 1   
     7    2   21 1   
     8    3   15 1   
     9    3   22 1   
    10    3   35 1   
    11    4   11 1   
    12    4   12 1   
    13    4   13 2   
    14    5   14 2   
    15    5   24 1   
    16    5   34 1   
    17    6    7 1   
    18    6    8 2   
    19    6   37 1   
    20    8    9 1   
    21    8   26 1   
    22    9   27 1   
    23    9   28 1   
    24   10   17 1   
    25   10   25 1   
    26   10   29 1   
    27   11   30 1   
    28   11   31 1   
    29   11   36 1   
    30   13   16 1   
    31   13   32 1   
    32   14   23 1   
    33   14   33 1   
    34   15   16 3   
@<TRIPOS>SUBSTRUCTURE
     1 1J1         1 TEMP              0 ****  ****    0 ROOT
