@<TRIPOS>MOLECULE
1J1
   37    34     1     0     0
SMALL
bcc


@<TRIPOS>ATOM
      1 C4          4.9300   -1.3400   -0.1880 cx        1 1J1     -0.106900
      2 C5          4.2310   -0.5110   -1.2200 cx        1 1J1     -0.106900
      3 C6          3.5300   -0.8310    0.0850 cx        1 1J1      0.007500
      4 C10         3.3880   -0.2740    2.4830 c         1 1J1      0.530100
      5 C13         4.6600    3.3300    0.7840 c2        1 1J1     -0.242500
      6 C1         -0.0010    0.7110    0.4940 c         1 1J1      0.869600
      7 O9          0.3940   -0.4710    0.6440 o         1 1J1     -0.776300
      8 C2         -1.5030    0.9420    0.1760 c2        1 1J1      0.218800
      9 N18        -1.9880    2.1580    0.2200 nh        1 1J1     -0.662600
     10 C3         -2.2950   -0.2600   -0.1650 c3        1 1J1     -0.133900
     11 N7          3.2760    0.2280    1.0710 n4        1 1J1     -0.658800
     12 O16         4.2140    0.2880    3.1860 o         1 1J1     -0.418100
     13 C11         2.4500   -1.4250    2.8480 c3        1 1J1      0.228100
     14 C12         3.7720    3.0570   -0.1650 c2        1 1J1     -0.242500
     15 C14         2.2070   -1.8210    5.3850 c1        1 1J1      0.562800
     16 N17         2.3310   -1.6230    4.2210 n1        1 1J1     -0.892300
     17 H1         -1.9200   -0.6630   -1.1450 hc        1 1J1      0.110700
     18 H2          5.0550   -2.4280   -0.3500 hc        1 1J1      0.106200
     19 H3          5.7930   -0.9060    0.3520 hc        1 1J1      0.106200
     20 H4          3.8390   -0.9890   -2.1380 hc        1 1J1      0.106200
     21 H5          4.5870    0.5190   -1.4150 hc        1 1J1      0.106200
     22 H6          2.6650   -1.5400    0.0720 hx        1 1J1      0.153700
     23 H7          2.6870    3.0200    0.0220 ha        1 1J1      0.125250
     24 H8          5.7390    3.4050    0.5860 ha        1 1J1      0.125250
     25 H10        -3.3960   -0.0820   -0.2370 hc        1 1J1      0.110700
     26 H11        -2.9480    2.3680    0.0290 hn        1 1J1      0.482300
     27 H12        -1.3760    2.9270    0.4460 hn        1 1J1      0.482300
     28 H14         1.1360   -2.8910    0.8320 ha        1 1J1      0.002000
     29 H15        -2.0900   -1.0500    0.6100 hc        1 1J1      0.110700
     30 H16         3.9340    1.0180    0.9330 hn        1 1J1      0.488300
     31 H17         2.8760   -2.3550    2.3570 h1        1 1J1      0.122200
     32 H18         1.4250   -1.2240    2.3960 h1        1 1J1      0.122200
     33 H19         4.0610    2.8960   -1.2140 ha        1 1J1      0.125250
     34 H20         4.3740    3.5340    1.8260 ha        1 1J1      0.125250
     35 H183        0.6370   -2.8320    0.3760 ha        1 1J1      0.002000
     36 H72         2.3080    0.5920    0.9170 hn        1 1J1      0.488300
     37 O8          0.7420    1.7240    0.5890 o         1 1J1     -0.776300
@<TRIPOS>BOND
     1    1    2 1   
     2    1    3 1   
     3    1   18 1   
     4    1   19 1   
     5    2    3 1   
     6    2   20 1   
     7    2   21 1   
     8    3   11 1   
     9    3   22 1   
    10    4   11 1   
    11    4   12 2   
    12    4   13 1   
    13    5   14 2   
    14    5   24 1   
    15    5   34 1   
    16    6    7 1   
    17    6    8 2   
    18    6   37 1   
    19    8    9 1   
    20    8   10 1   
    21    9   26 1   
    22    9   27 1   
    23   10   17 1   
    24   10   25 1   
    25   10   29 1   
    26   11   30 1   
    27   11   36 1   
    28   13   16 1   
    29   13   31 1   
    30   13   32 1   
    31   14   23 1   
    32   14   33 1   
    33   15   16 3   
    34   28   35 1   
@<TRIPOS>SUBSTRUCTURE
     1 1J1         1 TEMP              0 ****  ****    0 ROOT
