@<TRIPOS>MOLECULE
1J1
   35    35     1     0     0
SMALL
bcc


@<TRIPOS>ATOM
      1 C4         -1.9300   -0.3000    0.3620 c3        1 1J1     -0.074400
      2 C5         -0.6860    0.2160   -0.3320 c3        1 1J1     -0.094400
      3 C6          0.5410   -0.0120    0.5480 c3        1 1J1      0.087000
      4 C10         2.8960    0.6910    0.6610 c         1 1J1      0.666100
      5 C13         6.4130    0.2890   -0.0160 c3        1 1J1     -0.180700
      6 C1         -5.6490   -0.0000   -0.6590 c         1 1J1      0.887600
      7 O9         -5.6520    1.2250   -0.9620 o         1 1J1     -0.844300
      8 C2         -4.4440   -0.5330    0.1870 c3        1 1J1      0.018500
      9 N18        -4.5020   -1.9600    0.4840 n3        1 1J1     -0.891800
     10 C3         -3.1510   -0.1130   -0.5130 c3        1 1J1     -0.063400
     11 N7          1.7700    0.4250   -0.0680 n         1 1J1     -0.550900
     12 O16         2.9210    0.6040    1.9070 o         1 1J1     -0.629100
     13 C11         4.1390    1.1770   -0.1040 c3        1 1J1      0.012500
     14 C12         5.4130    1.1280    0.7890 c3        1 1J1     -0.101400
     15 C14         5.6330   -0.0540   -1.2680 c2        1 1J1      0.399200
     16 N17         4.4250    0.4050   -1.3230 n2        1 1J1     -0.565900
     17 H1         -1.8010   -1.3860    0.6100 hc        1 1J1      0.040700
     18 H2         -2.0750    0.2460    1.3300 hc        1 1J1      0.040700
     19 H3         -0.5610   -0.3120   -1.3140 hc        1 1J1      0.040700
     20 H4         -0.8060    1.3090   -0.5520 hc        1 1J1      0.040700
     21 H5          0.4140    0.5370    1.5250 h1        1 1J1      0.051200
     22 H6          0.6220   -1.1120    0.7900 h1        1 1J1      0.051200
     23 H7          7.3350    0.8660   -0.2680 hc        1 1J1      0.061700
     24 H8          6.7130   -0.6380    0.5290 hc        1 1J1      0.061700
     25 H10        -4.4950    0.0000    1.1810 h1        1 1J1      0.041700
     26 H11        -5.4560   -2.1720    0.7290 hn        1 1J1      0.329800
     27 H12        -4.3120   -2.4680   -0.3620 hn        1 1J1      0.329800
     28 H14        -3.2650    0.9700   -0.7890 hc        1 1J1      0.046700
     29 H15        -3.0240   -0.6910   -1.4650 hc        1 1J1      0.046700
     30 H16         1.7990    0.4610   -1.0590 hn        1 1J1      0.323500
     31 H17         3.9270    2.2410   -0.4150 h1        1 1J1      0.087700
     32 H18         5.1860    0.6620    1.7790 hc        1 1J1      0.071700
     33 H19         5.7970    2.1600    0.9670 hc        1 1J1      0.071700
     34 H20         6.0740   -0.6530   -2.0750 h4        1 1J1      0.031800
     35 O8         -6.5600   -0.8180   -0.9770 o         1 1J1     -0.844300
@<TRIPOS>BOND
     1    1    2 1   
     2    1   10 1   
     3    1   17 1   
     4    1   18 1   
     5    2    3 1   
     6    2   19 1   
     7    2   20 1   
     8    3   11 1   
     9    3   21 1   
    10    3   22 1   
    11    4   11 1   
    12    4   12 2   
    13    4   13 1   
    14    5   14 1   
    15    5   15 1   
    16    5   23 1   
    17    5   24 1   
    18    6    7 1   
    19    6    8 1   
    20    6   35 1   
    21    8    9 1   
    22    8   10 1   
    23    8   25 1   
    24    9   26 1   
    25    9   27 1   
    26   10   28 1   
    27   10   29 1   
    28   11   30 1   
    29   13   14 1   
    30   13   16 1   
    31   13   31 1   
    32   14   32 1   
    33   14   33 1   
    34   15   16 2   
    35   15   34 1   
@<TRIPOS>SUBSTRUCTURE
     1 1J1         1 TEMP              0 ****  ****    0 ROOT
