@<TRIPOS>MOLECULE
1J1
   37    35     1     0     0
SMALL
bcc


@<TRIPOS>ATOM
      1 C4          0.2970    2.1120   -1.7520 c3        1 1J1     -0.093400
      2 C5          1.4890    1.6290   -0.9520 c3        1 1J1     -0.113400
      3 C6          1.2390    1.8500    0.5420 c3        1 1J1      0.073000
      4 C10         2.0910   -0.0310    1.8780 c         1 1J1      0.608800
      5 C13         6.6700   -0.4150    3.4680 c2        1 1J1     -0.045200
      6 C1         -1.2310   -0.9910    0.2930 c         1 1J1      0.537800
      7 O9         -0.4100   -1.2370   -0.7480 oh        1 1J1     -0.571100
      8 C2         -1.5240   -2.2300    1.0980 ce        1 1J1      0.407200
      9 N18        -0.6020   -2.9330    1.6720 nv        1 1J1     -0.258100
     10 C3          0.3940    1.6810   -3.1930 c3        1 1J1     -0.100100
     11 N7          2.2160    1.2410    1.4080 ns        1 1J1     -0.509900
     12 O16         1.0680   -0.7320    1.6320 o         1 1J1     -0.770100
     13 C11         3.1580   -0.6100    2.7680 ce        1 1J1      0.355200
     14 C12         7.2820    0.5840    2.5810 c3        1 1J1     -0.087900
     15 C14         5.3680   -0.7760    3.5210 cf        1 1J1     -0.038400
     16 N17         4.3830   -0.2160    2.7010 nf        1 1J1     -0.524300
     17 H1          0.3990    0.5670   -3.2760 hc        1 1J1      0.042033
     18 H2         -0.6530    1.7150   -1.3000 hc        1 1J1      0.048700
     19 H3          0.2380    3.2310   -1.6960 hc        1 1J1      0.048700
     20 H4          2.4100    2.1810   -1.2750 hc        1 1J1      0.051200
     21 H5          1.6730    0.5410   -1.1560 hc        1 1J1      0.051200
     22 H6          0.2210    1.4380    0.8070 h1        1 1J1      0.071200
     23 H7          6.5580    1.0410    1.8650 hc        1 1J1      0.063700
     24 H8          7.3690   -0.9150    4.1650 ha        1 1J1      0.139000
     25 H10        -0.4760    2.0750   -3.7740 hc        1 1J1      0.042033
     26 H11        -2.6060   -2.5010    1.1840 h4        1 1J1      0.095800
     27 H12         0.3820   -2.6590    1.6160 hn        1 1J1      0.356200
     28 H14        -0.1980   -0.3980   -1.2120 ho        1 1J1      0.498000
     29 H15         1.3320    2.0690   -3.6590 hc        1 1J1      0.042033
     30 H16         3.0710    1.7320    1.5480 hn        1 1J1      0.345500
     31 H17         2.7610   -1.3960    3.4430 h4        1 1J1     -0.002200
     32 H18         8.1070    0.1080    1.9910 hc        1 1J1      0.063700
     33 H19         7.7320    1.4060    3.1980 hc        1 1J1      0.063700
     34 H20         5.0560   -1.5520    4.2520 h4        1 1J1      0.122000
     35 H183       -0.8160   -3.7440    2.2280 hn        1 1J1      0.356200
     36 H72         1.2350    2.9580    0.7530 h1        1 1J1      0.071200
     37 O8         -1.7130    0.1130    0.5070 o         1 1J1     -0.440000
@<TRIPOS>BOND
     1    1    2 1   
     2    1   10 1   
     3    1   18 1   
     4    1   19 1   
     5    2    3 1   
     6    2   20 1   
     7    2   21 1   
     8    3   11 1   
     9    3   22 1   
    10    3   36 1   
    11    4   11 1   
    12    4   12 2   
    13    4   13 1   
    14    5   14 1   
    15    5   15 2   
    16    5   24 1   
    17    6    7 1   
    18    6    8 1   
    19    6   37 2   
    20    7   28 1   
    21    8    9 2   
    22    8   26 1   
    23    9   27 1   
    24    9   35 1   
    25   10   17 1   
    26   10   25 1   
    27   10   29 1   
    28   11   30 1   
    29   13   16 2   
    30   13   31 1   
    31   14   23 1   
    32   14   32 1   
    33   14   33 1   
    34   15   16 1   
    35   15   34 1   
@<TRIPOS>SUBSTRUCTURE
     1 1J1         1 TEMP              0 ****  ****    0 ROOT
